data_job_07026
_audit_creation_date              2018-12-19
_audit_creation_method            'Materials Studio'
_symmetry_space_group_name_H-M    'P1'
_symmetry_Int_Tables_number       1
_symmetry_cell_setting            triclinic
loop_
_symmetry_equiv_pos_as_xyz
  x,y,z
_cell_length_a                    42.8287
_cell_length_b                    23.5833
_cell_length_c                    18.5367
_cell_angle_alpha                 90.0000
_cell_angle_beta                  77.0509
_cell_angle_gamma                 90.0000
loop_
_atom_site_label
_atom_site_type_symbol
_atom_site_fract_x
_atom_site_fract_y
_atom_site_fract_z
_atom_site_U_iso_or_equiv
_atom_site_adp_type
_atom_site_occupancy
C1     C     0.41289   0.99842   0.60601   0.00000  Uiso   1.00
C2     C     0.41102   0.94806   0.55554   0.00000  Uiso   1.00
C3     C     0.39907   0.94939   0.49188   0.00000  Uiso   1.00
C4     C     0.39944   0.89881   0.45338   0.00000  Uiso   1.00
C5     C     0.39472   0.82823   0.37133   0.00000  Uiso   1.00
C6     C     0.39470   0.98073   0.68313   0.00000  Uiso   1.00
C7     C     0.36902   0.00954   0.72676   0.00000  Uiso   1.00
C8     C     0.35566   0.98646   0.79567   0.00000  Uiso   1.00
C9     C     0.32561   0.96663   0.91173   0.00000  Uiso   1.00
C10    C     0.44795   0.00328   0.61006   0.00000  Uiso   1.00
C11    C     0.46706   0.05104   0.59228   0.00000  Uiso   1.00
C12    C     0.49853   0.04695   0.59969   0.00000  Uiso   1.00
C13    C     0.55117   0.06211   0.60231   0.00000  Uiso   1.00
C14    C     0.43480   0.90622   0.65081   0.00000  Uiso   1.00
C15    C     0.42292   0.89799   0.57987   0.00000  Uiso   1.00
C16    C     0.42332   0.84739   0.54145   0.00000  Uiso   1.00
C17    C     0.41137   0.84864   0.47775   0.00000  Uiso   1.00
C18    C     0.40660   0.93066   0.70747   0.00000  Uiso   1.00
C19    C     0.39327   0.90754   0.77633   0.00000  Uiso   1.00
C20    C     0.36758   0.93630   0.82005   0.00000  Uiso   1.00
C21    C     0.45986   0.95320   0.63440   0.00000  Uiso   1.00
C22    C     0.49131   0.94903   0.64185   0.00000  Uiso   1.00
C23    C     0.51045   0.99678   0.62407   0.00000  Uiso   1.00
H24    H     0.40362   0.03741   0.58707   0.00000  Uiso   1.00
H25    H     0.38986   0.98815   0.47307   0.00000  Uiso   1.00
H26    H     0.35982   0.04829   0.70791   0.00000  Uiso   1.00
H27    H     0.45784   0.08978   0.57345   0.00000  Uiso   1.00
H28    H     0.37984   0.91146   0.35744   0.00000  Uiso   1.00
H29    H     0.31651   0.03828   0.85262   0.00000  Uiso   1.00
H30    H     0.52320   0.12577   0.56908   0.00000  Uiso   1.00
H31    H     0.44407   0.86723   0.66976   0.00000  Uiso   1.00
H32    H     0.93253   0.30864   0.56030   0.00000  Uiso   1.00
H33    H     0.40249   0.86878   0.79514   0.00000  Uiso   1.00
H34    H     0.00051   0.41027   0.66068   0.00000  Uiso   1.00
H35    H     0.91447   0.26576   0.42824   0.00000  Uiso   1.00
H36    H     0.35114   0.89258   0.92342   0.00000  Uiso   1.00
H37    H     0.55784   0.98007   0.63988   0.00000  Uiso   1.00
O38    O     0.88882   0.30314   0.31935   0.00000  Uiso   1.00
O39    O     0.30574   0.96952   0.96902   0.00000  Uiso   1.00
O40    O     0.57692   0.08431   0.59702   0.00000  Uiso   1.00
N41    N     0.38958   0.88521   0.38911   0.00000  Uiso   1.00
N42    N     0.33036   0.00378   0.85208   0.00000  Uiso   1.00
N43    N     0.52361   0.08558   0.58701   0.00000  Uiso   1.00
N44    N     0.90822   0.30682   0.42721   0.00000  Uiso   1.00
N45    N     0.34900   0.92538   0.89017   0.00000  Uiso   1.00
N46    N     0.54224   0.00718   0.62511   0.00000  Uiso   1.00
C47    C     0.42784   0.43918   0.69477   0.00000  Uiso   1.00
C48    C     0.41713   0.46656   0.62980   0.00000  Uiso   1.00
C49    C     0.38623   0.46592   0.61818   0.00000  Uiso   1.00
C50    C     0.38132   0.49339   0.55541   0.00000  Uiso   1.00
C51    C     0.36088   0.53175   0.46200   0.00000  Uiso   1.00
C52    C     0.45498   0.39878   0.66095   0.00000  Uiso   1.00
C53    C     0.45590   0.34115   0.67554   0.00000  Uiso   1.00
C54    C     0.48285   0.31157   0.63899   0.00000  Uiso   1.00
C55    C     0.52117   0.24470   0.59399   0.00000  Uiso   1.00
C56    C     0.44310   0.48642   0.73132   0.00000  Uiso   1.00
C57    C     0.43403   0.50248   0.80509   0.00000  Uiso   1.00
C58    C     0.45099   0.54667   0.82780   0.00000  Uiso   1.00
C59    C     0.97087   0.11588   0.89207   0.00000  Uiso   1.00
C60    C     0.47408   0.48910   0.60394   0.00000  Uiso   1.00
C61    C     0.44225   0.49367   0.58046   0.00000  Uiso   1.00
C62    C     0.43738   0.52115   0.51769   0.00000  Uiso   1.00
C63    C     0.40648   0.52056   0.50598   0.00000  Uiso   1.00
C64    C     0.48009   0.42589   0.61161   0.00000  Uiso   1.00
C65    C     0.50705   0.39638   0.57504   0.00000  Uiso   1.00
C66    C     0.50801   0.33873   0.58957   0.00000  Uiso   1.00
C67    C     0.46821   0.51353   0.68199   0.00000  Uiso   1.00
C68    C     0.98519   0.05770   0.70459   0.00000  Uiso   1.00
C69    C     0.97615   0.07383   0.77837   0.00000  Uiso   1.00
H70    H     0.40829   0.41807   0.73318   0.00000  Uiso   1.00
H71    H     0.36680   0.44493   0.65638   0.00000  Uiso   1.00
H72    H     0.43646   0.32018   0.71373   0.00000  Uiso   1.00
H73    H     0.41460   0.48149   0.84325   0.00000  Uiso   1.00
H74    H     0.33188   0.48665   0.54945   0.00000  Uiso   1.00
H75    H     0.47876   0.22362   0.67040   0.00000  Uiso   1.00
H76    H     0.43267   0.56375   0.94353   0.00000  Uiso   1.00
H77    H     0.99363   0.01021   0.56553   0.00000  Uiso   1.00
H78    H     0.45682   0.54213   0.47952   0.00000  Uiso   1.00
H79    H     0.52648   0.41738   0.53687   0.00000  Uiso   1.00
H80    H     0.00462   0.07868   0.66639   0.00000  Uiso   1.00
H81    H     0.40495   0.56553   0.40590   0.00000  Uiso   1.00
H82    H     0.55183   0.30250   0.52685   0.00000  Uiso   1.00
H83    H     0.00573   0.14263   0.79998   0.00000  Uiso   1.00
O84    O     0.34266   0.54541   0.42410   0.00000  Uiso   1.00
O85    O     0.53537   0.20032   0.58280   0.00000  Uiso   1.00
O86    O     0.97489   0.14657   0.94114   0.00000  Uiso   1.00
N87    N     0.35413   0.50084   0.52747   0.00000  Uiso   1.00
N88    N     0.49145   0.25492   0.64055   0.00000  Uiso   1.00
N89    N     0.94836   0.07291   0.89591   0.00000  Uiso   1.00
N90    N     0.39344   0.54329   0.45023   0.00000  Uiso   1.00
N91    N     0.53077   0.29737   0.56330   0.00000  Uiso   1.00
N92    N     0.98767   0.11536   0.81867   0.00000  Uiso   1.00
C93    C     0.17481   0.21004   0.07229   0.00000  Uiso   1.00
C94    C     0.14158   0.22320   0.11929   0.00000  Uiso   1.00
C95    C     0.11304   0.21958   0.09594   0.00000  Uiso   1.00
C96    C     0.08517   0.23342   0.14729   0.00000  Uiso   1.00
C97    C     0.03346   0.25132   0.20929   0.00000  Uiso   1.00
C98    C     0.19479   0.26334   0.07408   0.00000  Uiso   1.00
C99    C     0.21098   0.29347   0.01272   0.00000  Uiso   1.00
C100   C     0.22791   0.34109   0.02601   0.00000  Uiso   1.00
C101   C     0.25883   0.42128   0.01782   0.00000  Uiso   1.00
C102   C     0.18894   0.16483   0.11444   0.00000  Uiso   1.00
C103   C     0.20024   0.11214   0.08702   0.00000  Uiso   1.00
C104   C     0.21225   0.07684   0.13429   0.00000  Uiso   1.00
C105   C     0.23410   0.00409   0.18876   0.00000  Uiso   1.00
C106   C     0.17608   0.24104   0.20499   0.00000  Uiso   1.00
C107   C     0.14227   0.24003   0.19136   0.00000  Uiso   1.00
C108   C     0.11444   0.25388   0.24276   0.00000  Uiso   1.00
C109   C     0.08586   0.25029   0.21949   0.00000  Uiso   1.00
C110   C     0.19548   0.28017   0.14615   0.00000  Uiso   1.00
C111   C     0.21238   0.32776   0.15953   0.00000  Uiso   1.00
C112   C     0.22860   0.35796   0.09821   0.00000  Uiso   1.00
C113   C     0.18963   0.18167   0.18652   0.00000  Uiso   1.00
C114   C     0.20163   0.14644   0.23383   0.00000  Uiso   1.00
C115   C     0.21294   0.09371   0.20649   0.00000  Uiso   1.00
H116   H     0.17428   0.19694   0.01618   0.00000  Uiso   1.00
H117   H     0.11251   0.20656   0.04016   0.00000  Uiso   1.00
H118   H     0.21045   0.28043   0.95695   0.00000  Uiso   1.00
H119   H     0.19970   0.09913   0.03124   0.00000  Uiso   1.00
H120   H     0.04434   0.22467   0.09852   0.00000  Uiso   1.00
H121   H     0.25085   0.38042   0.92307   0.00000  Uiso   1.00
H122   H     0.22819   0.99812   0.07973   0.00000  Uiso   1.00
H123   H     0.17662   0.25415   0.26110   0.00000  Uiso   1.00
H124   H     0.11498   0.26691   0.29853   0.00000  Uiso   1.00
H125   H     0.21291   0.34078   0.21532   0.00000  Uiso   1.00
H126   H     0.20216   0.15948   0.28961   0.00000  Uiso   1.00
H127   H     0.04634   0.27366   0.30823   0.00000  Uiso   1.00
H128   H     0.25285   0.42940   0.13277   0.00000  Uiso   1.00
H129   H     0.23019   0.04710   0.28943   0.00000  Uiso   1.00
O130   O     0.00475   0.25655   0.22357   0.00000  Uiso   1.00
O131   O     0.27569   0.46087   0.99338   0.00000  Uiso   1.00
O132   O     0.24595   0.95931   0.19891   0.00000  Uiso   1.00
N133   N     0.05327   0.23444   0.14275   0.00000  Uiso   1.00
N134   N     0.24634   0.38006   0.97871   0.00000  Uiso   1.00
N135   N     0.22516   0.02265   0.12516   0.00000  Uiso   1.00
N136   N     0.05435   0.26079   0.25559   0.00000  Uiso   1.00
N137   N     0.24741   0.40641   0.09155   0.00000  Uiso   1.00
N138   N     0.22623   0.04900   0.23800   0.00000  Uiso   1.00
C139   C     0.37066   0.50759   0.16608   0.00000  Uiso   1.00
C140   C     0.37399   0.47405   0.09442   0.00000  Uiso   1.00
C141   C     0.34930   0.46116   0.05983   0.00000  Uiso   1.00
C142   C     0.35725   0.43006   0.99469   0.00000  Uiso   1.00
C143   C     0.35762   0.38067   0.88788   0.00000  Uiso   1.00
C144   C     0.39399   0.55712   0.14789   0.00000  Uiso   1.00
C145   C     0.88612   0.11408   0.15827   0.00000  Uiso   1.00
C146   C     0.91091   0.15291   0.13815   0.00000  Uiso   1.00
C147   C     0.94234   0.23250   0.11441   0.00000  Uiso   1.00
C148   C     0.38378   0.46945   0.21879   0.00000  Uiso   1.00
C149   C     0.36733   0.45272   0.28878   0.00000  Uiso   1.00
C150   C     0.38353   0.41775   0.32836   0.00000  Uiso   1.00
C151   C     0.39910   0.36122   0.41470   0.00000  Uiso   1.00
C152   C     0.42869   0.47527   0.11192   0.00000  Uiso   1.00
C153   C     0.40551   0.45649   0.06501   0.00000  Uiso   1.00
C154   C     0.41350   0.42540   0.99990   0.00000  Uiso   1.00
C155   C     0.38882   0.41247   0.96522   0.00000  Uiso   1.00
C156   C     0.42551   0.53957   0.11848   0.00000  Uiso   1.00
C157   C     0.95032   0.07833   0.09835   0.00000  Uiso   1.00
C158   C     0.94249   0.13533   0.10868   0.00000  Uiso   1.00
C159   C     0.41530   0.45190   0.18937   0.00000  Uiso   1.00
C160   C     0.43153   0.41696   0.22886   0.00000  Uiso   1.00
C161   C     0.41510   0.40016   0.29889   0.00000  Uiso   1.00
H162   H     0.34612   0.52126   0.18898   0.00000  Uiso   1.00
H163   H     0.32491   0.47476   0.08261   0.00000  Uiso   1.00
H164   H     0.36172   0.62765   0.18104   0.00000  Uiso   1.00
H165   H     0.34293   0.46631   0.31153   0.00000  Uiso   1.00
H166   H     0.31528   0.41548   0.95168   0.00000  Uiso   1.00
H167   H     0.89291   0.23787   0.15926   0.00000  Uiso   1.00
H168   H     0.35330   0.39764   0.43443   0.00000  Uiso   1.00
H169   H     0.45323   0.46160   0.08901   0.00000  Uiso   1.00
H170   H     0.43789   0.41182   0.97715   0.00000  Uiso   1.00
H171   H     0.97471   0.06473   0.07559   0.00000  Uiso   1.00
H172   H     0.45592   0.40338   0.20607   0.00000  Uiso   1.00
H173   H     0.40699   0.36440   0.86609   0.00000  Uiso   1.00
H174   H     0.98462   0.18680   0.07367   0.00000  Uiso   1.00
H175   H     0.44500   0.34657   0.34884   0.00000  Uiso   1.00
O176   O     0.34911   0.35829   0.83709   0.00000  Uiso   1.00
O177   O     0.95096   0.28125   0.10944   0.00000  Uiso   1.00
O178   O     0.39898   0.33488   0.47045   0.00000  Uiso   1.00
N179   N     0.33897   0.41028   0.94690   0.00000  Uiso   1.00
N180   N     0.91155   0.21170   0.14096   0.00000  Uiso   1.00
N181   N     0.37451   0.39363   0.39823   0.00000  Uiso   1.00
N182   N     0.38832   0.38279   0.90084   0.00000  Uiso   1.00
N183   N     0.96090   0.18421   0.09490   0.00000  Uiso   1.00
N184   N     0.42386   0.36614   0.35217   0.00000  Uiso   1.00
C185   C     0.71784   0.23618   0.52593   0.00000  Uiso   1.00
C186   C     0.68438   0.22906   0.51149   0.00000  Uiso   1.00
C187   C     0.67545   0.24192   0.44587   0.00000  Uiso   1.00
C188   C     0.64369   0.23238   0.44373   0.00000  Uiso   1.00
C189   C     0.59508   0.22459   0.41197   0.00000  Uiso   1.00
C190   C     0.72742   0.17802   0.54972   0.00000  Uiso   1.00
C191   C     0.25469   0.64797   0.51626   0.00000  Uiso   1.00
C192   C     0.25916   0.59548   0.54632   0.00000  Uiso   1.00
C193   C     0.27740   0.50846   0.57396   0.00000  Uiso   1.00
C194   C     0.71393   0.27417   0.59393   0.00000  Uiso   1.00
C195   C     0.22986   0.82496   0.59765   0.00000  Uiso   1.00
C196   C     0.22297   0.85341   0.66493   0.00000  Uiso   1.00
C197   C     0.22025   0.91569   0.76120   0.00000  Uiso   1.00
C198   C     0.67729   0.19637   0.63882   0.00000  Uiso   1.00
C199   C     0.66236   0.20743   0.57281   0.00000  Uiso   1.00
C200   C     0.63059   0.19788   0.57077   0.00000  Uiso   1.00
C201   C     0.62162   0.21072   0.50516   0.00000  Uiso   1.00
C202   C     0.70540   0.15640   0.61104   0.00000  Uiso   1.00
C203   C     0.20983   0.60393   0.64116   0.00000  Uiso   1.00
C204   C     0.23710   0.57381   0.60775   0.00000  Uiso   1.00
C205   C     0.69190   0.25255   0.65525   0.00000  Uiso   1.00
C206   C     0.68499   0.28092   0.72254   0.00000  Uiso   1.00
C207   C     0.20090   0.83175   0.72636   0.00000  Uiso   1.00
H208   H     0.73499   0.25301   0.47819   0.00000  Uiso   1.00
H209   H     0.69251   0.25865   0.39843   0.00000  Uiso   1.00
H210   H     0.27173   0.66472   0.46882   0.00000  Uiso   1.00
H211   H     0.24690   0.84168   0.55019   0.00000  Uiso   1.00
H212   H     0.63570   0.25534   0.33703   0.00000  Uiso   1.00
H213   H     0.30276   0.55730   0.48546   0.00000  Uiso   1.00
H214   H     0.25039   0.93046   0.65704   0.00000  Uiso   1.00
H215   H     0.66014   0.17954   0.68656   0.00000  Uiso   1.00
H216   H     0.61355   0.18114   0.61823   0.00000  Uiso   1.00
H217   H     0.19278   0.58721   0.68861   0.00000  Uiso   1.00
H218   H     0.66795   0.26418   0.76998   0.00000  Uiso   1.00
H219   H     0.57162   0.19243   0.51542   0.00000  Uiso   1.00
H220   H     0.23868   0.49439   0.66386   0.00000  Uiso   1.00
H221   H     0.18631   0.86756   0.83544   0.00000  Uiso   1.00
O222   O     0.57436   0.22625   0.37751   0.00000  Uiso   1.00
O223   O     0.29354   0.46644   0.57225   0.00000  Uiso   1.00
O224   O     0.22483   0.95602   0.79736   0.00000  Uiso   1.00
N225   N     0.62701   0.24033   0.38840   0.00000  Uiso   1.00
N226   N     0.28320   0.55517   0.52716   0.00000  Uiso   1.00
N227   N     0.23424   0.90403   0.68758   0.00000  Uiso   1.00
N228   N     0.59253   0.20648   0.48439   0.00000  Uiso   1.00
N229   N     0.24872   0.52132   0.62316   0.00000  Uiso   1.00
N230   N     0.19976   0.87018   0.78358   0.00000  Uiso   1.00
C231   C     0.35907   0.95664   0.22308   0.00000  Uiso   1.00
C232   C     0.35130   0.00698   0.17852   0.00000  Uiso   1.00
C233   C     0.33360   0.00482   0.12437   0.00000  Uiso   1.00
C234   C     0.32914   0.05554   0.09000   0.00000  Uiso   1.00
C235   C     0.31512   0.12595   0.01793   0.00000  Uiso   1.00
C236   C     0.34656   0.97220   0.30427   0.00000  Uiso   1.00
C237   C     0.32490   0.94079   0.35584   0.00000  Uiso   1.00
C238   C     0.31646   0.96223   0.42733   0.00000  Uiso   1.00
C239   C     0.29511   0.97863   0.55050   0.00000  Uiso   1.00
C240   C     0.39548   0.95510   0.21061   0.00000  Uiso   1.00
C241   C     0.41494   0.90931   0.18345   0.00000  Uiso   1.00
C242   C     0.44768   0.91635   0.17611   0.00000  Uiso   1.00
C243   C     0.00228   0.40620   0.15386   0.00000  Uiso   1.00
C244   C     0.38262   0.05056   0.25835   0.00000  Uiso   1.00
C245   C     0.36409   0.05799   0.19769   0.00000  Uiso   1.00
C246   C     0.35966   0.10873   0.16339   0.00000  Uiso   1.00
C247   C     0.34197   0.10665   0.10919   0.00000  Uiso   1.00
C248   C     0.35936   0.02321   0.32343   0.00000  Uiso   1.00
C249   C     0.35096   0.04471   0.39486   0.00000  Uiso   1.00
C250   C     0.32928   0.01334   0.44652   0.00000  Uiso   1.00
C251   C     0.40827   0.00612   0.22977   0.00000  Uiso   1.00
C252   C     0.44100   0.01323   0.22247   0.00000  Uiso   1.00
C253   C     0.46050   0.96746   0.19530   0.00000  Uiso   1.00
H254   H     0.34910   0.91692   0.20817   0.00000  Uiso   1.00
H255   H     0.32370   0.96533   0.10956   0.00000  Uiso   1.00
H256   H     0.31500   0.90131   0.34100   0.00000  Uiso   1.00
H257   H     0.40502   0.86984   0.16863   0.00000  Uiso   1.00
H258   H     0.30117   0.04150   0.00870   0.00000  Uiso   1.00
H259   H     0.28283   0.90650   0.49671   0.00000  Uiso   1.00
H260   H     0.97267   0.34014   0.13325   0.00000  Uiso   1.00
H261   H     0.39259   0.09028   0.27327   0.00000  Uiso   1.00
H262   H     0.36957   0.14821   0.17823   0.00000  Uiso   1.00
H263   H     0.36087   0.08418   0.40967   0.00000  Uiso   1.00
H264   H     0.45089   0.05271   0.23730   0.00000  Uiso   1.00
H265   H     0.33840   0.18993   0.06444   0.00000  Uiso   1.00
H266   H     0.32006   0.05493   0.55245   0.00000  Uiso   1.00
H267   H     0.50990   0.98857   0.18898   0.00000  Uiso   1.00
O268   O     0.30384   0.15070   0.97289   0.00000  Uiso   1.00
O269   O     0.27980   0.97358   0.61314   0.00000  Uiso   1.00
O270   O     0.02886   0.38651   0.13628   0.00000  Uiso   1.00
N271   N     0.31309   0.06848   0.03485   0.00000  Uiso   1.00
N272   N     0.29595   0.94227   0.49111   0.00000  Uiso   1.00
N273   N     0.97343   0.38022   0.15132   0.00000  Uiso   1.00
N274   N     0.33313   0.14835   0.06484   0.00000  Uiso   1.00
N275   N     0.31598   0.02214   0.52110   0.00000  Uiso   1.00
N276   N     0.49346   0.96009   0.18131   0.00000  Uiso   1.00
C277   C     0.91289   0.49842   0.60601   0.00000  Uiso   1.00
C278   C     0.91102   0.44806   0.55554   0.00000  Uiso   1.00
C279   C     0.89907   0.44939   0.49188   0.00000  Uiso   1.00
C280   C     0.89944   0.39881   0.45338   0.00000  Uiso   1.00
C281   C     0.89472   0.32823   0.37133   0.00000  Uiso   1.00
C282   C     0.89470   0.48073   0.68313   0.00000  Uiso   1.00
C283   C     0.86902   0.50954   0.72676   0.00000  Uiso   1.00
C284   C     0.85566   0.48646   0.79567   0.00000  Uiso   1.00
C285   C     0.82561   0.46663   0.91173   0.00000  Uiso   1.00
C286   C     0.94795   0.50328   0.61006   0.00000  Uiso   1.00
C287   C     0.96706   0.55104   0.59228   0.00000  Uiso   1.00
C288   C     0.99853   0.54695   0.59969   0.00000  Uiso   1.00
C289   C     0.05117   0.56211   0.60231   0.00000  Uiso   1.00
C290   C     0.93480   0.40622   0.65081   0.00000  Uiso   1.00
C291   C     0.92292   0.39799   0.57987   0.00000  Uiso   1.00
C292   C     0.92332   0.34739   0.54145   0.00000  Uiso   1.00
C293   C     0.91137   0.34864   0.47775   0.00000  Uiso   1.00
C294   C     0.90660   0.43066   0.70747   0.00000  Uiso   1.00
C295   C     0.89327   0.40754   0.77633   0.00000  Uiso   1.00
C296   C     0.86758   0.43630   0.82005   0.00000  Uiso   1.00
C297   C     0.95986   0.45320   0.63440   0.00000  Uiso   1.00
C298   C     0.99131   0.44903   0.64185   0.00000  Uiso   1.00
C299   C     0.01045   0.49678   0.62407   0.00000  Uiso   1.00
H300   H     0.90362   0.53741   0.58707   0.00000  Uiso   1.00
H301   H     0.88986   0.48815   0.47307   0.00000  Uiso   1.00
H302   H     0.85982   0.54829   0.70791   0.00000  Uiso   1.00
H303   H     0.95784   0.58978   0.57345   0.00000  Uiso   1.00
H304   H     0.87984   0.41146   0.35744   0.00000  Uiso   1.00
H305   H     0.81651   0.53828   0.85262   0.00000  Uiso   1.00
H306   H     0.02320   0.62577   0.56908   0.00000  Uiso   1.00
H307   H     0.94407   0.36723   0.66976   0.00000  Uiso   1.00
H308   H     0.43253   0.80864   0.56030   0.00000  Uiso   1.00
H309   H     0.90249   0.36878   0.79514   0.00000  Uiso   1.00
H310   H     0.50051   0.91027   0.66068   0.00000  Uiso   1.00
H311   H     0.41447   0.76576   0.42824   0.00000  Uiso   1.00
H312   H     0.85114   0.39258   0.92342   0.00000  Uiso   1.00
H313   H     0.05784   0.48007   0.63988   0.00000  Uiso   1.00
O314   O     0.38882   0.80314   0.31935   0.00000  Uiso   1.00
O315   O     0.80574   0.46952   0.96902   0.00000  Uiso   1.00
O316   O     0.07692   0.58431   0.59702   0.00000  Uiso   1.00
N317   N     0.88958   0.38521   0.38911   0.00000  Uiso   1.00
N318   N     0.83036   0.50378   0.85208   0.00000  Uiso   1.00
N319   N     0.02361   0.58558   0.58701   0.00000  Uiso   1.00
N320   N     0.40822   0.80682   0.42721   0.00000  Uiso   1.00
N321   N     0.84900   0.42538   0.89017   0.00000  Uiso   1.00
N322   N     0.04224   0.50718   0.62511   0.00000  Uiso   1.00
C323   C     0.92784   0.93918   0.69477   0.00000  Uiso   1.00
C324   C     0.91713   0.96656   0.62980   0.00000  Uiso   1.00
C325   C     0.88623   0.96592   0.61818   0.00000  Uiso   1.00
C326   C     0.88132   0.99339   0.55541   0.00000  Uiso   1.00
C327   C     0.86088   0.03175   0.46200   0.00000  Uiso   1.00
C328   C     0.95498   0.89878   0.66095   0.00000  Uiso   1.00
C329   C     0.95590   0.84115   0.67554   0.00000  Uiso   1.00
C330   C     0.98285   0.81157   0.63899   0.00000  Uiso   1.00
C331   C     0.02117   0.74470   0.59399   0.00000  Uiso   1.00
C332   C     0.94310   0.98642   0.73132   0.00000  Uiso   1.00
C333   C     0.93403   0.00248   0.80509   0.00000  Uiso   1.00
C334   C     0.95099   0.04667   0.82780   0.00000  Uiso   1.00
C335   C     0.47086   0.61588   0.89207   0.00000  Uiso   1.00
C336   C     0.97408   0.98910   0.60394   0.00000  Uiso   1.00
C337   C     0.94225   0.99367   0.58046   0.00000  Uiso   1.00
C338   C     0.93738   0.02115   0.51769   0.00000  Uiso   1.00
C339   C     0.90648   0.02056   0.50598   0.00000  Uiso   1.00
C340   C     0.98009   0.92589   0.61161   0.00000  Uiso   1.00
C341   C     0.00705   0.89638   0.57504   0.00000  Uiso   1.00
C342   C     0.00801   0.83873   0.58957   0.00000  Uiso   1.00
C343   C     0.96821   0.01353   0.68199   0.00000  Uiso   1.00
C344   C     0.48519   0.55770   0.70459   0.00000  Uiso   1.00
C345   C     0.47615   0.57383   0.77837   0.00000  Uiso   1.00
H346   H     0.90829   0.91807   0.73318   0.00000  Uiso   1.00
H347   H     0.86680   0.94493   0.65638   0.00000  Uiso   1.00
H348   H     0.93646   0.82018   0.71373   0.00000  Uiso   1.00
H349   H     0.91460   0.98149   0.84325   0.00000  Uiso   1.00
H350   H     0.83188   0.98665   0.54945   0.00000  Uiso   1.00
H351   H     0.97876   0.72362   0.67040   0.00000  Uiso   1.00
H352   H     0.93267   0.06375   0.94353   0.00000  Uiso   1.00
H353   H     0.49363   0.51021   0.56553   0.00000  Uiso   1.00
H354   H     0.95682   0.04213   0.47952   0.00000  Uiso   1.00
H355   H     0.02648   0.91738   0.53687   0.00000  Uiso   1.00
H356   H     0.50462   0.57868   0.66639   0.00000  Uiso   1.00
H357   H     0.90495   0.06553   0.40590   0.00000  Uiso   1.00
H358   H     0.05183   0.80250   0.52685   0.00000  Uiso   1.00
H359   H     0.50573   0.64263   0.79998   0.00000  Uiso   1.00
O360   O     0.84266   0.04541   0.42410   0.00000  Uiso   1.00
O361   O     0.03537   0.70032   0.58280   0.00000  Uiso   1.00
O362   O     0.47489   0.64657   0.94114   0.00000  Uiso   1.00
N363   N     0.85413   0.00084   0.52747   0.00000  Uiso   1.00
N364   N     0.99145   0.75492   0.64055   0.00000  Uiso   1.00
N365   N     0.44836   0.57291   0.89591   0.00000  Uiso   1.00
N366   N     0.89344   0.04329   0.45023   0.00000  Uiso   1.00
N367   N     0.03077   0.79737   0.56330   0.00000  Uiso   1.00
N368   N     0.48767   0.61536   0.81867   0.00000  Uiso   1.00
C369   C     0.67481   0.71004   0.07229   0.00000  Uiso   1.00
C370   C     0.64158   0.72320   0.11929   0.00000  Uiso   1.00
C371   C     0.61304   0.71958   0.09594   0.00000  Uiso   1.00
C372   C     0.58517   0.73342   0.14729   0.00000  Uiso   1.00
C373   C     0.53346   0.75132   0.20929   0.00000  Uiso   1.00
C374   C     0.69479   0.76334   0.07408   0.00000  Uiso   1.00
C375   C     0.71098   0.79347   0.01272   0.00000  Uiso   1.00
C376   C     0.72791   0.84109   0.02601   0.00000  Uiso   1.00
C377   C     0.75883   0.92128   0.01782   0.00000  Uiso   1.00
C378   C     0.68894   0.66483   0.11444   0.00000  Uiso   1.00
C379   C     0.70024   0.61214   0.08702   0.00000  Uiso   1.00
C380   C     0.71225   0.57684   0.13429   0.00000  Uiso   1.00
C381   C     0.73410   0.50409   0.18876   0.00000  Uiso   1.00
C382   C     0.67608   0.74104   0.20499   0.00000  Uiso   1.00
C383   C     0.64227   0.74003   0.19136   0.00000  Uiso   1.00
C384   C     0.61444   0.75388   0.24276   0.00000  Uiso   1.00
C385   C     0.58586   0.75029   0.21949   0.00000  Uiso   1.00
C386   C     0.69548   0.78017   0.14615   0.00000  Uiso   1.00
C387   C     0.71238   0.82776   0.15953   0.00000  Uiso   1.00
C388   C     0.72860   0.85796   0.09821   0.00000  Uiso   1.00
C389   C     0.68963   0.68167   0.18652   0.00000  Uiso   1.00
C390   C     0.70163   0.64644   0.23383   0.00000  Uiso   1.00
C391   C     0.71294   0.59371   0.20649   0.00000  Uiso   1.00
H392   H     0.67428   0.69694   0.01618   0.00000  Uiso   1.00
H393   H     0.61251   0.70656   0.04016   0.00000  Uiso   1.00
H394   H     0.71045   0.78043   0.95695   0.00000  Uiso   1.00
H395   H     0.69970   0.59913   0.03124   0.00000  Uiso   1.00
H396   H     0.54434   0.72467   0.09852   0.00000  Uiso   1.00
H397   H     0.75085   0.88042   0.92307   0.00000  Uiso   1.00
H398   H     0.72819   0.49812   0.07973   0.00000  Uiso   1.00
H399   H     0.67662   0.75415   0.26110   0.00000  Uiso   1.00
H400   H     0.61498   0.76691   0.29853   0.00000  Uiso   1.00
H401   H     0.71291   0.84078   0.21532   0.00000  Uiso   1.00
H402   H     0.70216   0.65948   0.28961   0.00000  Uiso   1.00
H403   H     0.54634   0.77366   0.30823   0.00000  Uiso   1.00
H404   H     0.75285   0.92940   0.13277   0.00000  Uiso   1.00
H405   H     0.73019   0.54710   0.28943   0.00000  Uiso   1.00
O406   O     0.50475   0.75655   0.22357   0.00000  Uiso   1.00
O407   O     0.77569   0.96087   0.99338   0.00000  Uiso   1.00
O408   O     0.74595   0.45931   0.19891   0.00000  Uiso   1.00
N409   N     0.55327   0.73444   0.14275   0.00000  Uiso   1.00
N410   N     0.74634   0.88006   0.97871   0.00000  Uiso   1.00
N411   N     0.72516   0.52265   0.12516   0.00000  Uiso   1.00
N412   N     0.55435   0.76079   0.25559   0.00000  Uiso   1.00
N413   N     0.74741   0.90641   0.09155   0.00000  Uiso   1.00
N414   N     0.72623   0.54900   0.23800   0.00000  Uiso   1.00
C415   C     0.87066   0.00759   0.16608   0.00000  Uiso   1.00
C416   C     0.87399   0.97405   0.09442   0.00000  Uiso   1.00
C417   C     0.84930   0.96116   0.05983   0.00000  Uiso   1.00
C418   C     0.85725   0.93006   0.99469   0.00000  Uiso   1.00
C419   C     0.85762   0.88067   0.88788   0.00000  Uiso   1.00
C420   C     0.89399   0.05712   0.14789   0.00000  Uiso   1.00
C421   C     0.38612   0.61408   0.15827   0.00000  Uiso   1.00
C422   C     0.41091   0.65291   0.13815   0.00000  Uiso   1.00
C423   C     0.44234   0.73250   0.11441   0.00000  Uiso   1.00
C424   C     0.88378   0.96945   0.21879   0.00000  Uiso   1.00
C425   C     0.86733   0.95272   0.28878   0.00000  Uiso   1.00
C426   C     0.88353   0.91775   0.32836   0.00000  Uiso   1.00
C427   C     0.89910   0.86122   0.41470   0.00000  Uiso   1.00
C428   C     0.92869   0.97527   0.11192   0.00000  Uiso   1.00
C429   C     0.90551   0.95649   0.06501   0.00000  Uiso   1.00
C430   C     0.91350   0.92540   0.99990   0.00000  Uiso   1.00
C431   C     0.88882   0.91247   0.96522   0.00000  Uiso   1.00
C432   C     0.92551   0.03957   0.11848   0.00000  Uiso   1.00
C433   C     0.45032   0.57833   0.09835   0.00000  Uiso   1.00
C434   C     0.44249   0.63533   0.10868   0.00000  Uiso   1.00
C435   C     0.91530   0.95190   0.18937   0.00000  Uiso   1.00
C436   C     0.93153   0.91696   0.22886   0.00000  Uiso   1.00
C437   C     0.91510   0.90016   0.29889   0.00000  Uiso   1.00
H438   H     0.84612   0.02126   0.18898   0.00000  Uiso   1.00
H439   H     0.82491   0.97476   0.08261   0.00000  Uiso   1.00
H440   H     0.86172   0.12765   0.18104   0.00000  Uiso   1.00
H441   H     0.84293   0.96631   0.31153   0.00000  Uiso   1.00
H442   H     0.81528   0.91548   0.95168   0.00000  Uiso   1.00
H443   H     0.39291   0.73787   0.15926   0.00000  Uiso   1.00
H444   H     0.85330   0.89764   0.43443   0.00000  Uiso   1.00
H445   H     0.95323   0.96160   0.08901   0.00000  Uiso   1.00
H446   H     0.93789   0.91182   0.97715   0.00000  Uiso   1.00
H447   H     0.47471   0.56473   0.07559   0.00000  Uiso   1.00
H448   H     0.95592   0.90338   0.20607   0.00000  Uiso   1.00
H449   H     0.90699   0.86440   0.86609   0.00000  Uiso   1.00
H450   H     0.48462   0.68680   0.07367   0.00000  Uiso   1.00
H451   H     0.94500   0.84657   0.34884   0.00000  Uiso   1.00
O452   O     0.84911   0.85829   0.83709   0.00000  Uiso   1.00
O453   O     0.45096   0.78125   0.10944   0.00000  Uiso   1.00
O454   O     0.89898   0.83488   0.47045   0.00000  Uiso   1.00
N455   N     0.83897   0.91028   0.94690   0.00000  Uiso   1.00
N456   N     0.41155   0.71170   0.14096   0.00000  Uiso   1.00
N457   N     0.87451   0.89363   0.39823   0.00000  Uiso   1.00
N458   N     0.88832   0.88279   0.90084   0.00000  Uiso   1.00
N459   N     0.46090   0.68421   0.09490   0.00000  Uiso   1.00
N460   N     0.92386   0.86614   0.35217   0.00000  Uiso   1.00
C461   C     0.21784   0.73618   0.52593   0.00000  Uiso   1.00
C462   C     0.18438   0.72906   0.51149   0.00000  Uiso   1.00
C463   C     0.17545   0.74192   0.44587   0.00000  Uiso   1.00
C464   C     0.14369   0.73238   0.44373   0.00000  Uiso   1.00
C465   C     0.09508   0.72459   0.41197   0.00000  Uiso   1.00
C466   C     0.22742   0.67802   0.54972   0.00000  Uiso   1.00
C467   C     0.75469   0.14797   0.51626   0.00000  Uiso   1.00
C468   C     0.75916   0.09548   0.54632   0.00000  Uiso   1.00
C469   C     0.77740   0.00846   0.57396   0.00000  Uiso   1.00
C470   C     0.21393   0.77417   0.59393   0.00000  Uiso   1.00
C471   C     0.72986   0.32496   0.59765   0.00000  Uiso   1.00
C472   C     0.72297   0.35341   0.66493   0.00000  Uiso   1.00
C473   C     0.72025   0.41569   0.76120   0.00000  Uiso   1.00
C474   C     0.17729   0.69637   0.63882   0.00000  Uiso   1.00
C475   C     0.16236   0.70743   0.57281   0.00000  Uiso   1.00
C476   C     0.13059   0.69788   0.57077   0.00000  Uiso   1.00
C477   C     0.12162   0.71072   0.50516   0.00000  Uiso   1.00
C478   C     0.20540   0.65640   0.61104   0.00000  Uiso   1.00
C479   C     0.70983   0.10393   0.64116   0.00000  Uiso   1.00
C480   C     0.73710   0.07381   0.60775   0.00000  Uiso   1.00
C481   C     0.19190   0.75255   0.65525   0.00000  Uiso   1.00
C482   C     0.18499   0.78092   0.72254   0.00000  Uiso   1.00
C483   C     0.70090   0.33175   0.72636   0.00000  Uiso   1.00
H484   H     0.23499   0.75301   0.47819   0.00000  Uiso   1.00
H485   H     0.19251   0.75865   0.39843   0.00000  Uiso   1.00
H486   H     0.77173   0.16472   0.46882   0.00000  Uiso   1.00
H487   H     0.74690   0.34168   0.55019   0.00000  Uiso   1.00
H488   H     0.13570   0.75534   0.33703   0.00000  Uiso   1.00
H489   H     0.80276   0.05730   0.48546   0.00000  Uiso   1.00
H490   H     0.75039   0.43046   0.65704   0.00000  Uiso   1.00
H491   H     0.16014   0.67954   0.68656   0.00000  Uiso   1.00
H492   H     0.11355   0.68114   0.61823   0.00000  Uiso   1.00
H493   H     0.69278   0.08721   0.68861   0.00000  Uiso   1.00
H494   H     0.16795   0.76418   0.76998   0.00000  Uiso   1.00
H495   H     0.07162   0.69243   0.51542   0.00000  Uiso   1.00
H496   H     0.73868   0.99439   0.66386   0.00000  Uiso   1.00
H497   H     0.68631   0.36756   0.83544   0.00000  Uiso   1.00
O498   O     0.07436   0.72625   0.37751   0.00000  Uiso   1.00
O499   O     0.79354   0.96644   0.57225   0.00000  Uiso   1.00
O500   O     0.72483   0.45602   0.79736   0.00000  Uiso   1.00
N501   N     0.12701   0.74033   0.38840   0.00000  Uiso   1.00
N502   N     0.78320   0.05517   0.52716   0.00000  Uiso   1.00
N503   N     0.73424   0.40403   0.68758   0.00000  Uiso   1.00
N504   N     0.09253   0.70648   0.48439   0.00000  Uiso   1.00
N505   N     0.74872   0.02132   0.62316   0.00000  Uiso   1.00
N506   N     0.69976   0.37018   0.78358   0.00000  Uiso   1.00
C507   C     0.85907   0.45664   0.22308   0.00000  Uiso   1.00
C508   C     0.85130   0.50698   0.17852   0.00000  Uiso   1.00
C509   C     0.83360   0.50482   0.12437   0.00000  Uiso   1.00
C510   C     0.82914   0.55554   0.09000   0.00000  Uiso   1.00
C511   C     0.81512   0.62595   0.01793   0.00000  Uiso   1.00
C512   C     0.84656   0.47220   0.30427   0.00000  Uiso   1.00
C513   C     0.82490   0.44079   0.35584   0.00000  Uiso   1.00
C514   C     0.81646   0.46223   0.42733   0.00000  Uiso   1.00
C515   C     0.79511   0.47863   0.55050   0.00000  Uiso   1.00
C516   C     0.89548   0.45510   0.21061   0.00000  Uiso   1.00
C517   C     0.91494   0.40931   0.18345   0.00000  Uiso   1.00
C518   C     0.94768   0.41635   0.17611   0.00000  Uiso   1.00
C519   C     0.50228   0.90620   0.15386   0.00000  Uiso   1.00
C520   C     0.88262   0.55056   0.25835   0.00000  Uiso   1.00
C521   C     0.86409   0.55799   0.19769   0.00000  Uiso   1.00
C522   C     0.85966   0.60873   0.16339   0.00000  Uiso   1.00
C523   C     0.84197   0.60665   0.10919   0.00000  Uiso   1.00
C524   C     0.85936   0.52321   0.32343   0.00000  Uiso   1.00
C525   C     0.85096   0.54471   0.39486   0.00000  Uiso   1.00
C526   C     0.82928   0.51334   0.44652   0.00000  Uiso   1.00
C527   C     0.90827   0.50612   0.22977   0.00000  Uiso   1.00
C528   C     0.94100   0.51323   0.22247   0.00000  Uiso   1.00
C529   C     0.96050   0.46746   0.19530   0.00000  Uiso   1.00
H530   H     0.84910   0.41692   0.20817   0.00000  Uiso   1.00
H531   H     0.82370   0.46533   0.10956   0.00000  Uiso   1.00
H532   H     0.81500   0.40131   0.34100   0.00000  Uiso   1.00
H533   H     0.90502   0.36984   0.16863   0.00000  Uiso   1.00
H534   H     0.80117   0.54150   0.00870   0.00000  Uiso   1.00
H535   H     0.78283   0.40650   0.49671   0.00000  Uiso   1.00
H536   H     0.47267   0.84014   0.13325   0.00000  Uiso   1.00
H537   H     0.89259   0.59028   0.27327   0.00000  Uiso   1.00
H538   H     0.86957   0.64821   0.17823   0.00000  Uiso   1.00
H539   H     0.86087   0.58418   0.40967   0.00000  Uiso   1.00
H540   H     0.95089   0.55271   0.23730   0.00000  Uiso   1.00
H541   H     0.83840   0.68993   0.06444   0.00000  Uiso   1.00
H542   H     0.82006   0.55493   0.55245   0.00000  Uiso   1.00
H543   H     0.00990   0.48857   0.18898   0.00000  Uiso   1.00
O544   O     0.80384   0.65070   0.97289   0.00000  Uiso   1.00
O545   O     0.77980   0.47358   0.61314   0.00000  Uiso   1.00
O546   O     0.52886   0.88651   0.13628   0.00000  Uiso   1.00
N547   N     0.81309   0.56848   0.03485   0.00000  Uiso   1.00
N548   N     0.79595   0.44227   0.49111   0.00000  Uiso   1.00
N549   N     0.47343   0.88022   0.15132   0.00000  Uiso   1.00
N550   N     0.83313   0.64835   0.06484   0.00000  Uiso   1.00
N551   N     0.81598   0.52214   0.52110   0.00000  Uiso   1.00
N552   N     0.99346   0.46009   0.18131   0.00000  Uiso   1.00
C553   C     0.58711   0.99842   0.39399   0.00000  Uiso   1.00
C554   C     0.58898   0.94806   0.44446   0.00000  Uiso   1.00
C555   C     0.60093   0.94939   0.50812   0.00000  Uiso   1.00
C556   C     0.60056   0.89881   0.54662   0.00000  Uiso   1.00
C557   C     0.60528   0.82823   0.62867   0.00000  Uiso   1.00
C558   C     0.60530   0.98073   0.31687   0.00000  Uiso   1.00
C559   C     0.63098   0.00954   0.27324   0.00000  Uiso   1.00
C560   C     0.64434   0.98646   0.20433   0.00000  Uiso   1.00
C561   C     0.67439   0.96663   0.08827   0.00000  Uiso   1.00
C562   C     0.55205   0.00328   0.38994   0.00000  Uiso   1.00
C563   C     0.53294   0.05104   0.40772   0.00000  Uiso   1.00
C564   C     0.50147   0.04695   0.40031   0.00000  Uiso   1.00
C565   C     0.44883   0.06211   0.39769   0.00000  Uiso   1.00
C566   C     0.56520   0.90622   0.34919   0.00000  Uiso   1.00
C567   C     0.57708   0.89799   0.42013   0.00000  Uiso   1.00
C568   C     0.57668   0.84739   0.45855   0.00000  Uiso   1.00
C569   C     0.58863   0.84864   0.52225   0.00000  Uiso   1.00
C570   C     0.59340   0.93066   0.29253   0.00000  Uiso   1.00
C571   C     0.60673   0.90754   0.22367   0.00000  Uiso   1.00
C572   C     0.63242   0.93630   0.17995   0.00000  Uiso   1.00
C573   C     0.54014   0.95320   0.36560   0.00000  Uiso   1.00
C574   C     0.50869   0.94903   0.35815   0.00000  Uiso   1.00
C575   C     0.48955   0.99678   0.37593   0.00000  Uiso   1.00
H576   H     0.59638   0.03741   0.41293   0.00000  Uiso   1.00
H577   H     0.61014   0.98815   0.52693   0.00000  Uiso   1.00
H578   H     0.64018   0.04829   0.29209   0.00000  Uiso   1.00
H579   H     0.54216   0.08978   0.42655   0.00000  Uiso   1.00
H580   H     0.62016   0.91146   0.64256   0.00000  Uiso   1.00
H581   H     0.68349   0.03828   0.14738   0.00000  Uiso   1.00
H582   H     0.47680   0.12577   0.43092   0.00000  Uiso   1.00
H583   H     0.55593   0.86723   0.33024   0.00000  Uiso   1.00
H584   H     0.06747   0.30864   0.43970   0.00000  Uiso   1.00
H585   H     0.59751   0.86878   0.20486   0.00000  Uiso   1.00
H586   H     0.99949   0.41027   0.33932   0.00000  Uiso   1.00
H587   H     0.08553   0.26576   0.57176   0.00000  Uiso   1.00
H588   H     0.64886   0.89258   0.07658   0.00000  Uiso   1.00
H589   H     0.44216   0.98007   0.36012   0.00000  Uiso   1.00
O590   O     0.11118   0.30314   0.68065   0.00000  Uiso   1.00
O591   O     0.69426   0.96952   0.03098   0.00000  Uiso   1.00
O592   O     0.42308   0.08431   0.40298   0.00000  Uiso   1.00
N593   N     0.61042   0.88521   0.61089   0.00000  Uiso   1.00
N594   N     0.66964   0.00378   0.14792   0.00000  Uiso   1.00
N595   N     0.47639   0.08558   0.41299   0.00000  Uiso   1.00
N596   N     0.09178   0.30682   0.57279   0.00000  Uiso   1.00
N597   N     0.65100   0.92538   0.10983   0.00000  Uiso   1.00
N598   N     0.45776   0.00718   0.37489   0.00000  Uiso   1.00
C599   C     0.57216   0.43918   0.30523   0.00000  Uiso   1.00
C600   C     0.58287   0.46656   0.37020   0.00000  Uiso   1.00
C601   C     0.61377   0.46592   0.38182   0.00000  Uiso   1.00
C602   C     0.61868   0.49339   0.44459   0.00000  Uiso   1.00
C603   C     0.63912   0.53175   0.53800   0.00000  Uiso   1.00
C604   C     0.54502   0.39878   0.33905   0.00000  Uiso   1.00
C605   C     0.54410   0.34115   0.32446   0.00000  Uiso   1.00
C606   C     0.51715   0.31157   0.36101   0.00000  Uiso   1.00
C607   C     0.47883   0.24470   0.40601   0.00000  Uiso   1.00
C608   C     0.55690   0.48642   0.26868   0.00000  Uiso   1.00
C609   C     0.56597   0.50248   0.19491   0.00000  Uiso   1.00
C610   C     0.54901   0.54667   0.17220   0.00000  Uiso   1.00
C611   C     0.02914   0.11588   0.10793   0.00000  Uiso   1.00
C612   C     0.52592   0.48910   0.39606   0.00000  Uiso   1.00
C613   C     0.55775   0.49367   0.41954   0.00000  Uiso   1.00
C614   C     0.56262   0.52115   0.48231   0.00000  Uiso   1.00
C615   C     0.59352   0.52056   0.49402   0.00000  Uiso   1.00
C616   C     0.51991   0.42589   0.38839   0.00000  Uiso   1.00
C617   C     0.49295   0.39638   0.42496   0.00000  Uiso   1.00
C618   C     0.49199   0.33873   0.41043   0.00000  Uiso   1.00
C619   C     0.53179   0.51353   0.31801   0.00000  Uiso   1.00
C620   C     0.01481   0.05770   0.29541   0.00000  Uiso   1.00
C621   C     0.02385   0.07383   0.22163   0.00000  Uiso   1.00
H622   H     0.59171   0.41807   0.26682   0.00000  Uiso   1.00
H623   H     0.63320   0.44493   0.34362   0.00000  Uiso   1.00
H624   H     0.56354   0.32018   0.28627   0.00000  Uiso   1.00
H625   H     0.58540   0.48149   0.15675   0.00000  Uiso   1.00
H626   H     0.66812   0.48665   0.45055   0.00000  Uiso   1.00
H627   H     0.52124   0.22362   0.32960   0.00000  Uiso   1.00
H628   H     0.56733   0.56375   0.05647   0.00000  Uiso   1.00
H629   H     0.00637   0.01021   0.43447   0.00000  Uiso   1.00
H630   H     0.54318   0.54213   0.52048   0.00000  Uiso   1.00
H631   H     0.47352   0.41738   0.46313   0.00000  Uiso   1.00
H632   H     0.99538   0.07868   0.33361   0.00000  Uiso   1.00
H633   H     0.59505   0.56553   0.59410   0.00000  Uiso   1.00
H634   H     0.44817   0.30250   0.47315   0.00000  Uiso   1.00
H635   H     0.99427   0.14263   0.20002   0.00000  Uiso   1.00
O636   O     0.65734   0.54541   0.57590   0.00000  Uiso   1.00
O637   O     0.46463   0.20032   0.41720   0.00000  Uiso   1.00
O638   O     0.02511   0.14657   0.05886   0.00000  Uiso   1.00
N639   N     0.64587   0.50084   0.47253   0.00000  Uiso   1.00
N640   N     0.50855   0.25492   0.35945   0.00000  Uiso   1.00
N641   N     0.05164   0.07291   0.10409   0.00000  Uiso   1.00
N642   N     0.60656   0.54329   0.54977   0.00000  Uiso   1.00
N643   N     0.46923   0.29737   0.43670   0.00000  Uiso   1.00
N644   N     0.01233   0.11536   0.18133   0.00000  Uiso   1.00
C645   C     0.82519   0.21004   0.92771   0.00000  Uiso   1.00
C646   C     0.85842   0.22320   0.88071   0.00000  Uiso   1.00
C647   C     0.88696   0.21958   0.90406   0.00000  Uiso   1.00
C648   C     0.91483   0.23342   0.85271   0.00000  Uiso   1.00
C649   C     0.96654   0.25132   0.79071   0.00000  Uiso   1.00
C650   C     0.80521   0.26334   0.92592   0.00000  Uiso   1.00
C651   C     0.78902   0.29347   0.98728   0.00000  Uiso   1.00
C652   C     0.77209   0.34109   0.97399   0.00000  Uiso   1.00
C653   C     0.74117   0.42128   0.98218   0.00000  Uiso   1.00
C654   C     0.81106   0.16483   0.88556   0.00000  Uiso   1.00
C655   C     0.79976   0.11214   0.91298   0.00000  Uiso   1.00
C656   C     0.78775   0.07684   0.86571   0.00000  Uiso   1.00
C657   C     0.76590   0.00409   0.81124   0.00000  Uiso   1.00
C658   C     0.82392   0.24104   0.79501   0.00000  Uiso   1.00
C659   C     0.85773   0.24003   0.80864   0.00000  Uiso   1.00
C660   C     0.88556   0.25388   0.75724   0.00000  Uiso   1.00
C661   C     0.91414   0.25029   0.78051   0.00000  Uiso   1.00
C662   C     0.80452   0.28017   0.85385   0.00000  Uiso   1.00
C663   C     0.78762   0.32776   0.84047   0.00000  Uiso   1.00
C664   C     0.77140   0.35796   0.90179   0.00000  Uiso   1.00
C665   C     0.81037   0.18167   0.81348   0.00000  Uiso   1.00
C666   C     0.79837   0.14644   0.76617   0.00000  Uiso   1.00
C667   C     0.78706   0.09371   0.79351   0.00000  Uiso   1.00
H668   H     0.82572   0.19694   0.98382   0.00000  Uiso   1.00
H669   H     0.88749   0.20656   0.95984   0.00000  Uiso   1.00
H670   H     0.78955   0.28043   0.04305   0.00000  Uiso   1.00
H671   H     0.80030   0.09913   0.96876   0.00000  Uiso   1.00
H672   H     0.95566   0.22467   0.90148   0.00000  Uiso   1.00
H673   H     0.74915   0.38042   0.07693   0.00000  Uiso   1.00
H674   H     0.77181   0.99812   0.92027   0.00000  Uiso   1.00
H675   H     0.82338   0.25415   0.73890   0.00000  Uiso   1.00
H676   H     0.88502   0.26691   0.70147   0.00000  Uiso   1.00
H677   H     0.78709   0.34078   0.78468   0.00000  Uiso   1.00
H678   H     0.79784   0.15948   0.71039   0.00000  Uiso   1.00
H679   H     0.95366   0.27366   0.69177   0.00000  Uiso   1.00
H680   H     0.74715   0.42940   0.86723   0.00000  Uiso   1.00
H681   H     0.76981   0.04710   0.71057   0.00000  Uiso   1.00
O682   O     0.99525   0.25655   0.77643   0.00000  Uiso   1.00
O683   O     0.72431   0.46087   0.00662   0.00000  Uiso   1.00
O684   O     0.75405   0.95931   0.80109   0.00000  Uiso   1.00
N685   N     0.94673   0.23444   0.85725   0.00000  Uiso   1.00
N686   N     0.75366   0.38006   0.02129   0.00000  Uiso   1.00
N687   N     0.77484   0.02265   0.87484   0.00000  Uiso   1.00
N688   N     0.94565   0.26079   0.74441   0.00000  Uiso   1.00
N689   N     0.75259   0.40641   0.90845   0.00000  Uiso   1.00
N690   N     0.77377   0.04900   0.76200   0.00000  Uiso   1.00
C691   C     0.62934   0.50759   0.83392   0.00000  Uiso   1.00
C692   C     0.62601   0.47405   0.90558   0.00000  Uiso   1.00
C693   C     0.65070   0.46116   0.94017   0.00000  Uiso   1.00
C694   C     0.64275   0.43006   0.00531   0.00000  Uiso   1.00
C695   C     0.64238   0.38067   0.11212   0.00000  Uiso   1.00
C696   C     0.60601   0.55712   0.85211   0.00000  Uiso   1.00
C697   C     0.11388   0.11408   0.84173   0.00000  Uiso   1.00
C698   C     0.08909   0.15291   0.86185   0.00000  Uiso   1.00
C699   C     0.05766   0.23250   0.88559   0.00000  Uiso   1.00
C700   C     0.61622   0.46945   0.78121   0.00000  Uiso   1.00
C701   C     0.63267   0.45272   0.71122   0.00000  Uiso   1.00
C702   C     0.61647   0.41775   0.67164   0.00000  Uiso   1.00
C703   C     0.60090   0.36122   0.58530   0.00000  Uiso   1.00
C704   C     0.57131   0.47527   0.88808   0.00000  Uiso   1.00
C705   C     0.59449   0.45649   0.93499   0.00000  Uiso   1.00
C706   C     0.58650   0.42540   0.00010   0.00000  Uiso   1.00
C707   C     0.61118   0.41247   0.03478   0.00000  Uiso   1.00
C708   C     0.57449   0.53957   0.88152   0.00000  Uiso   1.00
C709   C     0.04968   0.07833   0.90165   0.00000  Uiso   1.00
C710   C     0.05751   0.13533   0.89132   0.00000  Uiso   1.00
C711   C     0.58470   0.45190   0.81063   0.00000  Uiso   1.00
C712   C     0.56847   0.41696   0.77114   0.00000  Uiso   1.00
C713   C     0.58490   0.40016   0.70111   0.00000  Uiso   1.00
H714   H     0.65388   0.52126   0.81102   0.00000  Uiso   1.00
H715   H     0.67509   0.47476   0.91739   0.00000  Uiso   1.00
H716   H     0.63828   0.62765   0.81896   0.00000  Uiso   1.00
H717   H     0.65707   0.46631   0.68847   0.00000  Uiso   1.00
H718   H     0.68472   0.41548   0.04832   0.00000  Uiso   1.00
H719   H     0.10709   0.23787   0.84074   0.00000  Uiso   1.00
H720   H     0.64670   0.39764   0.56557   0.00000  Uiso   1.00
H721   H     0.54677   0.46160   0.91099   0.00000  Uiso   1.00
H722   H     0.56211   0.41182   0.02285   0.00000  Uiso   1.00
H723   H     0.02529   0.06473   0.92441   0.00000  Uiso   1.00
H724   H     0.54408   0.40338   0.79393   0.00000  Uiso   1.00
H725   H     0.59301   0.36440   0.13391   0.00000  Uiso   1.00
H726   H     0.01538   0.18680   0.92633   0.00000  Uiso   1.00
H727   H     0.55500   0.34657   0.65116   0.00000  Uiso   1.00
O728   O     0.65089   0.35829   0.16291   0.00000  Uiso   1.00
O729   O     0.04904   0.28125   0.89056   0.00000  Uiso   1.00
O730   O     0.60102   0.33488   0.52955   0.00000  Uiso   1.00
N731   N     0.66103   0.41028   0.05310   0.00000  Uiso   1.00
N732   N     0.08845   0.21170   0.85904   0.00000  Uiso   1.00
N733   N     0.62549   0.39363   0.60177   0.00000  Uiso   1.00
N734   N     0.61168   0.38279   0.09916   0.00000  Uiso   1.00
N735   N     0.03910   0.18421   0.90510   0.00000  Uiso   1.00
N736   N     0.57614   0.36614   0.64783   0.00000  Uiso   1.00
C737   C     0.28216   0.23618   0.47407   0.00000  Uiso   1.00
C738   C     0.31562   0.22906   0.48851   0.00000  Uiso   1.00
C739   C     0.32455   0.24192   0.55413   0.00000  Uiso   1.00
C740   C     0.35631   0.23238   0.55627   0.00000  Uiso   1.00
C741   C     0.40492   0.22459   0.58803   0.00000  Uiso   1.00
C742   C     0.27258   0.17802   0.45028   0.00000  Uiso   1.00
C743   C     0.74531   0.64797   0.48374   0.00000  Uiso   1.00
C744   C     0.74084   0.59548   0.45368   0.00000  Uiso   1.00
C745   C     0.72260   0.50846   0.42604   0.00000  Uiso   1.00
C746   C     0.28607   0.27417   0.40607   0.00000  Uiso   1.00
C747   C     0.77014   0.82496   0.40235   0.00000  Uiso   1.00
C748   C     0.77703   0.85341   0.33507   0.00000  Uiso   1.00
C749   C     0.77975   0.91569   0.23880   0.00000  Uiso   1.00
C750   C     0.32271   0.19637   0.36118   0.00000  Uiso   1.00
C751   C     0.33764   0.20743   0.42719   0.00000  Uiso   1.00
C752   C     0.36941   0.19788   0.42923   0.00000  Uiso   1.00
C753   C     0.37838   0.21072   0.49484   0.00000  Uiso   1.00
C754   C     0.29460   0.15640   0.38896   0.00000  Uiso   1.00
C755   C     0.79017   0.60393   0.35884   0.00000  Uiso   1.00
C756   C     0.76290   0.57381   0.39225   0.00000  Uiso   1.00
C757   C     0.30810   0.25255   0.34475   0.00000  Uiso   1.00
C758   C     0.31501   0.28092   0.27746   0.00000  Uiso   1.00
C759   C     0.79910   0.83175   0.27364   0.00000  Uiso   1.00
H760   H     0.26501   0.25301   0.52181   0.00000  Uiso   1.00
H761   H     0.30749   0.25865   0.60157   0.00000  Uiso   1.00
H762   H     0.72827   0.66472   0.53118   0.00000  Uiso   1.00
H763   H     0.75310   0.84168   0.44981   0.00000  Uiso   1.00
H764   H     0.36430   0.25534   0.66297   0.00000  Uiso   1.00
H765   H     0.69724   0.55730   0.51454   0.00000  Uiso   1.00
H766   H     0.74961   0.93046   0.34296   0.00000  Uiso   1.00
H767   H     0.33986   0.17954   0.31344   0.00000  Uiso   1.00
H768   H     0.38645   0.18114   0.38177   0.00000  Uiso   1.00
H769   H     0.80722   0.58721   0.31139   0.00000  Uiso   1.00
H770   H     0.33205   0.26418   0.23002   0.00000  Uiso   1.00
H771   H     0.42838   0.19243   0.48458   0.00000  Uiso   1.00
H772   H     0.76132   0.49439   0.33614   0.00000  Uiso   1.00
H773   H     0.81369   0.86756   0.16456   0.00000  Uiso   1.00
O774   O     0.42564   0.22625   0.62249   0.00000  Uiso   1.00
O775   O     0.70646   0.46644   0.42775   0.00000  Uiso   1.00
O776   O     0.77517   0.95602   0.20264   0.00000  Uiso   1.00
N777   N     0.37299   0.24033   0.61160   0.00000  Uiso   1.00
N778   N     0.71680   0.55517   0.47284   0.00000  Uiso   1.00
N779   N     0.76576   0.90403   0.31242   0.00000  Uiso   1.00
N780   N     0.40747   0.20648   0.51561   0.00000  Uiso   1.00
N781   N     0.75128   0.52132   0.37684   0.00000  Uiso   1.00
N782   N     0.80024   0.87018   0.21642   0.00000  Uiso   1.00
C783   C     0.64093   0.95664   0.77692   0.00000  Uiso   1.00
C784   C     0.64870   0.00698   0.82148   0.00000  Uiso   1.00
C785   C     0.66640   0.00482   0.87563   0.00000  Uiso   1.00
C786   C     0.67086   0.05554   0.91000   0.00000  Uiso   1.00
C787   C     0.68488   0.12595   0.98207   0.00000  Uiso   1.00
C788   C     0.65344   0.97220   0.69573   0.00000  Uiso   1.00
C789   C     0.67510   0.94079   0.64416   0.00000  Uiso   1.00
C790   C     0.68354   0.96223   0.57267   0.00000  Uiso   1.00
C791   C     0.70489   0.97863   0.44950   0.00000  Uiso   1.00
C792   C     0.60452   0.95510   0.78939   0.00000  Uiso   1.00
C793   C     0.58506   0.90931   0.81655   0.00000  Uiso   1.00
C794   C     0.55232   0.91635   0.82389   0.00000  Uiso   1.00
C795   C     0.99772   0.40620   0.84614   0.00000  Uiso   1.00
C796   C     0.61738   0.05056   0.74165   0.00000  Uiso   1.00
C797   C     0.63591   0.05799   0.80231   0.00000  Uiso   1.00
C798   C     0.64034   0.10873   0.83661   0.00000  Uiso   1.00
C799   C     0.65803   0.10665   0.89081   0.00000  Uiso   1.00
C800   C     0.64064   0.02321   0.67657   0.00000  Uiso   1.00
C801   C     0.64904   0.04471   0.60514   0.00000  Uiso   1.00
C802   C     0.67072   0.01334   0.55348   0.00000  Uiso   1.00
C803   C     0.59173   0.00612   0.77023   0.00000  Uiso   1.00
C804   C     0.55900   0.01323   0.77753   0.00000  Uiso   1.00
C805   C     0.53950   0.96746   0.80470   0.00000  Uiso   1.00
H806   H     0.65090   0.91692   0.79183   0.00000  Uiso   1.00
H807   H     0.67630   0.96533   0.89044   0.00000  Uiso   1.00
H808   H     0.68500   0.90131   0.65900   0.00000  Uiso   1.00
H809   H     0.59498   0.86984   0.83137   0.00000  Uiso   1.00
H810   H     0.69883   0.04150   0.99130   0.00000  Uiso   1.00
H811   H     0.71717   0.90650   0.50329   0.00000  Uiso   1.00
H812   H     0.02733   0.34014   0.86675   0.00000  Uiso   1.00
H813   H     0.60741   0.09028   0.72673   0.00000  Uiso   1.00
H814   H     0.63043   0.14821   0.82177   0.00000  Uiso   1.00
H815   H     0.63913   0.08418   0.59033   0.00000  Uiso   1.00
H816   H     0.54911   0.05271   0.76270   0.00000  Uiso   1.00
H817   H     0.66160   0.18993   0.93556   0.00000  Uiso   1.00
H818   H     0.67994   0.05493   0.44755   0.00000  Uiso   1.00
H819   H     0.49010   0.98857   0.81102   0.00000  Uiso   1.00
O820   O     0.69616   0.15070   0.02711   0.00000  Uiso   1.00
O821   O     0.72020   0.97358   0.38686   0.00000  Uiso   1.00
O822   O     0.97114   0.38651   0.86372   0.00000  Uiso   1.00
N823   N     0.68691   0.06848   0.96515   0.00000  Uiso   1.00
N824   N     0.70405   0.94227   0.50889   0.00000  Uiso   1.00
N825   N     0.02657   0.38022   0.84868   0.00000  Uiso   1.00
N826   N     0.66687   0.14835   0.93516   0.00000  Uiso   1.00
N827   N     0.68402   0.02214   0.47890   0.00000  Uiso   1.00
N828   N     0.50654   0.96009   0.81869   0.00000  Uiso   1.00
C829   C     0.08711   0.49842   0.39399   0.00000  Uiso   1.00
C830   C     0.08898   0.44806   0.44446   0.00000  Uiso   1.00
C831   C     0.10093   0.44939   0.50812   0.00000  Uiso   1.00
C832   C     0.10056   0.39881   0.54662   0.00000  Uiso   1.00
C833   C     0.10528   0.32823   0.62867   0.00000  Uiso   1.00
C834   C     0.10530   0.48073   0.31687   0.00000  Uiso   1.00
C835   C     0.13098   0.50954   0.27324   0.00000  Uiso   1.00
C836   C     0.14434   0.48646   0.20433   0.00000  Uiso   1.00
C837   C     0.17439   0.46663   0.08827   0.00000  Uiso   1.00
C838   C     0.05205   0.50328   0.38994   0.00000  Uiso   1.00
C839   C     0.03294   0.55104   0.40772   0.00000  Uiso   1.00
C840   C     0.00147   0.54695   0.40031   0.00000  Uiso   1.00
C841   C     0.94883   0.56211   0.39769   0.00000  Uiso   1.00
C842   C     0.06520   0.40622   0.34919   0.00000  Uiso   1.00
C843   C     0.07708   0.39799   0.42013   0.00000  Uiso   1.00
C844   C     0.07668   0.34739   0.45855   0.00000  Uiso   1.00
C845   C     0.08863   0.34864   0.52225   0.00000  Uiso   1.00
C846   C     0.09340   0.43066   0.29253   0.00000  Uiso   1.00
C847   C     0.10673   0.40754   0.22367   0.00000  Uiso   1.00
C848   C     0.13242   0.43630   0.17995   0.00000  Uiso   1.00
C849   C     0.04014   0.45320   0.36560   0.00000  Uiso   1.00
C850   C     0.00869   0.44903   0.35815   0.00000  Uiso   1.00
C851   C     0.98955   0.49678   0.37593   0.00000  Uiso   1.00
H852   H     0.09638   0.53741   0.41293   0.00000  Uiso   1.00
H853   H     0.11014   0.48815   0.52693   0.00000  Uiso   1.00
H854   H     0.14018   0.54829   0.29209   0.00000  Uiso   1.00
H855   H     0.04216   0.58978   0.42655   0.00000  Uiso   1.00
H856   H     0.12016   0.41146   0.64256   0.00000  Uiso   1.00
H857   H     0.18349   0.53828   0.14738   0.00000  Uiso   1.00
H858   H     0.97680   0.62577   0.43092   0.00000  Uiso   1.00
H859   H     0.05593   0.36723   0.33024   0.00000  Uiso   1.00
H860   H     0.56747   0.80864   0.43970   0.00000  Uiso   1.00
H861   H     0.09751   0.36878   0.20486   0.00000  Uiso   1.00
H862   H     0.49949   0.91027   0.33932   0.00000  Uiso   1.00
H863   H     0.58553   0.76576   0.57176   0.00000  Uiso   1.00
H864   H     0.14886   0.39258   0.07658   0.00000  Uiso   1.00
H865   H     0.94216   0.48007   0.36012   0.00000  Uiso   1.00
O866   O     0.61118   0.80314   0.68065   0.00000  Uiso   1.00
O867   O     0.19426   0.46952   0.03098   0.00000  Uiso   1.00
O868   O     0.92308   0.58431   0.40298   0.00000  Uiso   1.00
N869   N     0.11042   0.38521   0.61089   0.00000  Uiso   1.00
N870   N     0.16964   0.50378   0.14792   0.00000  Uiso   1.00
N871   N     0.97639   0.58558   0.41299   0.00000  Uiso   1.00
N872   N     0.59178   0.80682   0.57279   0.00000  Uiso   1.00
N873   N     0.15100   0.42538   0.10983   0.00000  Uiso   1.00
N874   N     0.95776   0.50718   0.37489   0.00000  Uiso   1.00
C875   C     0.07216   0.93918   0.30523   0.00000  Uiso   1.00
C876   C     0.08287   0.96656   0.37020   0.00000  Uiso   1.00
C877   C     0.11377   0.96592   0.38182   0.00000  Uiso   1.00
C878   C     0.11868   0.99339   0.44459   0.00000  Uiso   1.00
C879   C     0.13912   0.03175   0.53800   0.00000  Uiso   1.00
C880   C     0.04502   0.89878   0.33905   0.00000  Uiso   1.00
C881   C     0.04410   0.84115   0.32446   0.00000  Uiso   1.00
C882   C     0.01715   0.81157   0.36101   0.00000  Uiso   1.00
C883   C     0.97883   0.74470   0.40601   0.00000  Uiso   1.00
C884   C     0.05690   0.98642   0.26868   0.00000  Uiso   1.00
C885   C     0.06597   0.00248   0.19491   0.00000  Uiso   1.00
C886   C     0.04901   0.04667   0.17220   0.00000  Uiso   1.00
C887   C     0.52914   0.61588   0.10793   0.00000  Uiso   1.00
C888   C     0.02592   0.98910   0.39606   0.00000  Uiso   1.00
C889   C     0.05775   0.99367   0.41954   0.00000  Uiso   1.00
C890   C     0.06262   0.02115   0.48231   0.00000  Uiso   1.00
C891   C     0.09352   0.02056   0.49402   0.00000  Uiso   1.00
C892   C     0.01991   0.92589   0.38839   0.00000  Uiso   1.00
C893   C     0.99295   0.89638   0.42496   0.00000  Uiso   1.00
C894   C     0.99199   0.83873   0.41043   0.00000  Uiso   1.00
C895   C     0.03179   0.01353   0.31801   0.00000  Uiso   1.00
C896   C     0.51481   0.55770   0.29541   0.00000  Uiso   1.00
C897   C     0.52385   0.57383   0.22163   0.00000  Uiso   1.00
H898   H     0.09171   0.91807   0.26682   0.00000  Uiso   1.00
H899   H     0.13320   0.94493   0.34362   0.00000  Uiso   1.00
H900   H     0.06354   0.82018   0.28627   0.00000  Uiso   1.00
H901   H     0.08540   0.98149   0.15675   0.00000  Uiso   1.00
H902   H     0.16812   0.98665   0.45055   0.00000  Uiso   1.00
H903   H     0.02124   0.72362   0.32960   0.00000  Uiso   1.00
H904   H     0.06733   0.06375   0.05647   0.00000  Uiso   1.00
H905   H     0.50637   0.51021   0.43447   0.00000  Uiso   1.00
H906   H     0.04318   0.04213   0.52048   0.00000  Uiso   1.00
H907   H     0.97352   0.91738   0.46313   0.00000  Uiso   1.00
H908   H     0.49538   0.57868   0.33361   0.00000  Uiso   1.00
H909   H     0.09505   0.06553   0.59410   0.00000  Uiso   1.00
H910   H     0.94817   0.80250   0.47315   0.00000  Uiso   1.00
H911   H     0.49427   0.64263   0.20002   0.00000  Uiso   1.00
O912   O     0.15734   0.04541   0.57590   0.00000  Uiso   1.00
O913   O     0.96463   0.70032   0.41720   0.00000  Uiso   1.00
O914   O     0.52511   0.64657   0.05886   0.00000  Uiso   1.00
N915   N     0.14587   0.00084   0.47253   0.00000  Uiso   1.00
N916   N     0.00855   0.75492   0.35945   0.00000  Uiso   1.00
N917   N     0.55164   0.57291   0.10409   0.00000  Uiso   1.00
N918   N     0.10656   0.04329   0.54977   0.00000  Uiso   1.00
N919   N     0.96923   0.79737   0.43670   0.00000  Uiso   1.00
N920   N     0.51233   0.61536   0.18133   0.00000  Uiso   1.00
C921   C     0.32519   0.71004   0.92771   0.00000  Uiso   1.00
C922   C     0.35842   0.72320   0.88071   0.00000  Uiso   1.00
C923   C     0.38696   0.71958   0.90406   0.00000  Uiso   1.00
C924   C     0.41483   0.73342   0.85271   0.00000  Uiso   1.00
C925   C     0.46654   0.75132   0.79071   0.00000  Uiso   1.00
C926   C     0.30521   0.76334   0.92592   0.00000  Uiso   1.00
C927   C     0.28902   0.79347   0.98728   0.00000  Uiso   1.00
C928   C     0.27209   0.84109   0.97399   0.00000  Uiso   1.00
C929   C     0.24117   0.92128   0.98218   0.00000  Uiso   1.00
C930   C     0.31106   0.66483   0.88556   0.00000  Uiso   1.00
C931   C     0.29976   0.61214   0.91298   0.00000  Uiso   1.00
C932   C     0.28775   0.57684   0.86571   0.00000  Uiso   1.00
C933   C     0.26590   0.50409   0.81124   0.00000  Uiso   1.00
C934   C     0.32392   0.74104   0.79501   0.00000  Uiso   1.00
C935   C     0.35773   0.74003   0.80864   0.00000  Uiso   1.00
C936   C     0.38556   0.75388   0.75724   0.00000  Uiso   1.00
C937   C     0.41414   0.75029   0.78051   0.00000  Uiso   1.00
C938   C     0.30452   0.78017   0.85385   0.00000  Uiso   1.00
C939   C     0.28762   0.82776   0.84047   0.00000  Uiso   1.00
C940   C     0.27140   0.85796   0.90179   0.00000  Uiso   1.00
C941   C     0.31037   0.68167   0.81348   0.00000  Uiso   1.00
C942   C     0.29837   0.64644   0.76617   0.00000  Uiso   1.00
C943   C     0.28706   0.59371   0.79351   0.00000  Uiso   1.00
H944   H     0.32572   0.69694   0.98382   0.00000  Uiso   1.00
H945   H     0.38749   0.70656   0.95984   0.00000  Uiso   1.00
H946   H     0.28955   0.78043   0.04305   0.00000  Uiso   1.00
H947   H     0.30030   0.59913   0.96876   0.00000  Uiso   1.00
H948   H     0.45566   0.72467   0.90148   0.00000  Uiso   1.00
H949   H     0.24915   0.88042   0.07693   0.00000  Uiso   1.00
H950   H     0.27181   0.49812   0.92027   0.00000  Uiso   1.00
H951   H     0.32338   0.75415   0.73890   0.00000  Uiso   1.00
H952   H     0.38502   0.76691   0.70147   0.00000  Uiso   1.00
H953   H     0.28709   0.84078   0.78468   0.00000  Uiso   1.00
H954   H     0.29784   0.65948   0.71039   0.00000  Uiso   1.00
H955   H     0.45366   0.77366   0.69177   0.00000  Uiso   1.00
H956   H     0.24715   0.92940   0.86723   0.00000  Uiso   1.00
H957   H     0.26981   0.54710   0.71057   0.00000  Uiso   1.00
O958   O     0.49525   0.75655   0.77643   0.00000  Uiso   1.00
O959   O     0.22431   0.96087   0.00662   0.00000  Uiso   1.00
O960   O     0.25405   0.45931   0.80109   0.00000  Uiso   1.00
N961   N     0.44673   0.73444   0.85725   0.00000  Uiso   1.00
N962   N     0.25366   0.88006   0.02129   0.00000  Uiso   1.00
N963   N     0.27484   0.52265   0.87484   0.00000  Uiso   1.00
N964   N     0.44565   0.76079   0.74441   0.00000  Uiso   1.00
N965   N     0.25259   0.90641   0.90845   0.00000  Uiso   1.00
N966   N     0.27377   0.54900   0.76200   0.00000  Uiso   1.00
C967   C     0.12934   0.00759   0.83392   0.00000  Uiso   1.00
C968   C     0.12601   0.97405   0.90558   0.00000  Uiso   1.00
C969   C     0.15070   0.96116   0.94017   0.00000  Uiso   1.00
C970   C     0.14275   0.93006   0.00531   0.00000  Uiso   1.00
C971   C     0.14238   0.88067   0.11212   0.00000  Uiso   1.00
C972   C     0.10601   0.05712   0.85211   0.00000  Uiso   1.00
C973   C     0.61388   0.61408   0.84173   0.00000  Uiso   1.00
C974   C     0.58909   0.65291   0.86185   0.00000  Uiso   1.00
C975   C     0.55766   0.73250   0.88559   0.00000  Uiso   1.00
C976   C     0.11622   0.96945   0.78121   0.00000  Uiso   1.00
C977   C     0.13267   0.95272   0.71122   0.00000  Uiso   1.00
C978   C     0.11647   0.91775   0.67164   0.00000  Uiso   1.00
C979   C     0.10090   0.86122   0.58530   0.00000  Uiso   1.00
C980   C     0.07131   0.97527   0.88808   0.00000  Uiso   1.00
C981   C     0.09449   0.95649   0.93499   0.00000  Uiso   1.00
C982   C     0.08650   0.92540   0.00010   0.00000  Uiso   1.00
C983   C     0.11118   0.91247   0.03478   0.00000  Uiso   1.00
C984   C     0.07449   0.03957   0.88152   0.00000  Uiso   1.00
C985   C     0.54968   0.57833   0.90165   0.00000  Uiso   1.00
C986   C     0.55751   0.63533   0.89132   0.00000  Uiso   1.00
C987   C     0.08470   0.95190   0.81063   0.00000  Uiso   1.00
C988   C     0.06847   0.91696   0.77114   0.00000  Uiso   1.00
C989   C     0.08490   0.90016   0.70111   0.00000  Uiso   1.00
H990   H     0.15388   0.02126   0.81102   0.00000  Uiso   1.00
H991   H     0.17509   0.97476   0.91739   0.00000  Uiso   1.00
H992   H     0.13828   0.12765   0.81896   0.00000  Uiso   1.00
H993   H     0.15707   0.96631   0.68847   0.00000  Uiso   1.00
H994   H     0.18472   0.91548   0.04832   0.00000  Uiso   1.00
H995   H     0.60709   0.73787   0.84074   0.00000  Uiso   1.00
H996   H     0.14670   0.89764   0.56557   0.00000  Uiso   1.00
H997   H     0.04677   0.96160   0.91099   0.00000  Uiso   1.00
H998   H     0.06211   0.91182   0.02285   0.00000  Uiso   1.00
H999   H     0.52529   0.56473   0.92441   0.00000  Uiso   1.00
H1000  H     0.04408   0.90338   0.79393   0.00000  Uiso   1.00
H1001  H     0.09301   0.86440   0.13391   0.00000  Uiso   1.00
H1002  H     0.51538   0.68680   0.92633   0.00000  Uiso   1.00
H1003  H     0.05500   0.84657   0.65116   0.00000  Uiso   1.00
O1004  O     0.15089   0.85829   0.16291   0.00000  Uiso   1.00
O1005  O     0.54904   0.78125   0.89056   0.00000  Uiso   1.00
O1006  O     0.10102   0.83488   0.52955   0.00000  Uiso   1.00
N1007  N     0.16103   0.91028   0.05310   0.00000  Uiso   1.00
N1008  N     0.58845   0.71170   0.85904   0.00000  Uiso   1.00
N1009  N     0.12549   0.89363   0.60177   0.00000  Uiso   1.00
N1010  N     0.11168   0.88279   0.09916   0.00000  Uiso   1.00
N1011  N     0.53910   0.68421   0.90510   0.00000  Uiso   1.00
N1012  N     0.07614   0.86614   0.64783   0.00000  Uiso   1.00
C1013  C     0.78216   0.73618   0.47407   0.00000  Uiso   1.00
C1014  C     0.81562   0.72906   0.48851   0.00000  Uiso   1.00
C1015  C     0.82455   0.74192   0.55413   0.00000  Uiso   1.00
C1016  C     0.85631   0.73238   0.55627   0.00000  Uiso   1.00
C1017  C     0.90492   0.72459   0.58803   0.00000  Uiso   1.00
C1018  C     0.77258   0.67802   0.45028   0.00000  Uiso   1.00
C1019  C     0.24531   0.14797   0.48374   0.00000  Uiso   1.00
C1020  C     0.24084   0.09548   0.45368   0.00000  Uiso   1.00
C1021  C     0.22260   0.00846   0.42604   0.00000  Uiso   1.00
C1022  C     0.78607   0.77417   0.40607   0.00000  Uiso   1.00
C1023  C     0.27014   0.32496   0.40235   0.00000  Uiso   1.00
C1024  C     0.27703   0.35341   0.33507   0.00000  Uiso   1.00
C1025  C     0.27975   0.41569   0.23880   0.00000  Uiso   1.00
C1026  C     0.82271   0.69637   0.36118   0.00000  Uiso   1.00
C1027  C     0.83764   0.70743   0.42719   0.00000  Uiso   1.00
C1028  C     0.86941   0.69788   0.42923   0.00000  Uiso   1.00
C1029  C     0.87838   0.71072   0.49484   0.00000  Uiso   1.00
C1030  C     0.79460   0.65640   0.38896   0.00000  Uiso   1.00
C1031  C     0.29017   0.10393   0.35884   0.00000  Uiso   1.00
C1032  C     0.26290   0.07381   0.39225   0.00000  Uiso   1.00
C1033  C     0.80810   0.75255   0.34475   0.00000  Uiso   1.00
C1034  C     0.81501   0.78092   0.27746   0.00000  Uiso   1.00
C1035  C     0.29910   0.33175   0.27364   0.00000  Uiso   1.00
H1036  H     0.76501   0.75301   0.52181   0.00000  Uiso   1.00
H1037  H     0.80749   0.75865   0.60157   0.00000  Uiso   1.00
H1038  H     0.22827   0.16472   0.53118   0.00000  Uiso   1.00
H1039  H     0.25310   0.34168   0.44981   0.00000  Uiso   1.00
H1040  H     0.86430   0.75534   0.66297   0.00000  Uiso   1.00
H1041  H     0.19724   0.05730   0.51454   0.00000  Uiso   1.00
H1042  H     0.24961   0.43046   0.34296   0.00000  Uiso   1.00
H1043  H     0.83986   0.67954   0.31344   0.00000  Uiso   1.00
H1044  H     0.88645   0.68114   0.38177   0.00000  Uiso   1.00
H1045  H     0.30722   0.08721   0.31139   0.00000  Uiso   1.00
H1046  H     0.83205   0.76418   0.23002   0.00000  Uiso   1.00
H1047  H     0.92838   0.69243   0.48458   0.00000  Uiso   1.00
H1048  H     0.26132   0.99439   0.33614   0.00000  Uiso   1.00
H1049  H     0.31369   0.36756   0.16456   0.00000  Uiso   1.00
O1050  O     0.92564   0.72625   0.62249   0.00000  Uiso   1.00
O1051  O     0.20646   0.96644   0.42775   0.00000  Uiso   1.00
O1052  O     0.27517   0.45602   0.20264   0.00000  Uiso   1.00
N1053  N     0.87299   0.74033   0.61160   0.00000  Uiso   1.00
N1054  N     0.21680   0.05517   0.47284   0.00000  Uiso   1.00
N1055  N     0.26576   0.40403   0.31242   0.00000  Uiso   1.00
N1056  N     0.90747   0.70648   0.51561   0.00000  Uiso   1.00
N1057  N     0.25128   0.02132   0.37684   0.00000  Uiso   1.00
N1058  N     0.30024   0.37018   0.21642   0.00000  Uiso   1.00
C1059  C     0.14093   0.45664   0.77692   0.00000  Uiso   1.00
C1060  C     0.14870   0.50698   0.82148   0.00000  Uiso   1.00
C1061  C     0.16640   0.50482   0.87563   0.00000  Uiso   1.00
C1062  C     0.17086   0.55554   0.91000   0.00000  Uiso   1.00
C1063  C     0.18488   0.62595   0.98207   0.00000  Uiso   1.00
C1064  C     0.15344   0.47220   0.69573   0.00000  Uiso   1.00
C1065  C     0.17510   0.44079   0.64416   0.00000  Uiso   1.00
C1066  C     0.18354   0.46223   0.57267   0.00000  Uiso   1.00
C1067  C     0.20489   0.47863   0.44950   0.00000  Uiso   1.00
C1068  C     0.10452   0.45510   0.78939   0.00000  Uiso   1.00
C1069  C     0.08506   0.40931   0.81655   0.00000  Uiso   1.00
C1070  C     0.05232   0.41635   0.82389   0.00000  Uiso   1.00
C1071  C     0.49772   0.90620   0.84614   0.00000  Uiso   1.00
C1072  C     0.11738   0.55056   0.74165   0.00000  Uiso   1.00
C1073  C     0.13591   0.55799   0.80231   0.00000  Uiso   1.00
C1074  C     0.14034   0.60873   0.83661   0.00000  Uiso   1.00
C1075  C     0.15803   0.60665   0.89081   0.00000  Uiso   1.00
C1076  C     0.14064   0.52321   0.67657   0.00000  Uiso   1.00
C1077  C     0.14904   0.54471   0.60514   0.00000  Uiso   1.00
C1078  C     0.17072   0.51334   0.55348   0.00000  Uiso   1.00
C1079  C     0.09173   0.50612   0.77023   0.00000  Uiso   1.00
C1080  C     0.05900   0.51323   0.77753   0.00000  Uiso   1.00
C1081  C     0.03950   0.46746   0.80470   0.00000  Uiso   1.00
H1082  H     0.15090   0.41692   0.79183   0.00000  Uiso   1.00
H1083  H     0.17630   0.46533   0.89044   0.00000  Uiso   1.00
H1084  H     0.18500   0.40131   0.65900   0.00000  Uiso   1.00
H1085  H     0.09498   0.36984   0.83137   0.00000  Uiso   1.00
H1086  H     0.19883   0.54150   0.99130   0.00000  Uiso   1.00
H1087  H     0.21717   0.40650   0.50329   0.00000  Uiso   1.00
H1088  H     0.52733   0.84014   0.86675   0.00000  Uiso   1.00
H1089  H     0.10741   0.59028   0.72673   0.00000  Uiso   1.00
H1090  H     0.13043   0.64821   0.82177   0.00000  Uiso   1.00
H1091  H     0.13913   0.58418   0.59033   0.00000  Uiso   1.00
H1092  H     0.04911   0.55271   0.76270   0.00000  Uiso   1.00
H1093  H     0.16160   0.68993   0.93556   0.00000  Uiso   1.00
H1094  H     0.17994   0.55493   0.44755   0.00000  Uiso   1.00
H1095  H     0.99010   0.48857   0.81102   0.00000  Uiso   1.00
O1096  O     0.19616   0.65070   0.02711   0.00000  Uiso   1.00
O1097  O     0.22020   0.47358   0.38686   0.00000  Uiso   1.00
O1098  O     0.47114   0.88651   0.86372   0.00000  Uiso   1.00
N1099  N     0.18691   0.56848   0.96515   0.00000  Uiso   1.00
N1100  N     0.20405   0.44227   0.50889   0.00000  Uiso   1.00
N1101  N     0.52657   0.88022   0.84868   0.00000  Uiso   1.00
N1102  N     0.16687   0.64835   0.93516   0.00000  Uiso   1.00
N1103  N     0.18402   0.52214   0.47890   0.00000  Uiso   1.00
N1104  N     0.00654   0.46009   0.81869   0.00000  Uiso   1.00
