data_job_04776
_audit_creation_date              2018-12-19
_audit_creation_method            'Materials Studio'
_symmetry_space_group_name_H-M    'P1'
_symmetry_Int_Tables_number       1
_symmetry_cell_setting            triclinic
loop_
_symmetry_equiv_pos_as_xyz
  x,y,z
_cell_length_a                    24.8605
_cell_length_b                    16.1276
_cell_length_c                    22.1086
_cell_angle_alpha                 90.0000
_cell_angle_beta                  90.0000
_cell_angle_gamma                 90.0000
loop_
_atom_site_label
_atom_site_type_symbol
_atom_site_fract_x
_atom_site_fract_y
_atom_site_fract_z
_atom_site_U_iso_or_equiv
_atom_site_adp_type
_atom_site_occupancy
C1     C     0.81604   0.58977   0.44820   0.00000  Uiso   1.00
C2     C     0.84361   0.66681   0.42292   0.00000  Uiso   1.00
C3     C     0.82108   0.72268   0.38246   0.00000  Uiso   1.00
C4     C     0.85286   0.78920   0.36477   0.00000  Uiso   1.00
C5     C     0.88769   0.90724   0.32214   0.00000  Uiso   1.00
C6     C     0.85266   0.51698   0.43261   0.00000  Uiso   1.00
C7     C     0.83774   0.44688   0.40030   0.00000  Uiso   1.00
C8     C     0.87713   0.38726   0.39077   0.00000  Uiso   1.00
C9     C     0.92600   0.27266   0.36322   0.00000  Uiso   1.00
C10    C     0.81799   0.59838   0.51685   0.00000  Uiso   1.00
C11    C     0.77393   0.59670   0.55538   0.00000  Uiso   1.00
C12    C     0.78413   0.60560   0.61678   0.00000  Uiso   1.00
C13    C     0.77918   0.61740   0.72003   0.00000  Uiso   1.00
C14    C     0.91252   0.60854   0.48875   0.00000  Uiso   1.00
C15    C     0.89601   0.67700   0.44494   0.00000  Uiso   1.00
C16    C     0.92782   0.74345   0.42731   0.00000  Uiso   1.00
C17    C     0.90535   0.79941   0.38683   0.00000  Uiso   1.00
C18    C     0.90506   0.52717   0.45463   0.00000  Uiso   1.00
C19    C     0.94448   0.46764   0.44515   0.00000  Uiso   1.00
C20    C     0.92963   0.39747   0.41283   0.00000  Uiso   1.00
C21    C     0.87039   0.60858   0.53888   0.00000  Uiso   1.00
C22    C     0.88067   0.61748   0.60023   0.00000  Uiso   1.00
C23    C     0.83663   0.61582   0.63884   0.00000  Uiso   1.00
H24    H     0.77525   0.58183   0.43106   0.00000  Uiso   1.00
H25    H     0.78053   0.71477   0.36542   0.00000  Uiso   1.00
H26    H     0.79718   0.43900   0.38327   0.00000  Uiso   1.00
H27    H     0.73338   0.58881   0.53832   0.00000  Uiso   1.00
H28    H     0.80950   0.86663   0.30235   0.00000  Uiso   1.00
H29    H     0.84461   0.28515   0.33999   0.00000  Uiso   1.00
H30    H     0.71007   0.60105   0.66695   0.00000  Uiso   1.00
H31    H     0.95332   0.61648   0.50589   0.00000  Uiso   1.00
H32    H     0.96837   0.75132   0.44436   0.00000  Uiso   1.00
H33    H     0.98502   0.47555   0.46221   0.00000  Uiso   1.00
H34    H     0.92122   0.62536   0.61726   0.00000  Uiso   1.00
H35    H     0.96196   0.89630   0.36642   0.00000  Uiso   1.00
H36    H     0.99707   0.31481   0.40406   0.00000  Uiso   1.00
H37    H     0.86253   0.63072   0.73102   0.00000  Uiso   1.00
O38    O     0.89243   0.96953   0.29254   0.00000  Uiso   1.00
O39    O     0.93848   0.20664   0.34194   0.00000  Uiso   1.00
O40    O     0.76197   0.62111   0.77090   0.00000  Uiso   1.00
N41    N     0.84331   0.85512   0.32588   0.00000  Uiso   1.00
N42    N     0.87614   0.31147   0.36106   0.00000  Uiso   1.00
N43    N     0.75036   0.60679   0.66674   0.00000  Uiso   1.00
N44    N     0.92535   0.87108   0.36035   0.00000  Uiso   1.00
N45    N     0.95818   0.32744   0.39554   0.00000  Uiso   1.00
N46    N     0.83240   0.62276   0.70122   0.00000  Uiso   1.00
C47    C     0.81992   0.90742   0.12201   0.00000  Uiso   1.00
C48    C     0.84896   0.83182   0.14751   0.00000  Uiso   1.00
C49    C     0.82727   0.77450   0.18748   0.00000  Uiso   1.00
C50    C     0.86036   0.70969   0.20547   0.00000  Uiso   1.00
C51    C     0.89742   0.59342   0.24832   0.00000  Uiso   1.00
C52    C     0.85462   0.98210   0.13835   0.00000  Uiso   1.00
C53    C     0.83769   0.05115   0.17062   0.00000  Uiso   1.00
C54    C     0.87555   0.11286   0.18090   0.00000  Uiso   1.00
C55    C     0.92138   0.22993   0.20950   0.00000  Uiso   1.00
C56    C     0.82289   0.89931   0.05338   0.00000  Uiso   1.00
C57    C     0.77928   0.89876   0.01419   0.00000  Uiso   1.00
C58    C     0.79042   0.89078   0.95292   0.00000  Uiso   1.00
C59    C     0.78698   0.87929   0.84958   0.00000  Uiso   1.00
C60    C     0.91725   0.89423   0.08290   0.00000  Uiso   1.00
C61    C     0.90182   0.82466   0.12626   0.00000  Uiso   1.00
C62    C     0.93496   0.75992   0.14420   0.00000  Uiso   1.00
C63    C     0.91332   0.70252   0.18419   0.00000  Uiso   1.00
C64    C     0.90748   0.97495   0.11711   0.00000  Uiso   1.00
C65    C     0.94537   0.03657   0.12734   0.00000  Uiso   1.00
C66    C     0.92851   0.10569   0.15962   0.00000  Uiso   1.00
C67    C     0.87575   0.89214   0.03213   0.00000  Uiso   1.00
C68    C     0.88696   0.88417   0.97091   0.00000  Uiso   1.00
C69    C     0.84338   0.88360   0.93164   0.00000  Uiso   1.00
H70    H     0.77877   0.91300   0.13855   0.00000  Uiso   1.00
H71    H     0.78636   0.78007   0.20391   0.00000  Uiso   1.00
H72    H     0.79678   0.05668   0.18705   0.00000  Uiso   1.00
H73    H     0.73838   0.90431   0.03065   0.00000  Uiso   1.00
H74    H     0.81810   0.62956   0.26702   0.00000  Uiso   1.00
H75    H     0.84006   0.21281   0.23145   0.00000  Uiso   1.00
H76    H     0.71691   0.89150   0.90164   0.00000  Uiso   1.00
H77    H     0.95841   0.88866   0.06635   0.00000  Uiso   1.00
H78    H     0.97586   0.75439   0.12775   0.00000  Uiso   1.00
H79    H     0.98628   0.03100   0.11089   0.00000  Uiso   1.00
H80    H     0.92788   0.87863   0.95449   0.00000  Uiso   1.00
H81    H     0.97191   0.60871   0.20521   0.00000  Uiso   1.00
H82    H     0.99387   0.19198   0.16964   0.00000  Uiso   1.00
H83    H     0.87071   0.87066   0.83982   0.00000  Uiso   1.00
O84    O     0.90325   0.53126   0.27782   0.00000  Uiso   1.00
O85    O     0.93206   0.29648   0.23114   0.00000  Uiso   1.00
O86    O     0.77048   0.87493   0.79844   0.00000  Uiso   1.00
N87    N     0.85190   0.64307   0.24404   0.00000  Uiso   1.00
N88    N     0.87244   0.18837   0.21079   0.00000  Uiso   1.00
N89    N     0.75730   0.88800   0.90244   0.00000  Uiso   1.00
N90    N     0.93467   0.63185   0.21078   0.00000  Uiso   1.00
N91    N     0.95520   0.17716   0.17753   0.00000  Uiso   1.00
N92    N     0.84006   0.87678   0.86918   0.00000  Uiso   1.00
C93    C     0.68396   0.41023   0.44820   0.00000  Uiso   1.00
C94    C     0.65639   0.33319   0.42292   0.00000  Uiso   1.00
C95    C     0.67892   0.27732   0.38246   0.00000  Uiso   1.00
C96    C     0.64714   0.21080   0.36477   0.00000  Uiso   1.00
C97    C     0.61231   0.09276   0.32214   0.00000  Uiso   1.00
C98    C     0.64734   0.48302   0.43261   0.00000  Uiso   1.00
C99    C     0.66226   0.55312   0.40030   0.00000  Uiso   1.00
C100   C     0.62287   0.61274   0.39077   0.00000  Uiso   1.00
C101   C     0.57400   0.72734   0.36322   0.00000  Uiso   1.00
C102   C     0.68201   0.40162   0.51685   0.00000  Uiso   1.00
C103   C     0.72607   0.40330   0.55538   0.00000  Uiso   1.00
C104   C     0.71587   0.39440   0.61678   0.00000  Uiso   1.00
C105   C     0.72082   0.38260   0.72003   0.00000  Uiso   1.00
C106   C     0.58748   0.39146   0.48875   0.00000  Uiso   1.00
C107   C     0.60399   0.32300   0.44494   0.00000  Uiso   1.00
C108   C     0.57218   0.25655   0.42731   0.00000  Uiso   1.00
C109   C     0.59465   0.20059   0.38683   0.00000  Uiso   1.00
C110   C     0.59494   0.47283   0.45463   0.00000  Uiso   1.00
C111   C     0.55552   0.53236   0.44515   0.00000  Uiso   1.00
C112   C     0.57037   0.60253   0.41283   0.00000  Uiso   1.00
C113   C     0.62961   0.39142   0.53888   0.00000  Uiso   1.00
C114   C     0.61933   0.38252   0.60023   0.00000  Uiso   1.00
C115   C     0.66337   0.38418   0.63884   0.00000  Uiso   1.00
H116   H     0.72475   0.41817   0.43106   0.00000  Uiso   1.00
H117   H     0.71947   0.28523   0.36542   0.00000  Uiso   1.00
H118   H     0.70282   0.56100   0.38327   0.00000  Uiso   1.00
H119   H     0.76662   0.41119   0.53832   0.00000  Uiso   1.00
H120   H     0.69050   0.13337   0.30235   0.00000  Uiso   1.00
H121   H     0.65539   0.71485   0.33999   0.00000  Uiso   1.00
H122   H     0.78993   0.39895   0.66695   0.00000  Uiso   1.00
H123   H     0.54668   0.38352   0.50589   0.00000  Uiso   1.00
H124   H     0.53163   0.24868   0.44436   0.00000  Uiso   1.00
H125   H     0.51498   0.52445   0.46221   0.00000  Uiso   1.00
H126   H     0.57878   0.37464   0.61726   0.00000  Uiso   1.00
H127   H     0.53804   0.10370   0.36642   0.00000  Uiso   1.00
H128   H     0.50293   0.68519   0.40406   0.00000  Uiso   1.00
H129   H     0.63747   0.36928   0.73102   0.00000  Uiso   1.00
O130   O     0.60757   0.03047   0.29254   0.00000  Uiso   1.00
O131   O     0.56152   0.79336   0.34194   0.00000  Uiso   1.00
O132   O     0.73803   0.37889   0.77090   0.00000  Uiso   1.00
N133   N     0.65669   0.14488   0.32588   0.00000  Uiso   1.00
N134   N     0.62386   0.68853   0.36106   0.00000  Uiso   1.00
N135   N     0.74964   0.39321   0.66674   0.00000  Uiso   1.00
N136   N     0.57465   0.12892   0.36035   0.00000  Uiso   1.00
N137   N     0.54182   0.67256   0.39554   0.00000  Uiso   1.00
N138   N     0.66760   0.37724   0.70122   0.00000  Uiso   1.00
C139   C     0.68008   0.09258   0.12201   0.00000  Uiso   1.00
C140   C     0.65104   0.16818   0.14751   0.00000  Uiso   1.00
C141   C     0.67273   0.22550   0.18748   0.00000  Uiso   1.00
C142   C     0.63964   0.29031   0.20547   0.00000  Uiso   1.00
C143   C     0.60258   0.40658   0.24832   0.00000  Uiso   1.00
C144   C     0.64538   0.01790   0.13835   0.00000  Uiso   1.00
C145   C     0.66231   0.94885   0.17062   0.00000  Uiso   1.00
C146   C     0.62445   0.88714   0.18090   0.00000  Uiso   1.00
C147   C     0.57862   0.77007   0.20950   0.00000  Uiso   1.00
C148   C     0.67711   0.10069   0.05338   0.00000  Uiso   1.00
C149   C     0.72072   0.10124   0.01419   0.00000  Uiso   1.00
C150   C     0.70958   0.10922   0.95292   0.00000  Uiso   1.00
C151   C     0.71302   0.12071   0.84958   0.00000  Uiso   1.00
C152   C     0.58275   0.10577   0.08290   0.00000  Uiso   1.00
C153   C     0.59818   0.17534   0.12626   0.00000  Uiso   1.00
C154   C     0.56504   0.24008   0.14420   0.00000  Uiso   1.00
C155   C     0.58668   0.29748   0.18419   0.00000  Uiso   1.00
C156   C     0.59252   0.02505   0.11711   0.00000  Uiso   1.00
C157   C     0.55463   0.96343   0.12734   0.00000  Uiso   1.00
C158   C     0.57149   0.89431   0.15962   0.00000  Uiso   1.00
C159   C     0.62425   0.10786   0.03213   0.00000  Uiso   1.00
C160   C     0.61304   0.11583   0.97091   0.00000  Uiso   1.00
C161   C     0.65662   0.11640   0.93164   0.00000  Uiso   1.00
H162   H     0.72123   0.08700   0.13855   0.00000  Uiso   1.00
H163   H     0.71364   0.21993   0.20391   0.00000  Uiso   1.00
H164   H     0.70322   0.94332   0.18705   0.00000  Uiso   1.00
H165   H     0.76162   0.09569   0.03065   0.00000  Uiso   1.00
H166   H     0.68190   0.37044   0.26702   0.00000  Uiso   1.00
H167   H     0.65994   0.78719   0.23145   0.00000  Uiso   1.00
H168   H     0.78309   0.10850   0.90164   0.00000  Uiso   1.00
H169   H     0.54159   0.11134   0.06635   0.00000  Uiso   1.00
H170   H     0.52414   0.24561   0.12775   0.00000  Uiso   1.00
H171   H     0.51372   0.96900   0.11089   0.00000  Uiso   1.00
H172   H     0.57212   0.12137   0.95449   0.00000  Uiso   1.00
H173   H     0.52809   0.39129   0.20521   0.00000  Uiso   1.00
H174   H     0.50613   0.80802   0.16964   0.00000  Uiso   1.00
H175   H     0.62929   0.12934   0.83982   0.00000  Uiso   1.00
O176   O     0.59675   0.46874   0.27782   0.00000  Uiso   1.00
O177   O     0.56794   0.70352   0.23114   0.00000  Uiso   1.00
O178   O     0.72952   0.12507   0.79844   0.00000  Uiso   1.00
N179   N     0.64810   0.35693   0.24404   0.00000  Uiso   1.00
N180   N     0.62756   0.81163   0.21079   0.00000  Uiso   1.00
N181   N     0.74270   0.11200   0.90244   0.00000  Uiso   1.00
N182   N     0.56533   0.36815   0.21078   0.00000  Uiso   1.00
N183   N     0.54480   0.82284   0.17753   0.00000  Uiso   1.00
N184   N     0.65994   0.12322   0.86918   0.00000  Uiso   1.00
C185   C     0.18396   0.58977   0.05180   0.00000  Uiso   1.00
C186   C     0.15639   0.66681   0.07708   0.00000  Uiso   1.00
C187   C     0.17892   0.72268   0.11754   0.00000  Uiso   1.00
C188   C     0.14714   0.78920   0.13523   0.00000  Uiso   1.00
C189   C     0.11231   0.90724   0.17786   0.00000  Uiso   1.00
C190   C     0.14734   0.51698   0.06739   0.00000  Uiso   1.00
C191   C     0.16226   0.44688   0.09970   0.00000  Uiso   1.00
C192   C     0.12287   0.38726   0.10923   0.00000  Uiso   1.00
C193   C     0.07400   0.27266   0.13678   0.00000  Uiso   1.00
C194   C     0.18201   0.59838   0.98315   0.00000  Uiso   1.00
C195   C     0.22607   0.59670   0.94462   0.00000  Uiso   1.00
C196   C     0.21587   0.60560   0.88322   0.00000  Uiso   1.00
C197   C     0.22082   0.61740   0.77997   0.00000  Uiso   1.00
C198   C     0.08748   0.60854   0.01125   0.00000  Uiso   1.00
C199   C     0.10399   0.67700   0.05506   0.00000  Uiso   1.00
C200   C     0.07218   0.74345   0.07269   0.00000  Uiso   1.00
C201   C     0.09465   0.79941   0.11317   0.00000  Uiso   1.00
C202   C     0.09494   0.52717   0.04537   0.00000  Uiso   1.00
C203   C     0.05552   0.46764   0.05485   0.00000  Uiso   1.00
C204   C     0.07037   0.39747   0.08717   0.00000  Uiso   1.00
C205   C     0.12961   0.60858   0.96112   0.00000  Uiso   1.00
C206   C     0.11933   0.61748   0.89977   0.00000  Uiso   1.00
C207   C     0.16337   0.61582   0.86116   0.00000  Uiso   1.00
H208   H     0.22475   0.58183   0.06894   0.00000  Uiso   1.00
H209   H     0.21947   0.71477   0.13458   0.00000  Uiso   1.00
H210   H     0.20282   0.43900   0.11673   0.00000  Uiso   1.00
H211   H     0.26662   0.58881   0.96168   0.00000  Uiso   1.00
H212   H     0.19050   0.86663   0.19765   0.00000  Uiso   1.00
H213   H     0.15539   0.28515   0.16001   0.00000  Uiso   1.00
H214   H     0.28993   0.60105   0.83305   0.00000  Uiso   1.00
H215   H     0.04668   0.61648   0.99411   0.00000  Uiso   1.00
H216   H     0.03163   0.75132   0.05564   0.00000  Uiso   1.00
H217   H     0.01498   0.47555   0.03779   0.00000  Uiso   1.00
H218   H     0.07878   0.62536   0.88274   0.00000  Uiso   1.00
H219   H     0.03804   0.89630   0.13358   0.00000  Uiso   1.00
H220   H     0.00293   0.31481   0.09594   0.00000  Uiso   1.00
H221   H     0.13747   0.63072   0.76898   0.00000  Uiso   1.00
O222   O     0.10757   0.96953   0.20746   0.00000  Uiso   1.00
O223   O     0.06152   0.20664   0.15806   0.00000  Uiso   1.00
O224   O     0.23803   0.62111   0.72910   0.00000  Uiso   1.00
N225   N     0.15669   0.85512   0.17412   0.00000  Uiso   1.00
N226   N     0.12386   0.31147   0.13894   0.00000  Uiso   1.00
N227   N     0.24964   0.60679   0.83326   0.00000  Uiso   1.00
N228   N     0.07465   0.87108   0.13965   0.00000  Uiso   1.00
N229   N     0.04182   0.32744   0.10446   0.00000  Uiso   1.00
N230   N     0.16760   0.62276   0.79878   0.00000  Uiso   1.00
C231   C     0.18008   0.90742   0.37799   0.00000  Uiso   1.00
C232   C     0.15104   0.83182   0.35249   0.00000  Uiso   1.00
C233   C     0.17273   0.77450   0.31252   0.00000  Uiso   1.00
C234   C     0.13964   0.70969   0.29453   0.00000  Uiso   1.00
C235   C     0.10258   0.59342   0.25168   0.00000  Uiso   1.00
C236   C     0.14538   0.98210   0.36165   0.00000  Uiso   1.00
C237   C     0.16231   0.05115   0.32938   0.00000  Uiso   1.00
C238   C     0.12445   0.11286   0.31910   0.00000  Uiso   1.00
C239   C     0.07862   0.22993   0.29050   0.00000  Uiso   1.00
C240   C     0.17711   0.89931   0.44662   0.00000  Uiso   1.00
C241   C     0.22072   0.89876   0.48581   0.00000  Uiso   1.00
C242   C     0.20958   0.89078   0.54708   0.00000  Uiso   1.00
C243   C     0.21302   0.87929   0.65042   0.00000  Uiso   1.00
C244   C     0.08275   0.89423   0.41710   0.00000  Uiso   1.00
C245   C     0.09818   0.82466   0.37374   0.00000  Uiso   1.00
C246   C     0.06504   0.75992   0.35580   0.00000  Uiso   1.00
C247   C     0.08668   0.70252   0.31581   0.00000  Uiso   1.00
C248   C     0.09252   0.97495   0.38289   0.00000  Uiso   1.00
C249   C     0.05463   0.03657   0.37266   0.00000  Uiso   1.00
C250   C     0.07149   0.10569   0.34038   0.00000  Uiso   1.00
C251   C     0.12425   0.89214   0.46787   0.00000  Uiso   1.00
C252   C     0.11304   0.88417   0.52909   0.00000  Uiso   1.00
C253   C     0.15662   0.88360   0.56836   0.00000  Uiso   1.00
H254   H     0.22123   0.91300   0.36145   0.00000  Uiso   1.00
H255   H     0.21364   0.78007   0.29609   0.00000  Uiso   1.00
H256   H     0.20322   0.05668   0.31295   0.00000  Uiso   1.00
H257   H     0.26162   0.90431   0.46935   0.00000  Uiso   1.00
H258   H     0.18190   0.62956   0.23298   0.00000  Uiso   1.00
H259   H     0.15994   0.21281   0.26855   0.00000  Uiso   1.00
H260   H     0.28309   0.89150   0.59836   0.00000  Uiso   1.00
H261   H     0.04159   0.88866   0.43365   0.00000  Uiso   1.00
H262   H     0.02414   0.75439   0.37225   0.00000  Uiso   1.00
H263   H     0.01372   0.03100   0.38911   0.00000  Uiso   1.00
H264   H     0.07212   0.87863   0.54551   0.00000  Uiso   1.00
H265   H     0.02809   0.60871   0.29479   0.00000  Uiso   1.00
H266   H     0.00613   0.19198   0.33036   0.00000  Uiso   1.00
H267   H     0.12929   0.87066   0.66018   0.00000  Uiso   1.00
O268   O     0.09675   0.53126   0.22218   0.00000  Uiso   1.00
O269   O     0.06794   0.29648   0.26886   0.00000  Uiso   1.00
O270   O     0.22952   0.87493   0.70156   0.00000  Uiso   1.00
N271   N     0.14810   0.64307   0.25596   0.00000  Uiso   1.00
N272   N     0.12756   0.18837   0.28921   0.00000  Uiso   1.00
N273   N     0.24270   0.88800   0.59756   0.00000  Uiso   1.00
N274   N     0.06533   0.63185   0.28922   0.00000  Uiso   1.00
N275   N     0.04480   0.17716   0.32247   0.00000  Uiso   1.00
N276   N     0.15994   0.87678   0.63082   0.00000  Uiso   1.00
C277   C     0.31604   0.41023   0.05180   0.00000  Uiso   1.00
C278   C     0.34361   0.33319   0.07708   0.00000  Uiso   1.00
C279   C     0.32108   0.27732   0.11754   0.00000  Uiso   1.00
C280   C     0.35286   0.21080   0.13523   0.00000  Uiso   1.00
C281   C     0.38769   0.09276   0.17786   0.00000  Uiso   1.00
C282   C     0.35266   0.48302   0.06739   0.00000  Uiso   1.00
C283   C     0.33774   0.55312   0.09970   0.00000  Uiso   1.00
C284   C     0.37713   0.61274   0.10923   0.00000  Uiso   1.00
C285   C     0.42600   0.72734   0.13678   0.00000  Uiso   1.00
C286   C     0.31799   0.40162   0.98315   0.00000  Uiso   1.00
C287   C     0.27393   0.40330   0.94462   0.00000  Uiso   1.00
C288   C     0.28413   0.39440   0.88322   0.00000  Uiso   1.00
C289   C     0.27918   0.38260   0.77997   0.00000  Uiso   1.00
C290   C     0.41252   0.39146   0.01125   0.00000  Uiso   1.00
C291   C     0.39601   0.32300   0.05506   0.00000  Uiso   1.00
C292   C     0.42782   0.25655   0.07269   0.00000  Uiso   1.00
C293   C     0.40535   0.20059   0.11317   0.00000  Uiso   1.00
C294   C     0.40506   0.47283   0.04537   0.00000  Uiso   1.00
C295   C     0.44448   0.53236   0.05485   0.00000  Uiso   1.00
C296   C     0.42963   0.60253   0.08717   0.00000  Uiso   1.00
C297   C     0.37039   0.39142   0.96112   0.00000  Uiso   1.00
C298   C     0.38067   0.38252   0.89977   0.00000  Uiso   1.00
C299   C     0.33663   0.38418   0.86116   0.00000  Uiso   1.00
H300   H     0.27525   0.41817   0.06894   0.00000  Uiso   1.00
H301   H     0.28053   0.28523   0.13458   0.00000  Uiso   1.00
H302   H     0.29718   0.56100   0.11673   0.00000  Uiso   1.00
H303   H     0.23338   0.41119   0.96168   0.00000  Uiso   1.00
H304   H     0.30950   0.13337   0.19765   0.00000  Uiso   1.00
H305   H     0.34461   0.71485   0.16001   0.00000  Uiso   1.00
H306   H     0.21007   0.39895   0.83305   0.00000  Uiso   1.00
H307   H     0.45332   0.38352   0.99411   0.00000  Uiso   1.00
H308   H     0.46837   0.24868   0.05564   0.00000  Uiso   1.00
H309   H     0.48502   0.52445   0.03779   0.00000  Uiso   1.00
H310   H     0.42122   0.37464   0.88274   0.00000  Uiso   1.00
H311   H     0.46196   0.10370   0.13358   0.00000  Uiso   1.00
H312   H     0.49707   0.68519   0.09594   0.00000  Uiso   1.00
H313   H     0.36253   0.36928   0.76898   0.00000  Uiso   1.00
O314   O     0.39243   0.03047   0.20746   0.00000  Uiso   1.00
O315   O     0.43848   0.79336   0.15806   0.00000  Uiso   1.00
O316   O     0.26197   0.37889   0.72910   0.00000  Uiso   1.00
N317   N     0.34331   0.14488   0.17412   0.00000  Uiso   1.00
N318   N     0.37614   0.68853   0.13894   0.00000  Uiso   1.00
N319   N     0.25036   0.39321   0.83326   0.00000  Uiso   1.00
N320   N     0.42535   0.12892   0.13965   0.00000  Uiso   1.00
N321   N     0.45818   0.67256   0.10446   0.00000  Uiso   1.00
N322   N     0.33240   0.37724   0.79878   0.00000  Uiso   1.00
C323   C     0.31992   0.09258   0.37799   0.00000  Uiso   1.00
C324   C     0.34896   0.16818   0.35249   0.00000  Uiso   1.00
C325   C     0.32727   0.22550   0.31252   0.00000  Uiso   1.00
C326   C     0.36036   0.29031   0.29453   0.00000  Uiso   1.00
C327   C     0.39742   0.40658   0.25168   0.00000  Uiso   1.00
C328   C     0.35462   0.01790   0.36165   0.00000  Uiso   1.00
C329   C     0.33769   0.94885   0.32938   0.00000  Uiso   1.00
C330   C     0.37555   0.88714   0.31910   0.00000  Uiso   1.00
C331   C     0.42138   0.77007   0.29050   0.00000  Uiso   1.00
C332   C     0.32289   0.10069   0.44662   0.00000  Uiso   1.00
C333   C     0.27928   0.10124   0.48581   0.00000  Uiso   1.00
C334   C     0.29042   0.10922   0.54708   0.00000  Uiso   1.00
C335   C     0.28698   0.12071   0.65042   0.00000  Uiso   1.00
C336   C     0.41725   0.10577   0.41711   0.00000  Uiso   1.00
C337   C     0.40182   0.17534   0.37374   0.00000  Uiso   1.00
C338   C     0.43496   0.24008   0.35580   0.00000  Uiso   1.00
C339   C     0.41332   0.29748   0.31581   0.00000  Uiso   1.00
C340   C     0.40748   0.02505   0.38289   0.00000  Uiso   1.00
C341   C     0.44537   0.96343   0.37266   0.00000  Uiso   1.00
C342   C     0.42851   0.89431   0.34038   0.00000  Uiso   1.00
C343   C     0.37575   0.10786   0.46787   0.00000  Uiso   1.00
C344   C     0.38696   0.11583   0.52909   0.00000  Uiso   1.00
C345   C     0.34338   0.11640   0.56836   0.00000  Uiso   1.00
H346   H     0.27877   0.08700   0.36145   0.00000  Uiso   1.00
H347   H     0.28636   0.21993   0.29609   0.00000  Uiso   1.00
H348   H     0.29678   0.94332   0.31295   0.00000  Uiso   1.00
H349   H     0.23838   0.09569   0.46935   0.00000  Uiso   1.00
H350   H     0.31810   0.37044   0.23298   0.00000  Uiso   1.00
H351   H     0.34006   0.78719   0.26855   0.00000  Uiso   1.00
H352   H     0.21691   0.10850   0.59836   0.00000  Uiso   1.00
H353   H     0.45841   0.11134   0.43365   0.00000  Uiso   1.00
H354   H     0.47586   0.24561   0.37225   0.00000  Uiso   1.00
H355   H     0.48628   0.96900   0.38911   0.00000  Uiso   1.00
H356   H     0.42788   0.12137   0.54551   0.00000  Uiso   1.00
H357   H     0.47191   0.39129   0.29479   0.00000  Uiso   1.00
H358   H     0.49387   0.80802   0.33036   0.00000  Uiso   1.00
H359   H     0.37071   0.12934   0.66018   0.00000  Uiso   1.00
O360   O     0.40325   0.46874   0.22218   0.00000  Uiso   1.00
O361   O     0.43206   0.70352   0.26886   0.00000  Uiso   1.00
O362   O     0.27048   0.12507   0.70156   0.00000  Uiso   1.00
N363   N     0.35190   0.35693   0.25596   0.00000  Uiso   1.00
N364   N     0.37244   0.81163   0.28921   0.00000  Uiso   1.00
N365   N     0.25730   0.11200   0.59756   0.00000  Uiso   1.00
N366   N     0.43467   0.36815   0.28922   0.00000  Uiso   1.00
N367   N     0.45520   0.82284   0.32247   0.00000  Uiso   1.00
N368   N     0.34006   0.12322   0.63082   0.00000  Uiso   1.00
C369   C     0.18396   0.41023   0.55180   0.00000  Uiso   1.00
C370   C     0.15639   0.33319   0.57708   0.00000  Uiso   1.00
C371   C     0.17892   0.27732   0.61754   0.00000  Uiso   1.00
C372   C     0.14714   0.21080   0.63523   0.00000  Uiso   1.00
C373   C     0.11231   0.09276   0.67786   0.00000  Uiso   1.00
C374   C     0.14734   0.48302   0.56739   0.00000  Uiso   1.00
C375   C     0.16226   0.55312   0.59970   0.00000  Uiso   1.00
C376   C     0.12287   0.61274   0.60923   0.00000  Uiso   1.00
C377   C     0.07400   0.72734   0.63678   0.00000  Uiso   1.00
C378   C     0.18201   0.40162   0.48315   0.00000  Uiso   1.00
C379   C     0.22607   0.40330   0.44462   0.00000  Uiso   1.00
C380   C     0.21587   0.39440   0.38322   0.00000  Uiso   1.00
C381   C     0.22082   0.38260   0.27997   0.00000  Uiso   1.00
C382   C     0.08748   0.39146   0.51125   0.00000  Uiso   1.00
C383   C     0.10399   0.32300   0.55506   0.00000  Uiso   1.00
C384   C     0.07218   0.25655   0.57269   0.00000  Uiso   1.00
C385   C     0.09465   0.20059   0.61317   0.00000  Uiso   1.00
C386   C     0.09494   0.47283   0.54537   0.00000  Uiso   1.00
C387   C     0.05552   0.53236   0.55485   0.00000  Uiso   1.00
C388   C     0.07037   0.60253   0.58717   0.00000  Uiso   1.00
C389   C     0.12961   0.39142   0.46112   0.00000  Uiso   1.00
C390   C     0.11933   0.38252   0.39977   0.00000  Uiso   1.00
C391   C     0.16337   0.38418   0.36116   0.00000  Uiso   1.00
H392   H     0.22475   0.41817   0.56894   0.00000  Uiso   1.00
H393   H     0.21947   0.28523   0.63458   0.00000  Uiso   1.00
H394   H     0.20282   0.56100   0.61673   0.00000  Uiso   1.00
H395   H     0.26662   0.41119   0.46168   0.00000  Uiso   1.00
H396   H     0.19050   0.13337   0.69765   0.00000  Uiso   1.00
H397   H     0.15539   0.71485   0.66001   0.00000  Uiso   1.00
H398   H     0.28993   0.39895   0.33305   0.00000  Uiso   1.00
H399   H     0.04668   0.38352   0.49411   0.00000  Uiso   1.00
H400   H     0.03163   0.24868   0.55564   0.00000  Uiso   1.00
H401   H     0.01498   0.52445   0.53779   0.00000  Uiso   1.00
H402   H     0.07878   0.37464   0.38274   0.00000  Uiso   1.00
H403   H     0.03804   0.10370   0.63358   0.00000  Uiso   1.00
H404   H     0.00293   0.68519   0.59594   0.00000  Uiso   1.00
H405   H     0.13747   0.36928   0.26898   0.00000  Uiso   1.00
O406   O     0.10757   0.03047   0.70746   0.00000  Uiso   1.00
O407   O     0.06152   0.79336   0.65806   0.00000  Uiso   1.00
O408   O     0.23803   0.37889   0.22910   0.00000  Uiso   1.00
N409   N     0.15669   0.14488   0.67412   0.00000  Uiso   1.00
N410   N     0.12386   0.68853   0.63894   0.00000  Uiso   1.00
N411   N     0.24964   0.39321   0.33326   0.00000  Uiso   1.00
N412   N     0.07465   0.12892   0.63965   0.00000  Uiso   1.00
N413   N     0.04182   0.67256   0.60446   0.00000  Uiso   1.00
N414   N     0.16760   0.37724   0.29878   0.00000  Uiso   1.00
C415   C     0.18008   0.09258   0.87799   0.00000  Uiso   1.00
C416   C     0.15104   0.16818   0.85249   0.00000  Uiso   1.00
C417   C     0.17273   0.22550   0.81252   0.00000  Uiso   1.00
C418   C     0.13964   0.29031   0.79453   0.00000  Uiso   1.00
C419   C     0.10258   0.40658   0.75168   0.00000  Uiso   1.00
C420   C     0.14538   0.01790   0.86165   0.00000  Uiso   1.00
C421   C     0.16231   0.94885   0.82938   0.00000  Uiso   1.00
C422   C     0.12445   0.88714   0.81910   0.00000  Uiso   1.00
C423   C     0.07862   0.77007   0.79050   0.00000  Uiso   1.00
C424   C     0.17711   0.10069   0.94662   0.00000  Uiso   1.00
C425   C     0.22072   0.10124   0.98581   0.00000  Uiso   1.00
C426   C     0.20958   0.10922   0.04708   0.00000  Uiso   1.00
C427   C     0.21302   0.12071   0.15042   0.00000  Uiso   1.00
C428   C     0.08275   0.10577   0.91711   0.00000  Uiso   1.00
C429   C     0.09818   0.17534   0.87374   0.00000  Uiso   1.00
C430   C     0.06504   0.24008   0.85580   0.00000  Uiso   1.00
C431   C     0.08668   0.29748   0.81581   0.00000  Uiso   1.00
C432   C     0.09252   0.02505   0.88289   0.00000  Uiso   1.00
C433   C     0.05463   0.96343   0.87266   0.00000  Uiso   1.00
C434   C     0.07149   0.89431   0.84038   0.00000  Uiso   1.00
C435   C     0.12425   0.10786   0.96787   0.00000  Uiso   1.00
C436   C     0.11304   0.11583   0.02909   0.00000  Uiso   1.00
C437   C     0.15662   0.11640   0.06836   0.00000  Uiso   1.00
H438   H     0.22123   0.08700   0.86145   0.00000  Uiso   1.00
H439   H     0.21364   0.21993   0.79609   0.00000  Uiso   1.00
H440   H     0.20322   0.94332   0.81295   0.00000  Uiso   1.00
H441   H     0.26162   0.09569   0.96935   0.00000  Uiso   1.00
H442   H     0.18190   0.37044   0.73298   0.00000  Uiso   1.00
H443   H     0.15994   0.78719   0.76855   0.00000  Uiso   1.00
H444   H     0.28309   0.10850   0.09836   0.00000  Uiso   1.00
H445   H     0.04159   0.11134   0.93365   0.00000  Uiso   1.00
H446   H     0.02414   0.24561   0.87225   0.00000  Uiso   1.00
H447   H     0.01372   0.96900   0.88911   0.00000  Uiso   1.00
H448   H     0.07212   0.12137   0.04551   0.00000  Uiso   1.00
H449   H     0.02809   0.39129   0.79479   0.00000  Uiso   1.00
H450   H     0.00613   0.80802   0.83036   0.00000  Uiso   1.00
H451   H     0.12929   0.12934   0.16018   0.00000  Uiso   1.00
O452   O     0.09675   0.46874   0.72218   0.00000  Uiso   1.00
O453   O     0.06794   0.70352   0.76886   0.00000  Uiso   1.00
O454   O     0.22952   0.12507   0.20156   0.00000  Uiso   1.00
N455   N     0.14810   0.35693   0.75596   0.00000  Uiso   1.00
N456   N     0.12756   0.81163   0.78921   0.00000  Uiso   1.00
N457   N     0.24270   0.11200   0.09756   0.00000  Uiso   1.00
N458   N     0.06533   0.36815   0.78922   0.00000  Uiso   1.00
N459   N     0.04480   0.82284   0.82247   0.00000  Uiso   1.00
N460   N     0.15994   0.12322   0.13082   0.00000  Uiso   1.00
C461   C     0.31604   0.58977   0.55180   0.00000  Uiso   1.00
C462   C     0.34361   0.66681   0.57708   0.00000  Uiso   1.00
C463   C     0.32108   0.72268   0.61754   0.00000  Uiso   1.00
C464   C     0.35286   0.78920   0.63523   0.00000  Uiso   1.00
C465   C     0.38769   0.90724   0.67786   0.00000  Uiso   1.00
C466   C     0.35266   0.51698   0.56739   0.00000  Uiso   1.00
C467   C     0.33774   0.44688   0.59970   0.00000  Uiso   1.00
C468   C     0.37713   0.38726   0.60923   0.00000  Uiso   1.00
C469   C     0.42600   0.27266   0.63678   0.00000  Uiso   1.00
C470   C     0.31799   0.59838   0.48315   0.00000  Uiso   1.00
C471   C     0.27393   0.59670   0.44462   0.00000  Uiso   1.00
C472   C     0.28413   0.60560   0.38322   0.00000  Uiso   1.00
C473   C     0.27918   0.61740   0.27997   0.00000  Uiso   1.00
C474   C     0.41252   0.60854   0.51125   0.00000  Uiso   1.00
C475   C     0.39601   0.67700   0.55506   0.00000  Uiso   1.00
C476   C     0.42782   0.74345   0.57269   0.00000  Uiso   1.00
C477   C     0.40535   0.79941   0.61317   0.00000  Uiso   1.00
C478   C     0.40506   0.52717   0.54537   0.00000  Uiso   1.00
C479   C     0.44448   0.46764   0.55485   0.00000  Uiso   1.00
C480   C     0.42963   0.39747   0.58717   0.00000  Uiso   1.00
C481   C     0.37039   0.60858   0.46112   0.00000  Uiso   1.00
C482   C     0.38067   0.61748   0.39977   0.00000  Uiso   1.00
C483   C     0.33663   0.61582   0.36116   0.00000  Uiso   1.00
H484   H     0.27525   0.58183   0.56894   0.00000  Uiso   1.00
H485   H     0.28053   0.71477   0.63458   0.00000  Uiso   1.00
H486   H     0.29718   0.43900   0.61673   0.00000  Uiso   1.00
H487   H     0.23338   0.58881   0.46168   0.00000  Uiso   1.00
H488   H     0.30950   0.86663   0.69765   0.00000  Uiso   1.00
H489   H     0.34461   0.28515   0.66001   0.00000  Uiso   1.00
H490   H     0.21007   0.60105   0.33305   0.00000  Uiso   1.00
H491   H     0.45332   0.61648   0.49411   0.00000  Uiso   1.00
H492   H     0.46837   0.75132   0.55564   0.00000  Uiso   1.00
H493   H     0.48502   0.47555   0.53779   0.00000  Uiso   1.00
H494   H     0.42122   0.62536   0.38274   0.00000  Uiso   1.00
H495   H     0.46196   0.89630   0.63358   0.00000  Uiso   1.00
H496   H     0.49707   0.31481   0.59594   0.00000  Uiso   1.00
H497   H     0.36253   0.63072   0.26898   0.00000  Uiso   1.00
O498   O     0.39243   0.96953   0.70746   0.00000  Uiso   1.00
O499   O     0.43848   0.20664   0.65806   0.00000  Uiso   1.00
O500   O     0.26197   0.62111   0.22910   0.00000  Uiso   1.00
N501   N     0.34331   0.85512   0.67412   0.00000  Uiso   1.00
N502   N     0.37614   0.31147   0.63894   0.00000  Uiso   1.00
N503   N     0.25036   0.60679   0.33326   0.00000  Uiso   1.00
N504   N     0.42535   0.87108   0.63965   0.00000  Uiso   1.00
N505   N     0.45818   0.32744   0.60446   0.00000  Uiso   1.00
N506   N     0.33240   0.62276   0.29878   0.00000  Uiso   1.00
C507   C     0.31992   0.90742   0.87799   0.00000  Uiso   1.00
C508   C     0.34896   0.83182   0.85249   0.00000  Uiso   1.00
C509   C     0.32727   0.77450   0.81252   0.00000  Uiso   1.00
C510   C     0.36036   0.70969   0.79453   0.00000  Uiso   1.00
C511   C     0.39742   0.59342   0.75168   0.00000  Uiso   1.00
C512   C     0.35462   0.98210   0.86165   0.00000  Uiso   1.00
C513   C     0.33769   0.05115   0.82938   0.00000  Uiso   1.00
C514   C     0.37555   0.11286   0.81910   0.00000  Uiso   1.00
C515   C     0.42138   0.22993   0.79050   0.00000  Uiso   1.00
C516   C     0.32289   0.89931   0.94662   0.00000  Uiso   1.00
C517   C     0.27928   0.89876   0.98581   0.00000  Uiso   1.00
C518   C     0.29042   0.89078   0.04708   0.00000  Uiso   1.00
C519   C     0.28698   0.87929   0.15042   0.00000  Uiso   1.00
C520   C     0.41725   0.89423   0.91710   0.00000  Uiso   1.00
C521   C     0.40182   0.82466   0.87374   0.00000  Uiso   1.00
C522   C     0.43496   0.75992   0.85580   0.00000  Uiso   1.00
C523   C     0.41332   0.70252   0.81581   0.00000  Uiso   1.00
C524   C     0.40748   0.97495   0.88289   0.00000  Uiso   1.00
C525   C     0.44537   0.03657   0.87266   0.00000  Uiso   1.00
C526   C     0.42851   0.10569   0.84038   0.00000  Uiso   1.00
C527   C     0.37575   0.89214   0.96787   0.00000  Uiso   1.00
C528   C     0.38696   0.88417   0.02909   0.00000  Uiso   1.00
C529   C     0.34338   0.88360   0.06836   0.00000  Uiso   1.00
H530   H     0.27877   0.91300   0.86145   0.00000  Uiso   1.00
H531   H     0.28636   0.78007   0.79609   0.00000  Uiso   1.00
H532   H     0.29678   0.05668   0.81295   0.00000  Uiso   1.00
H533   H     0.23838   0.90431   0.96935   0.00000  Uiso   1.00
H534   H     0.31810   0.62956   0.73298   0.00000  Uiso   1.00
H535   H     0.34006   0.21281   0.76855   0.00000  Uiso   1.00
H536   H     0.21691   0.89150   0.09836   0.00000  Uiso   1.00
H537   H     0.45841   0.88866   0.93365   0.00000  Uiso   1.00
H538   H     0.47586   0.75439   0.87225   0.00000  Uiso   1.00
H539   H     0.48628   0.03100   0.88911   0.00000  Uiso   1.00
H540   H     0.42788   0.87863   0.04551   0.00000  Uiso   1.00
H541   H     0.47191   0.60871   0.79479   0.00000  Uiso   1.00
H542   H     0.49387   0.19198   0.83036   0.00000  Uiso   1.00
H543   H     0.37071   0.87066   0.16018   0.00000  Uiso   1.00
O544   O     0.40325   0.53126   0.72218   0.00000  Uiso   1.00
O545   O     0.43206   0.29648   0.76886   0.00000  Uiso   1.00
O546   O     0.27048   0.87493   0.20156   0.00000  Uiso   1.00
N547   N     0.35190   0.64307   0.75596   0.00000  Uiso   1.00
N548   N     0.37244   0.18837   0.78921   0.00000  Uiso   1.00
N549   N     0.25730   0.88800   0.09756   0.00000  Uiso   1.00
N550   N     0.43467   0.63185   0.78922   0.00000  Uiso   1.00
N551   N     0.45520   0.17716   0.82247   0.00000  Uiso   1.00
N552   N     0.34006   0.87678   0.13082   0.00000  Uiso   1.00
C553   C     0.81604   0.41023   0.94820   0.00000  Uiso   1.00
C554   C     0.84361   0.33319   0.92292   0.00000  Uiso   1.00
C555   C     0.82108   0.27732   0.88246   0.00000  Uiso   1.00
C556   C     0.85286   0.21080   0.86477   0.00000  Uiso   1.00
C557   C     0.88769   0.09276   0.82214   0.00000  Uiso   1.00
C558   C     0.85266   0.48302   0.93261   0.00000  Uiso   1.00
C559   C     0.83774   0.55312   0.90030   0.00000  Uiso   1.00
C560   C     0.87713   0.61274   0.89077   0.00000  Uiso   1.00
C561   C     0.92600   0.72734   0.86322   0.00000  Uiso   1.00
C562   C     0.81799   0.40162   0.01685   0.00000  Uiso   1.00
C563   C     0.77393   0.40330   0.05538   0.00000  Uiso   1.00
C564   C     0.78413   0.39440   0.11678   0.00000  Uiso   1.00
C565   C     0.77918   0.38260   0.22003   0.00000  Uiso   1.00
C566   C     0.91252   0.39146   0.98875   0.00000  Uiso   1.00
C567   C     0.89601   0.32300   0.94494   0.00000  Uiso   1.00
C568   C     0.92782   0.25655   0.92731   0.00000  Uiso   1.00
C569   C     0.90535   0.20059   0.88683   0.00000  Uiso   1.00
C570   C     0.90506   0.47283   0.95463   0.00000  Uiso   1.00
C571   C     0.94448   0.53236   0.94515   0.00000  Uiso   1.00
C572   C     0.92963   0.60253   0.91283   0.00000  Uiso   1.00
C573   C     0.87039   0.39142   0.03888   0.00000  Uiso   1.00
C574   C     0.88067   0.38252   0.10023   0.00000  Uiso   1.00
C575   C     0.83663   0.38418   0.13884   0.00000  Uiso   1.00
H576   H     0.77525   0.41817   0.93106   0.00000  Uiso   1.00
H577   H     0.78053   0.28523   0.86542   0.00000  Uiso   1.00
H578   H     0.79718   0.56100   0.88327   0.00000  Uiso   1.00
H579   H     0.73338   0.41119   0.03832   0.00000  Uiso   1.00
H580   H     0.80950   0.13337   0.80235   0.00000  Uiso   1.00
H581   H     0.84461   0.71485   0.83999   0.00000  Uiso   1.00
H582   H     0.71007   0.39895   0.16695   0.00000  Uiso   1.00
H583   H     0.95332   0.38352   0.00589   0.00000  Uiso   1.00
H584   H     0.96837   0.24868   0.94436   0.00000  Uiso   1.00
H585   H     0.98502   0.52445   0.96221   0.00000  Uiso   1.00
H586   H     0.92122   0.37464   0.11726   0.00000  Uiso   1.00
H587   H     0.96196   0.10370   0.86642   0.00000  Uiso   1.00
H588   H     0.99707   0.68519   0.90406   0.00000  Uiso   1.00
H589   H     0.86253   0.36928   0.23102   0.00000  Uiso   1.00
O590   O     0.89243   0.03047   0.79254   0.00000  Uiso   1.00
O591   O     0.93848   0.79336   0.84194   0.00000  Uiso   1.00
O592   O     0.76197   0.37889   0.27090   0.00000  Uiso   1.00
N593   N     0.84331   0.14488   0.82588   0.00000  Uiso   1.00
N594   N     0.87614   0.68853   0.86106   0.00000  Uiso   1.00
N595   N     0.75036   0.39321   0.16674   0.00000  Uiso   1.00
N596   N     0.92535   0.12892   0.86035   0.00000  Uiso   1.00
N597   N     0.95818   0.67256   0.89554   0.00000  Uiso   1.00
N598   N     0.83240   0.37724   0.20122   0.00000  Uiso   1.00
C599   C     0.81992   0.09258   0.62201   0.00000  Uiso   1.00
C600   C     0.84896   0.16818   0.64751   0.00000  Uiso   1.00
C601   C     0.82727   0.22550   0.68748   0.00000  Uiso   1.00
C602   C     0.86036   0.29031   0.70547   0.00000  Uiso   1.00
C603   C     0.89742   0.40658   0.74832   0.00000  Uiso   1.00
C604   C     0.85462   0.01790   0.63835   0.00000  Uiso   1.00
C605   C     0.83769   0.94885   0.67062   0.00000  Uiso   1.00
C606   C     0.87555   0.88714   0.68090   0.00000  Uiso   1.00
C607   C     0.92138   0.77007   0.70950   0.00000  Uiso   1.00
C608   C     0.82289   0.10069   0.55338   0.00000  Uiso   1.00
C609   C     0.77928   0.10124   0.51419   0.00000  Uiso   1.00
C610   C     0.79042   0.10922   0.45292   0.00000  Uiso   1.00
C611   C     0.78698   0.12071   0.34958   0.00000  Uiso   1.00
C612   C     0.91725   0.10577   0.58290   0.00000  Uiso   1.00
C613   C     0.90182   0.17534   0.62626   0.00000  Uiso   1.00
C614   C     0.93496   0.24008   0.64420   0.00000  Uiso   1.00
C615   C     0.91332   0.29748   0.68419   0.00000  Uiso   1.00
C616   C     0.90748   0.02505   0.61711   0.00000  Uiso   1.00
C617   C     0.94537   0.96343   0.62734   0.00000  Uiso   1.00
C618   C     0.92851   0.89431   0.65962   0.00000  Uiso   1.00
C619   C     0.87575   0.10786   0.53213   0.00000  Uiso   1.00
C620   C     0.88696   0.11583   0.47091   0.00000  Uiso   1.00
C621   C     0.84338   0.11640   0.43164   0.00000  Uiso   1.00
H622   H     0.77877   0.08700   0.63855   0.00000  Uiso   1.00
H623   H     0.78636   0.21993   0.70391   0.00000  Uiso   1.00
H624   H     0.79678   0.94332   0.68705   0.00000  Uiso   1.00
H625   H     0.73838   0.09569   0.53065   0.00000  Uiso   1.00
H626   H     0.81810   0.37044   0.76702   0.00000  Uiso   1.00
H627   H     0.84006   0.78719   0.73145   0.00000  Uiso   1.00
H628   H     0.71691   0.10850   0.40164   0.00000  Uiso   1.00
H629   H     0.95841   0.11134   0.56635   0.00000  Uiso   1.00
H630   H     0.97586   0.24561   0.62775   0.00000  Uiso   1.00
H631   H     0.98628   0.96900   0.61089   0.00000  Uiso   1.00
H632   H     0.92788   0.12137   0.45449   0.00000  Uiso   1.00
H633   H     0.97191   0.39129   0.70521   0.00000  Uiso   1.00
H634   H     0.99387   0.80802   0.66964   0.00000  Uiso   1.00
H635   H     0.87071   0.12934   0.33982   0.00000  Uiso   1.00
O636   O     0.90325   0.46874   0.77782   0.00000  Uiso   1.00
O637   O     0.93206   0.70352   0.73114   0.00000  Uiso   1.00
O638   O     0.77048   0.12507   0.29844   0.00000  Uiso   1.00
N639   N     0.85190   0.35693   0.74404   0.00000  Uiso   1.00
N640   N     0.87244   0.81163   0.71079   0.00000  Uiso   1.00
N641   N     0.75730   0.11200   0.40244   0.00000  Uiso   1.00
N642   N     0.93467   0.36815   0.71078   0.00000  Uiso   1.00
N643   N     0.95520   0.82284   0.67753   0.00000  Uiso   1.00
N644   N     0.84006   0.12322   0.36918   0.00000  Uiso   1.00
C645   C     0.68396   0.58977   0.94820   0.00000  Uiso   1.00
C646   C     0.65639   0.66681   0.92292   0.00000  Uiso   1.00
C647   C     0.67892   0.72268   0.88246   0.00000  Uiso   1.00
C648   C     0.64714   0.78920   0.86477   0.00000  Uiso   1.00
C649   C     0.61231   0.90724   0.82214   0.00000  Uiso   1.00
C650   C     0.64734   0.51698   0.93261   0.00000  Uiso   1.00
C651   C     0.66226   0.44688   0.90030   0.00000  Uiso   1.00
C652   C     0.62287   0.38726   0.89077   0.00000  Uiso   1.00
C653   C     0.57400   0.27266   0.86322   0.00000  Uiso   1.00
C654   C     0.68201   0.59838   0.01685   0.00000  Uiso   1.00
C655   C     0.72607   0.59670   0.05538   0.00000  Uiso   1.00
C656   C     0.71587   0.60560   0.11678   0.00000  Uiso   1.00
C657   C     0.72082   0.61740   0.22003   0.00000  Uiso   1.00
C658   C     0.58748   0.60854   0.98875   0.00000  Uiso   1.00
C659   C     0.60399   0.67700   0.94494   0.00000  Uiso   1.00
C660   C     0.57218   0.74345   0.92731   0.00000  Uiso   1.00
C661   C     0.59465   0.79941   0.88683   0.00000  Uiso   1.00
C662   C     0.59494   0.52717   0.95463   0.00000  Uiso   1.00
C663   C     0.55552   0.46764   0.94515   0.00000  Uiso   1.00
C664   C     0.57037   0.39747   0.91283   0.00000  Uiso   1.00
C665   C     0.62961   0.60858   0.03888   0.00000  Uiso   1.00
C666   C     0.61933   0.61748   0.10023   0.00000  Uiso   1.00
C667   C     0.66337   0.61582   0.13884   0.00000  Uiso   1.00
H668   H     0.72475   0.58183   0.93106   0.00000  Uiso   1.00
H669   H     0.71947   0.71477   0.86542   0.00000  Uiso   1.00
H670   H     0.70282   0.43900   0.88327   0.00000  Uiso   1.00
H671   H     0.76662   0.58881   0.03832   0.00000  Uiso   1.00
H672   H     0.69050   0.86663   0.80235   0.00000  Uiso   1.00
H673   H     0.65539   0.28515   0.83999   0.00000  Uiso   1.00
H674   H     0.78993   0.60105   0.16695   0.00000  Uiso   1.00
H675   H     0.54668   0.61648   0.00589   0.00000  Uiso   1.00
H676   H     0.53163   0.75132   0.94436   0.00000  Uiso   1.00
H677   H     0.51498   0.47555   0.96221   0.00000  Uiso   1.00
H678   H     0.57878   0.62536   0.11726   0.00000  Uiso   1.00
H679   H     0.53804   0.89630   0.86642   0.00000  Uiso   1.00
H680   H     0.50293   0.31481   0.90406   0.00000  Uiso   1.00
H681   H     0.63747   0.63072   0.23102   0.00000  Uiso   1.00
O682   O     0.60757   0.96953   0.79254   0.00000  Uiso   1.00
O683   O     0.56152   0.20664   0.84194   0.00000  Uiso   1.00
O684   O     0.73803   0.62111   0.27090   0.00000  Uiso   1.00
N685   N     0.65669   0.85512   0.82588   0.00000  Uiso   1.00
N686   N     0.62386   0.31147   0.86106   0.00000  Uiso   1.00
N687   N     0.74964   0.60679   0.16674   0.00000  Uiso   1.00
N688   N     0.57465   0.87108   0.86035   0.00000  Uiso   1.00
N689   N     0.54182   0.32744   0.89554   0.00000  Uiso   1.00
N690   N     0.66760   0.62276   0.20122   0.00000  Uiso   1.00
C691   C     0.68008   0.90742   0.62201   0.00000  Uiso   1.00
C692   C     0.65104   0.83182   0.64751   0.00000  Uiso   1.00
C693   C     0.67273   0.77450   0.68748   0.00000  Uiso   1.00
C694   C     0.63964   0.70969   0.70547   0.00000  Uiso   1.00
C695   C     0.60258   0.59342   0.74832   0.00000  Uiso   1.00
C696   C     0.64538   0.98210   0.63835   0.00000  Uiso   1.00
C697   C     0.66231   0.05115   0.67062   0.00000  Uiso   1.00
C698   C     0.62445   0.11286   0.68090   0.00000  Uiso   1.00
C699   C     0.57862   0.22993   0.70950   0.00000  Uiso   1.00
C700   C     0.67711   0.89931   0.55338   0.00000  Uiso   1.00
C701   C     0.72072   0.89876   0.51419   0.00000  Uiso   1.00
C702   C     0.70958   0.89078   0.45292   0.00000  Uiso   1.00
C703   C     0.71302   0.87929   0.34958   0.00000  Uiso   1.00
C704   C     0.58275   0.89423   0.58290   0.00000  Uiso   1.00
C705   C     0.59818   0.82466   0.62626   0.00000  Uiso   1.00
C706   C     0.56504   0.75992   0.64420   0.00000  Uiso   1.00
C707   C     0.58668   0.70252   0.68419   0.00000  Uiso   1.00
C708   C     0.59252   0.97495   0.61711   0.00000  Uiso   1.00
C709   C     0.55463   0.03657   0.62734   0.00000  Uiso   1.00
C710   C     0.57149   0.10569   0.65962   0.00000  Uiso   1.00
C711   C     0.62425   0.89214   0.53213   0.00000  Uiso   1.00
C712   C     0.61304   0.88417   0.47091   0.00000  Uiso   1.00
C713   C     0.65662   0.88360   0.43164   0.00000  Uiso   1.00
H714   H     0.72123   0.91300   0.63855   0.00000  Uiso   1.00
H715   H     0.71364   0.78007   0.70391   0.00000  Uiso   1.00
H716   H     0.70322   0.05668   0.68705   0.00000  Uiso   1.00
H717   H     0.76162   0.90431   0.53065   0.00000  Uiso   1.00
H718   H     0.68190   0.62956   0.76702   0.00000  Uiso   1.00
H719   H     0.65994   0.21281   0.73145   0.00000  Uiso   1.00
H720   H     0.78309   0.89150   0.40164   0.00000  Uiso   1.00
H721   H     0.54159   0.88866   0.56635   0.00000  Uiso   1.00
H722   H     0.52414   0.75439   0.62775   0.00000  Uiso   1.00
H723   H     0.51372   0.03100   0.61089   0.00000  Uiso   1.00
H724   H     0.57212   0.87863   0.45449   0.00000  Uiso   1.00
H725   H     0.52809   0.60871   0.70521   0.00000  Uiso   1.00
H726   H     0.50613   0.19198   0.66964   0.00000  Uiso   1.00
H727   H     0.62929   0.87066   0.33982   0.00000  Uiso   1.00
O728   O     0.59675   0.53126   0.77782   0.00000  Uiso   1.00
O729   O     0.56794   0.29648   0.73114   0.00000  Uiso   1.00
O730   O     0.72952   0.87493   0.29844   0.00000  Uiso   1.00
N731   N     0.64810   0.64307   0.74404   0.00000  Uiso   1.00
N732   N     0.62756   0.18837   0.71079   0.00000  Uiso   1.00
N733   N     0.74270   0.88800   0.40244   0.00000  Uiso   1.00
N734   N     0.56533   0.63185   0.71078   0.00000  Uiso   1.00
N735   N     0.54480   0.17716   0.67753   0.00000  Uiso   1.00
N736   N     0.65994   0.87678   0.36918   0.00000  Uiso   1.00
