data_job_00701
_audit_creation_date              2018-12-19
_audit_creation_method            'Materials Studio'
_symmetry_space_group_name_H-M    'P1'
_symmetry_Int_Tables_number       1
_symmetry_cell_setting            triclinic
loop_
_symmetry_equiv_pos_as_xyz
  x,y,z
_cell_length_a                    12.3810
_cell_length_b                    12.3810
_cell_length_c                    67.2195
_cell_angle_alpha                 90.0000
_cell_angle_beta                  90.0000
_cell_angle_gamma                 90.0000
loop_
_atom_site_label
_atom_site_type_symbol
_atom_site_fract_x
_atom_site_fract_y
_atom_site_fract_z
_atom_site_U_iso_or_equiv
_atom_site_adp_type
_atom_site_occupancy
C1     C     0.95494   0.56921   0.55860   0.00000  Uiso   1.00
C2     C     0.98980   0.64333   0.57555   0.00000  Uiso   1.00
C3     C     0.99205   0.75534   0.57491   0.00000  Uiso   1.00
C4     C     0.02649   0.80842   0.59196   0.00000  Uiso   1.00
C5     C     0.07595   0.93218   0.61567   0.00000  Uiso   1.00
C6     C     0.04981   0.49335   0.55485   0.00000  Uiso   1.00
C7     C     0.10249   0.47925   0.53681   0.00000  Uiso   1.00
C8     C     0.18744   0.40607   0.53644   0.00000  Uiso   1.00
C9     C     0.33001   0.29692   0.52801   0.00000  Uiso   1.00
C10    C     0.86440   0.49905   0.56694   0.00000  Uiso   1.00
C11    C     0.76120   0.48972   0.55907   0.00000  Uiso   1.00
C12    C     0.69006   0.42131   0.56888   0.00000  Uiso   1.00
C13    C     0.54476   0.32102   0.57923   0.00000  Uiso   1.00
C14    C     0.01212   0.46429   0.59002   0.00000  Uiso   1.00
C15    C     0.02086   0.58634   0.59261   0.00000  Uiso   1.00
C16    C     0.05531   0.63926   0.60967   0.00000  Uiso   1.00
C17    C     0.05760   0.75134   0.60906   0.00000  Uiso   1.00
C18    C     0.08087   0.43636   0.57191   0.00000  Uiso   1.00
C19    C     0.16575   0.36318   0.57157   0.00000  Uiso   1.00
C20    C     0.21856   0.34898   0.55353   0.00000  Uiso   1.00
C21    C     0.89546   0.44206   0.58401   0.00000  Uiso   1.00
C22    C     0.82446   0.37365   0.59383   0.00000  Uiso   1.00
C23    C     0.72117   0.36422   0.58597   0.00000  Uiso   1.00
H24    H     0.93077   0.61357   0.54532   0.00000  Uiso   1.00
H25    H     0.96801   0.79941   0.56170   0.00000  Uiso   1.00
H26    H     0.07843   0.52336   0.52361   0.00000  Uiso   1.00
H27    H     0.73720   0.53383   0.54587   0.00000  Uiso   1.00
H28    H     0.02304   0.98032   0.58739   0.00000  Uiso   1.00
H29    H     0.25585   0.39822   0.50706   0.00000  Uiso   1.00
H30    H     0.53628   0.42030   0.55400   0.00000  Uiso   1.00
H31    H     0.03630   0.41992   0.60330   0.00000  Uiso   1.00
H32    H     0.07934   0.59514   0.62287   0.00000  Uiso   1.00
H33    H     0.18976   0.31909   0.58477   0.00000  Uiso   1.00
H34    H     0.84852   0.32956   0.60703   0.00000  Uiso   1.00
H35    H     0.11340   0.81453   0.63703   0.00000  Uiso   1.00
H36    H     0.34621   0.23242   0.55671   0.00000  Uiso   1.00
H37    H     0.62664   0.25451   0.60364   0.00000  Uiso   1.00
O38    O     0.09467   0.01618   0.62403   0.00000  Uiso   1.00
O39    O     0.40008   0.25248   0.51865   0.00000  Uiso   1.00
O40    O     0.45603   0.28145   0.58022   0.00000  Uiso   1.00
N41    N     0.03838   0.91726   0.59639   0.00000  Uiso   1.00
N42    N     0.25605   0.37304   0.52129   0.00000  Uiso   1.00
N43    N     0.58333   0.39366   0.56517   0.00000  Uiso   1.00
N44    N     0.08700   0.82805   0.62310   0.00000  Uiso   1.00
N45    N     0.30467   0.28383   0.54801   0.00000  Uiso   1.00
N46    N     0.63195   0.30445   0.59188   0.00000  Uiso   1.00
C47    C     0.31720   0.06264   0.80689   0.00000  Uiso   1.00
C48    C     0.24360   0.09653   0.82397   0.00000  Uiso   1.00
C49    C     0.13161   0.10005   0.82338   0.00000  Uiso   1.00
C50    C     0.07904   0.13328   0.84056   0.00000  Uiso   1.00
C51    C     0.95602   0.18159   0.86448   0.00000  Uiso   1.00
C52    C     0.39406   0.15706   0.80345   0.00000  Uiso   1.00
C53    C     0.40859   0.21146   0.78559   0.00000  Uiso   1.00
C54    C     0.48269   0.29564   0.78550   0.00000  Uiso   1.00
C55    C     0.59332   0.43787   0.77755   0.00000  Uiso   1.00
C56    C     0.38644   0.97049   0.81488   0.00000  Uiso   1.00
C57    C     0.39458   0.86804   0.80664   0.00000  Uiso   1.00
C58    C     0.46229   0.79514   0.81618   0.00000  Uiso   1.00
C59    C     0.56108   0.64770   0.82598   0.00000  Uiso   1.00
C60    C     0.42298   0.11538   0.83847   0.00000  Uiso   1.00
C61    C     0.30106   0.12517   0.84112   0.00000  Uiso   1.00
C62    C     0.24864   0.15840   0.85832   0.00000  Uiso   1.00
C63    C     0.13660   0.16197   0.85775   0.00000  Uiso   1.00
C64    C     0.45152   0.18570   0.82060   0.00000  Uiso   1.00
C65    C     0.52562   0.26981   0.82053   0.00000  Uiso   1.00
C66    C     0.54025   0.32433   0.80269   0.00000  Uiso   1.00
C67    C     0.44389   0.99913   0.83204   0.00000  Uiso   1.00
C68    C     0.51161   0.92639   0.84158   0.00000  Uiso   1.00
C69    C     0.51984   0.82384   0.83336   0.00000  Uiso   1.00
H70    H     0.27248   0.04035   0.79353   0.00000  Uiso   1.00
H71    H     0.08718   0.07789   0.81010   0.00000  Uiso   1.00
H72    H     0.36412   0.18927   0.77232   0.00000  Uiso   1.00
H73    H     0.35011   0.84590   0.79337   0.00000  Uiso   1.00
H74    H     0.90708   0.13218   0.83603   0.00000  Uiso   1.00
H75    H     0.49106   0.36701   0.75637   0.00000  Uiso   1.00
H76    H     0.46151   0.64295   0.80075   0.00000  Uiso   1.00
H77    H     0.46772   0.13768   0.85182   0.00000  Uiso   1.00
H78    H     0.29312   0.18056   0.87159   0.00000  Uiso   1.00
H79    H     0.57007   0.29195   0.83381   0.00000  Uiso   1.00
H80    H     0.55605   0.94858   0.85486   0.00000  Uiso   1.00
H81    H     0.07423   0.21552   0.88594   0.00000  Uiso   1.00
H82    H     0.65821   0.45035   0.80628   0.00000  Uiso   1.00
H83    H     0.62866   0.72629   0.85066   0.00000  Uiso   1.00
O84    O     0.87229   0.20034   0.87293   0.00000  Uiso   1.00
O85    O     0.63845   0.50842   0.76843   0.00000  Uiso   1.00
O86    O     0.59968   0.55846   0.82665   0.00000  Uiso   1.00
N87    N     0.97038   0.14589   0.84507   0.00000  Uiso   1.00
N88    N     0.51635   0.36546   0.77059   0.00000  Uiso   1.00
N89    N     0.48875   0.68853   0.81208   0.00000  Uiso   1.00
N90    N     0.06032   0.19073   0.87192   0.00000  Uiso   1.00
N91    N     0.60629   0.41030   0.79744   0.00000  Uiso   1.00
N92    N     0.57869   0.73337   0.83893   0.00000  Uiso   1.00
C93    C     0.04506   0.43079   0.05860   0.00000  Uiso   1.00
C94    C     0.01020   0.35667   0.07555   0.00000  Uiso   1.00
C95    C     0.00795   0.24466   0.07491   0.00000  Uiso   1.00
C96    C     0.97351   0.19158   0.09196   0.00000  Uiso   1.00
C97    C     0.92405   0.06782   0.11567   0.00000  Uiso   1.00
C98    C     0.95019   0.50665   0.05485   0.00000  Uiso   1.00
C99    C     0.89751   0.52075   0.03681   0.00000  Uiso   1.00
C100   C     0.81256   0.59393   0.03644   0.00000  Uiso   1.00
C101   C     0.66999   0.70308   0.02801   0.00000  Uiso   1.00
C102   C     0.13560   0.50095   0.06694   0.00000  Uiso   1.00
C103   C     0.23880   0.51028   0.05907   0.00000  Uiso   1.00
C104   C     0.30994   0.57869   0.06888   0.00000  Uiso   1.00
C105   C     0.45524   0.67898   0.07923   0.00000  Uiso   1.00
C106   C     0.98788   0.53571   0.09002   0.00000  Uiso   1.00
C107   C     0.97914   0.41366   0.09261   0.00000  Uiso   1.00
C108   C     0.94469   0.36074   0.10967   0.00000  Uiso   1.00
C109   C     0.94240   0.24866   0.10906   0.00000  Uiso   1.00
C110   C     0.91913   0.56364   0.07191   0.00000  Uiso   1.00
C111   C     0.83425   0.63682   0.07157   0.00000  Uiso   1.00
C112   C     0.78144   0.65102   0.05353   0.00000  Uiso   1.00
C113   C     0.10454   0.55794   0.08401   0.00000  Uiso   1.00
C114   C     0.17554   0.62635   0.09383   0.00000  Uiso   1.00
C115   C     0.27883   0.63578   0.08597   0.00000  Uiso   1.00
H116   H     0.06923   0.38643   0.04532   0.00000  Uiso   1.00
H117   H     0.03199   0.20059   0.06170   0.00000  Uiso   1.00
H118   H     0.92157   0.47664   0.02361   0.00000  Uiso   1.00
H119   H     0.26280   0.46617   0.04587   0.00000  Uiso   1.00
H120   H     0.97696   0.01968   0.08739   0.00000  Uiso   1.00
H121   H     0.74415   0.60178   0.00706   0.00000  Uiso   1.00
H122   H     0.46372   0.57970   0.05400   0.00000  Uiso   1.00
H123   H     0.96370   0.58008   0.10330   0.00000  Uiso   1.00
H124   H     0.92066   0.40486   0.12287   0.00000  Uiso   1.00
H125   H     0.81024   0.68091   0.08477   0.00000  Uiso   1.00
H126   H     0.15148   0.67044   0.10703   0.00000  Uiso   1.00
H127   H     0.88660   0.18547   0.13703   0.00000  Uiso   1.00
H128   H     0.65379   0.76758   0.05671   0.00000  Uiso   1.00
H129   H     0.37336   0.74549   0.10364   0.00000  Uiso   1.00
O130   O     0.90533   0.98382   0.12403   0.00000  Uiso   1.00
O131   O     0.59992   0.74752   0.01865   0.00000  Uiso   1.00
O132   O     0.54397   0.71855   0.08022   0.00000  Uiso   1.00
N133   N     0.96162   0.08274   0.09639   0.00000  Uiso   1.00
N134   N     0.74395   0.62696   0.02129   0.00000  Uiso   1.00
N135   N     0.41667   0.60634   0.06517   0.00000  Uiso   1.00
N136   N     0.91300   0.17195   0.12310   0.00000  Uiso   1.00
N137   N     0.69533   0.71617   0.04801   0.00000  Uiso   1.00
N138   N     0.36805   0.69555   0.09188   0.00000  Uiso   1.00
C139   C     0.68280   0.93736   0.30689   0.00000  Uiso   1.00
C140   C     0.75640   0.90347   0.32397   0.00000  Uiso   1.00
C141   C     0.86839   0.89995   0.32338   0.00000  Uiso   1.00
C142   C     0.92096   0.86672   0.34056   0.00000  Uiso   1.00
C143   C     0.04398   0.81841   0.36448   0.00000  Uiso   1.00
C144   C     0.60594   0.84294   0.30345   0.00000  Uiso   1.00
C145   C     0.59141   0.78854   0.28559   0.00000  Uiso   1.00
C146   C     0.51731   0.70436   0.28550   0.00000  Uiso   1.00
C147   C     0.40668   0.56213   0.27755   0.00000  Uiso   1.00
C148   C     0.61356   0.02951   0.31488   0.00000  Uiso   1.00
C149   C     0.60542   0.13196   0.30664   0.00000  Uiso   1.00
C150   C     0.53771   0.20486   0.31618   0.00000  Uiso   1.00
C151   C     0.43892   0.35230   0.32598   0.00000  Uiso   1.00
C152   C     0.57702   0.88462   0.33847   0.00000  Uiso   1.00
C153   C     0.69894   0.87483   0.34112   0.00000  Uiso   1.00
C154   C     0.75136   0.84160   0.35832   0.00000  Uiso   1.00
C155   C     0.86340   0.83803   0.35775   0.00000  Uiso   1.00
C156   C     0.54848   0.81430   0.32060   0.00000  Uiso   1.00
C157   C     0.47438   0.73019   0.32053   0.00000  Uiso   1.00
C158   C     0.45975   0.67567   0.30269   0.00000  Uiso   1.00
C159   C     0.55611   0.00087   0.33204   0.00000  Uiso   1.00
C160   C     0.48839   0.07361   0.34158   0.00000  Uiso   1.00
C161   C     0.48016   0.17616   0.33336   0.00000  Uiso   1.00
H162   H     0.72752   0.95965   0.29353   0.00000  Uiso   1.00
H163   H     0.91282   0.92211   0.31010   0.00000  Uiso   1.00
H164   H     0.63588   0.81073   0.27232   0.00000  Uiso   1.00
H165   H     0.64989   0.15410   0.29337   0.00000  Uiso   1.00
H166   H     0.09292   0.86782   0.33603   0.00000  Uiso   1.00
H167   H     0.50894   0.63299   0.25637   0.00000  Uiso   1.00
H168   H     0.53849   0.35705   0.30075   0.00000  Uiso   1.00
H169   H     0.53228   0.86232   0.35182   0.00000  Uiso   1.00
H170   H     0.70688   0.81944   0.37159   0.00000  Uiso   1.00
H171   H     0.42993   0.70805   0.33381   0.00000  Uiso   1.00
H172   H     0.44395   0.05142   0.35486   0.00000  Uiso   1.00
H173   H     0.92577   0.78448   0.38594   0.00000  Uiso   1.00
H174   H     0.34179   0.54965   0.30628   0.00000  Uiso   1.00
H175   H     0.37134   0.27371   0.35066   0.00000  Uiso   1.00
O176   O     0.12771   0.79966   0.37293   0.00000  Uiso   1.00
O177   O     0.36155   0.49158   0.26843   0.00000  Uiso   1.00
O178   O     0.40032   0.44154   0.32665   0.00000  Uiso   1.00
N179   N     0.02962   0.85411   0.34507   0.00000  Uiso   1.00
N180   N     0.48365   0.63454   0.27059   0.00000  Uiso   1.00
N181   N     0.51125   0.31147   0.31208   0.00000  Uiso   1.00
N182   N     0.93968   0.80927   0.37192   0.00000  Uiso   1.00
N183   N     0.39371   0.58970   0.29744   0.00000  Uiso   1.00
N184   N     0.42131   0.26663   0.33893   0.00000  Uiso   1.00
C185   C     0.93079   0.45494   0.30860   0.00000  Uiso   1.00
C186   C     0.85667   0.48980   0.32555   0.00000  Uiso   1.00
C187   C     0.74466   0.49205   0.32491   0.00000  Uiso   1.00
C188   C     0.69158   0.52649   0.34196   0.00000  Uiso   1.00
C189   C     0.56782   0.57595   0.36567   0.00000  Uiso   1.00
C190   C     0.00665   0.54981   0.30485   0.00000  Uiso   1.00
C191   C     0.02075   0.60249   0.28681   0.00000  Uiso   1.00
C192   C     0.09393   0.68744   0.28644   0.00000  Uiso   1.00
C193   C     0.20308   0.83001   0.27801   0.00000  Uiso   1.00
C194   C     0.00095   0.36440   0.31694   0.00000  Uiso   1.00
C195   C     0.01028   0.26120   0.30907   0.00000  Uiso   1.00
C196   C     0.07869   0.19006   0.31888   0.00000  Uiso   1.00
C197   C     0.17898   0.04476   0.32923   0.00000  Uiso   1.00
C198   C     0.03571   0.51212   0.34002   0.00000  Uiso   1.00
C199   C     0.91366   0.52086   0.34261   0.00000  Uiso   1.00
C200   C     0.86074   0.55531   0.35967   0.00000  Uiso   1.00
C201   C     0.74866   0.55760   0.35906   0.00000  Uiso   1.00
C202   C     0.06364   0.58087   0.32191   0.00000  Uiso   1.00
C203   C     0.13682   0.66575   0.32157   0.00000  Uiso   1.00
C204   C     0.15102   0.71856   0.30353   0.00000  Uiso   1.00
C205   C     0.05794   0.39546   0.33401   0.00000  Uiso   1.00
C206   C     0.12635   0.32446   0.34383   0.00000  Uiso   1.00
C207   C     0.13578   0.22117   0.33597   0.00000  Uiso   1.00
H208   H     0.88643   0.43077   0.29532   0.00000  Uiso   1.00
H209   H     0.70059   0.46801   0.31170   0.00000  Uiso   1.00
H210   H     0.97664   0.57843   0.27361   0.00000  Uiso   1.00
H211   H     0.96617   0.23720   0.29587   0.00000  Uiso   1.00
H212   H     0.51968   0.52304   0.33739   0.00000  Uiso   1.00
H213   H     0.10178   0.75585   0.25706   0.00000  Uiso   1.00
H214   H     0.07970   0.03628   0.30400   0.00000  Uiso   1.00
H215   H     0.08008   0.53630   0.35330   0.00000  Uiso   1.00
H216   H     0.90486   0.57934   0.37287   0.00000  Uiso   1.00
H217   H     0.18091   0.68976   0.33477   0.00000  Uiso   1.00
H218   H     0.17044   0.34852   0.35703   0.00000  Uiso   1.00
H219   H     0.68547   0.61340   0.38703   0.00000  Uiso   1.00
H220   H     0.26758   0.84621   0.30671   0.00000  Uiso   1.00
H221   H     0.24549   0.12664   0.35364   0.00000  Uiso   1.00
O222   O     0.48382   0.59467   0.37403   0.00000  Uiso   1.00
O223   O     0.24752   0.90008   0.26865   0.00000  Uiso   1.00
O224   O     0.21855   0.95603   0.33022   0.00000  Uiso   1.00
N225   N     0.58274   0.53838   0.34639   0.00000  Uiso   1.00
N226   N     0.12696   0.75605   0.27129   0.00000  Uiso   1.00
N227   N     0.10634   0.08333   0.31517   0.00000  Uiso   1.00
N228   N     0.67195   0.58700   0.37310   0.00000  Uiso   1.00
N229   N     0.21617   0.80467   0.29801   0.00000  Uiso   1.00
N230   N     0.19555   0.13195   0.34188   0.00000  Uiso   1.00
C231   C     0.43736   0.81720   0.55689   0.00000  Uiso   1.00
C232   C     0.40347   0.74360   0.57397   0.00000  Uiso   1.00
C233   C     0.39995   0.63161   0.57338   0.00000  Uiso   1.00
C234   C     0.36672   0.57904   0.59056   0.00000  Uiso   1.00
C235   C     0.31841   0.45602   0.61448   0.00000  Uiso   1.00
C236   C     0.34294   0.89406   0.55345   0.00000  Uiso   1.00
C237   C     0.28854   0.90859   0.53559   0.00000  Uiso   1.00
C238   C     0.20436   0.98269   0.53550   0.00000  Uiso   1.00
C239   C     0.06213   0.09332   0.52755   0.00000  Uiso   1.00
C240   C     0.52951   0.88644   0.56488   0.00000  Uiso   1.00
C241   C     0.63196   0.89458   0.55664   0.00000  Uiso   1.00
C242   C     0.70486   0.96229   0.56618   0.00000  Uiso   1.00
C243   C     0.85230   0.06108   0.57598   0.00000  Uiso   1.00
C244   C     0.38462   0.92298   0.58847   0.00000  Uiso   1.00
C245   C     0.37483   0.80106   0.59112   0.00000  Uiso   1.00
C246   C     0.34160   0.74864   0.60832   0.00000  Uiso   1.00
C247   C     0.33803   0.63660   0.60775   0.00000  Uiso   1.00
C248   C     0.31430   0.95152   0.57060   0.00000  Uiso   1.00
C249   C     0.23019   0.02562   0.57053   0.00000  Uiso   1.00
C250   C     0.17567   0.04025   0.55269   0.00000  Uiso   1.00
C251   C     0.50087   0.94389   0.58204   0.00000  Uiso   1.00
C252   C     0.57361   0.01161   0.59158   0.00000  Uiso   1.00
C253   C     0.67616   0.01984   0.58336   0.00000  Uiso   1.00
H254   H     0.45965   0.77248   0.54353   0.00000  Uiso   1.00
H255   H     0.42211   0.58718   0.56010   0.00000  Uiso   1.00
H256   H     0.31073   0.86412   0.52232   0.00000  Uiso   1.00
H257   H     0.65410   0.85011   0.54337   0.00000  Uiso   1.00
H258   H     0.36782   0.40708   0.58603   0.00000  Uiso   1.00
H259   H     0.13299   0.99106   0.50637   0.00000  Uiso   1.00
H260   H     0.85705   0.96151   0.55075   0.00000  Uiso   1.00
H261   H     0.36232   0.96772   0.60182   0.00000  Uiso   1.00
H262   H     0.31944   0.79312   0.62159   0.00000  Uiso   1.00
H263   H     0.20805   0.07007   0.58381   0.00000  Uiso   1.00
H264   H     0.55142   0.05605   0.60486   0.00000  Uiso   1.00
H265   H     0.28448   0.57423   0.63594   0.00000  Uiso   1.00
H266   H     0.04965   0.15821   0.55628   0.00000  Uiso   1.00
H267   H     0.77371   0.12866   0.60066   0.00000  Uiso   1.00
O268   O     0.29966   0.37229   0.62293   0.00000  Uiso   1.00
O269   O     0.99158   0.13845   0.51843   0.00000  Uiso   1.00
O270   O     0.94154   0.09968   0.57665   0.00000  Uiso   1.00
N271   N     0.35411   0.47038   0.59507   0.00000  Uiso   1.00
N272   N     0.13454   0.01635   0.52059   0.00000  Uiso   1.00
N273   N     0.81147   0.98875   0.56208   0.00000  Uiso   1.00
N274   N     0.30927   0.56032   0.62192   0.00000  Uiso   1.00
N275   N     0.08970   0.10629   0.54744   0.00000  Uiso   1.00
N276   N     0.76663   0.07869   0.58893   0.00000  Uiso   1.00
C277   C     0.06921   0.54506   0.80860   0.00000  Uiso   1.00
C278   C     0.14333   0.51020   0.82555   0.00000  Uiso   1.00
C279   C     0.25534   0.50795   0.82491   0.00000  Uiso   1.00
C280   C     0.30842   0.47351   0.84196   0.00000  Uiso   1.00
C281   C     0.43218   0.42405   0.86567   0.00000  Uiso   1.00
C282   C     0.99335   0.45019   0.80485   0.00000  Uiso   1.00
C283   C     0.97925   0.39751   0.78681   0.00000  Uiso   1.00
C284   C     0.90607   0.31256   0.78644   0.00000  Uiso   1.00
C285   C     0.79692   0.16999   0.77801   0.00000  Uiso   1.00
C286   C     0.99905   0.63560   0.81694   0.00000  Uiso   1.00
C287   C     0.98972   0.73880   0.80907   0.00000  Uiso   1.00
C288   C     0.92131   0.80994   0.81888   0.00000  Uiso   1.00
C289   C     0.82102   0.95524   0.82923   0.00000  Uiso   1.00
C290   C     0.96429   0.48788   0.84002   0.00000  Uiso   1.00
C291   C     0.08634   0.47914   0.84261   0.00000  Uiso   1.00
C292   C     0.13926   0.44469   0.85967   0.00000  Uiso   1.00
C293   C     0.25134   0.44240   0.85906   0.00000  Uiso   1.00
C294   C     0.93636   0.41913   0.82191   0.00000  Uiso   1.00
C295   C     0.86318   0.33425   0.82157   0.00000  Uiso   1.00
C296   C     0.84898   0.28144   0.80353   0.00000  Uiso   1.00
C297   C     0.94206   0.60454   0.83401   0.00000  Uiso   1.00
C298   C     0.87365   0.67554   0.84383   0.00000  Uiso   1.00
C299   C     0.86422   0.77883   0.83597   0.00000  Uiso   1.00
H300   H     0.11357   0.56923   0.79532   0.00000  Uiso   1.00
H301   H     0.29941   0.53199   0.81170   0.00000  Uiso   1.00
H302   H     0.02336   0.42157   0.77361   0.00000  Uiso   1.00
H303   H     0.03383   0.76280   0.79587   0.00000  Uiso   1.00
H304   H     0.48032   0.47696   0.83739   0.00000  Uiso   1.00
H305   H     0.89822   0.24415   0.75706   0.00000  Uiso   1.00
H306   H     0.92030   0.96372   0.80400   0.00000  Uiso   1.00
H307   H     0.91992   0.46370   0.85330   0.00000  Uiso   1.00
H308   H     0.09514   0.42066   0.87287   0.00000  Uiso   1.00
H309   H     0.81909   0.31024   0.83477   0.00000  Uiso   1.00
H310   H     0.82956   0.65148   0.85703   0.00000  Uiso   1.00
H311   H     0.31453   0.38660   0.88703   0.00000  Uiso   1.00
H312   H     0.73242   0.15379   0.80671   0.00000  Uiso   1.00
H313   H     0.75451   0.87336   0.85364   0.00000  Uiso   1.00
O314   O     0.51618   0.40533   0.87403   0.00000  Uiso   1.00
O315   O     0.75248   0.09992   0.76865   0.00000  Uiso   1.00
O316   O     0.78145   0.04397   0.83022   0.00000  Uiso   1.00
N317   N     0.41726   0.46162   0.84639   0.00000  Uiso   1.00
N318   N     0.87304   0.24395   0.77129   0.00000  Uiso   1.00
N319   N     0.89366   0.91667   0.81517   0.00000  Uiso   1.00
N320   N     0.32805   0.41300   0.87310   0.00000  Uiso   1.00
N321   N     0.78383   0.19533   0.79801   0.00000  Uiso   1.00
N322   N     0.80445   0.86805   0.84188   0.00000  Uiso   1.00
C323   C     0.56264   0.18280   0.05689   0.00000  Uiso   1.00
C324   C     0.59653   0.25640   0.07397   0.00000  Uiso   1.00
C325   C     0.60005   0.36839   0.07338   0.00000  Uiso   1.00
C326   C     0.63328   0.42096   0.09056   0.00000  Uiso   1.00
C327   C     0.68159   0.54398   0.11448   0.00000  Uiso   1.00
C328   C     0.65706   0.10594   0.05345   0.00000  Uiso   1.00
C329   C     0.71146   0.09141   0.03559   0.00000  Uiso   1.00
C330   C     0.79564   0.01731   0.03550   0.00000  Uiso   1.00
C331   C     0.93787   0.90668   0.02755   0.00000  Uiso   1.00
C332   C     0.47049   0.11356   0.06488   0.00000  Uiso   1.00
C333   C     0.36804   0.10542   0.05664   0.00000  Uiso   1.00
C334   C     0.29514   0.03771   0.06618   0.00000  Uiso   1.00
C335   C     0.14770   0.93892   0.07598   0.00000  Uiso   1.00
C336   C     0.61538   0.07702   0.08847   0.00000  Uiso   1.00
C337   C     0.62517   0.19894   0.09112   0.00000  Uiso   1.00
C338   C     0.65840   0.25136   0.10832   0.00000  Uiso   1.00
C339   C     0.66197   0.36340   0.10775   0.00000  Uiso   1.00
C340   C     0.68570   0.04848   0.07060   0.00000  Uiso   1.00
C341   C     0.76981   0.97438   0.07053   0.00000  Uiso   1.00
C342   C     0.82433   0.95975   0.05269   0.00000  Uiso   1.00
C343   C     0.49913   0.05611   0.08204   0.00000  Uiso   1.00
C344   C     0.42639   0.98839   0.09158   0.00000  Uiso   1.00
C345   C     0.32384   0.98016   0.08336   0.00000  Uiso   1.00
H346   H     0.54035   0.22752   0.04353   0.00000  Uiso   1.00
H347   H     0.57789   0.41282   0.06010   0.00000  Uiso   1.00
H348   H     0.68927   0.13588   0.02232   0.00000  Uiso   1.00
H349   H     0.34590   0.14989   0.04337   0.00000  Uiso   1.00
H350   H     0.63218   0.59292   0.08603   0.00000  Uiso   1.00
H351   H     0.86701   0.00894   0.00637   0.00000  Uiso   1.00
H352   H     0.14295   0.03849   0.05075   0.00000  Uiso   1.00
H353   H     0.63768   0.03228   0.10182   0.00000  Uiso   1.00
H354   H     0.68056   0.20688   0.12159   0.00000  Uiso   1.00
H355   H     0.79195   0.92993   0.08381   0.00000  Uiso   1.00
H356   H     0.44858   0.94395   0.10486   0.00000  Uiso   1.00
H357   H     0.71552   0.42577   0.13594   0.00000  Uiso   1.00
H358   H     0.95035   0.84179   0.05628   0.00000  Uiso   1.00
H359   H     0.22629   0.87134   0.10066   0.00000  Uiso   1.00
O360   O     0.70034   0.62771   0.12293   0.00000  Uiso   1.00
O361   O     0.00842   0.86155   0.01843   0.00000  Uiso   1.00
O362   O     0.05846   0.90032   0.07665   0.00000  Uiso   1.00
N363   N     0.64589   0.52962   0.09507   0.00000  Uiso   1.00
N364   N     0.86546   0.98365   0.02059   0.00000  Uiso   1.00
N365   N     0.18853   0.01125   0.06208   0.00000  Uiso   1.00
N366   N     0.69073   0.43968   0.12192   0.00000  Uiso   1.00
N367   N     0.91030   0.89371   0.04744   0.00000  Uiso   1.00
N368   N     0.23337   0.92131   0.08893   0.00000  Uiso   1.00
C369   C     0.54506   0.06921   0.19140   0.00000  Uiso   1.00
C370   C     0.51020   0.14333   0.17445   0.00000  Uiso   1.00
C371   C     0.50795   0.25534   0.17509   0.00000  Uiso   1.00
C372   C     0.47351   0.30842   0.15804   0.00000  Uiso   1.00
C373   C     0.42405   0.43218   0.13433   0.00000  Uiso   1.00
C374   C     0.45019   0.99335   0.19515   0.00000  Uiso   1.00
C375   C     0.39751   0.97925   0.21319   0.00000  Uiso   1.00
C376   C     0.31256   0.90607   0.21356   0.00000  Uiso   1.00
C377   C     0.16999   0.79692   0.22199   0.00000  Uiso   1.00
C378   C     0.63560   0.99905   0.18306   0.00000  Uiso   1.00
C379   C     0.73880   0.98972   0.19093   0.00000  Uiso   1.00
C380   C     0.80994   0.92131   0.18112   0.00000  Uiso   1.00
C381   C     0.95524   0.82102   0.17077   0.00000  Uiso   1.00
C382   C     0.48788   0.96429   0.15998   0.00000  Uiso   1.00
C383   C     0.47914   0.08634   0.15739   0.00000  Uiso   1.00
C384   C     0.44469   0.13926   0.14033   0.00000  Uiso   1.00
C385   C     0.44240   0.25134   0.14094   0.00000  Uiso   1.00
C386   C     0.41913   0.93636   0.17809   0.00000  Uiso   1.00
C387   C     0.33425   0.86318   0.17843   0.00000  Uiso   1.00
C388   C     0.28144   0.84898   0.19647   0.00000  Uiso   1.00
C389   C     0.60454   0.94206   0.16599   0.00000  Uiso   1.00
C390   C     0.67554   0.87365   0.15617   0.00000  Uiso   1.00
C391   C     0.77883   0.86422   0.16403   0.00000  Uiso   1.00
H392   H     0.56923   0.11357   0.20468   0.00000  Uiso   1.00
H393   H     0.53199   0.29941   0.18830   0.00000  Uiso   1.00
H394   H     0.42157   0.02336   0.22639   0.00000  Uiso   1.00
H395   H     0.76280   0.03383   0.20413   0.00000  Uiso   1.00
H396   H     0.47696   0.48032   0.16261   0.00000  Uiso   1.00
H397   H     0.24415   0.89822   0.24294   0.00000  Uiso   1.00
H398   H     0.96372   0.92030   0.19600   0.00000  Uiso   1.00
H399   H     0.46370   0.91992   0.14670   0.00000  Uiso   1.00
H400   H     0.42066   0.09514   0.12713   0.00000  Uiso   1.00
H401   H     0.31024   0.81909   0.16523   0.00000  Uiso   1.00
H402   H     0.65148   0.82956   0.14297   0.00000  Uiso   1.00
H403   H     0.38660   0.31453   0.11297   0.00000  Uiso   1.00
H404   H     0.15379   0.73242   0.19329   0.00000  Uiso   1.00
H405   H     0.87336   0.75451   0.14636   0.00000  Uiso   1.00
O406   O     0.40533   0.51618   0.12597   0.00000  Uiso   1.00
O407   O     0.09992   0.75248   0.23135   0.00000  Uiso   1.00
O408   O     0.04397   0.78145   0.16978   0.00000  Uiso   1.00
N409   N     0.46162   0.41726   0.15361   0.00000  Uiso   1.00
N410   N     0.24395   0.87304   0.22871   0.00000  Uiso   1.00
N411   N     0.91667   0.89366   0.18483   0.00000  Uiso   1.00
N412   N     0.41300   0.32805   0.12690   0.00000  Uiso   1.00
N413   N     0.19533   0.78383   0.20199   0.00000  Uiso   1.00
N414   N     0.86805   0.80445   0.15812   0.00000  Uiso   1.00
C415   C     0.18280   0.56264   0.94311   0.00000  Uiso   1.00
C416   C     0.25640   0.59653   0.92603   0.00000  Uiso   1.00
C417   C     0.36839   0.60005   0.92662   0.00000  Uiso   1.00
C418   C     0.42096   0.63328   0.90944   0.00000  Uiso   1.00
C419   C     0.54398   0.68159   0.88552   0.00000  Uiso   1.00
C420   C     0.10594   0.65706   0.94655   0.00000  Uiso   1.00
C421   C     0.09141   0.71146   0.96441   0.00000  Uiso   1.00
C422   C     0.01731   0.79564   0.96450   0.00000  Uiso   1.00
C423   C     0.90668   0.93787   0.97245   0.00000  Uiso   1.00
C424   C     0.11356   0.47049   0.93512   0.00000  Uiso   1.00
C425   C     0.10542   0.36804   0.94336   0.00000  Uiso   1.00
C426   C     0.03771   0.29514   0.93382   0.00000  Uiso   1.00
C427   C     0.93892   0.14770   0.92402   0.00000  Uiso   1.00
C428   C     0.07702   0.61538   0.91153   0.00000  Uiso   1.00
C429   C     0.19894   0.62517   0.90888   0.00000  Uiso   1.00
C430   C     0.25136   0.65840   0.89168   0.00000  Uiso   1.00
C431   C     0.36340   0.66197   0.89225   0.00000  Uiso   1.00
C432   C     0.04848   0.68570   0.92940   0.00000  Uiso   1.00
C433   C     0.97438   0.76981   0.92947   0.00000  Uiso   1.00
C434   C     0.95975   0.82433   0.94731   0.00000  Uiso   1.00
C435   C     0.05611   0.49913   0.91796   0.00000  Uiso   1.00
C436   C     0.98839   0.42639   0.90842   0.00000  Uiso   1.00
C437   C     0.98016   0.32384   0.91664   0.00000  Uiso   1.00
H438   H     0.22752   0.54035   0.95647   0.00000  Uiso   1.00
H439   H     0.41282   0.57789   0.93990   0.00000  Uiso   1.00
H440   H     0.13588   0.68927   0.97768   0.00000  Uiso   1.00
H441   H     0.14989   0.34590   0.95663   0.00000  Uiso   1.00
H442   H     0.59292   0.63218   0.91397   0.00000  Uiso   1.00
H443   H     0.00894   0.86701   0.99363   0.00000  Uiso   1.00
H444   H     0.03849   0.14295   0.94925   0.00000  Uiso   1.00
H445   H     0.03228   0.63768   0.89818   0.00000  Uiso   1.00
H446   H     0.20688   0.68056   0.87841   0.00000  Uiso   1.00
H447   H     0.92993   0.79195   0.91619   0.00000  Uiso   1.00
H448   H     0.94395   0.44858   0.89514   0.00000  Uiso   1.00
H449   H     0.42577   0.71552   0.86406   0.00000  Uiso   1.00
H450   H     0.84179   0.95035   0.94372   0.00000  Uiso   1.00
H451   H     0.87134   0.22629   0.89934   0.00000  Uiso   1.00
O452   O     0.62771   0.70034   0.87707   0.00000  Uiso   1.00
O453   O     0.86155   0.00842   0.98157   0.00000  Uiso   1.00
O454   O     0.90032   0.05846   0.92335   0.00000  Uiso   1.00
N455   N     0.52962   0.64589   0.90493   0.00000  Uiso   1.00
N456   N     0.98365   0.86546   0.97941   0.00000  Uiso   1.00
N457   N     0.01125   0.18853   0.93792   0.00000  Uiso   1.00
N458   N     0.43968   0.69073   0.87808   0.00000  Uiso   1.00
N459   N     0.89371   0.91030   0.95256   0.00000  Uiso   1.00
N460   N     0.92131   0.23337   0.91107   0.00000  Uiso   1.00
C461   C     0.45494   0.93079   0.69140   0.00000  Uiso   1.00
C462   C     0.48980   0.85667   0.67445   0.00000  Uiso   1.00
C463   C     0.49205   0.74466   0.67509   0.00000  Uiso   1.00
C464   C     0.52649   0.69158   0.65804   0.00000  Uiso   1.00
C465   C     0.57595   0.56782   0.63433   0.00000  Uiso   1.00
C466   C     0.54981   0.00665   0.69515   0.00000  Uiso   1.00
C467   C     0.60249   0.02075   0.71319   0.00000  Uiso   1.00
C468   C     0.68744   0.09393   0.71356   0.00000  Uiso   1.00
C469   C     0.83001   0.20308   0.72199   0.00000  Uiso   1.00
C470   C     0.36440   0.00095   0.68306   0.00000  Uiso   1.00
C471   C     0.26120   0.01028   0.69093   0.00000  Uiso   1.00
C472   C     0.19006   0.07869   0.68112   0.00000  Uiso   1.00
C473   C     0.04476   0.17898   0.67077   0.00000  Uiso   1.00
C474   C     0.51212   0.03571   0.65998   0.00000  Uiso   1.00
C475   C     0.52086   0.91366   0.65739   0.00000  Uiso   1.00
C476   C     0.55531   0.86074   0.64033   0.00000  Uiso   1.00
C477   C     0.55760   0.74866   0.64094   0.00000  Uiso   1.00
C478   C     0.58087   0.06364   0.67809   0.00000  Uiso   1.00
C479   C     0.66575   0.13682   0.67843   0.00000  Uiso   1.00
C480   C     0.71856   0.15102   0.69647   0.00000  Uiso   1.00
C481   C     0.39546   0.05794   0.66599   0.00000  Uiso   1.00
C482   C     0.32446   0.12635   0.65617   0.00000  Uiso   1.00
C483   C     0.22117   0.13578   0.66403   0.00000  Uiso   1.00
H484   H     0.43077   0.88643   0.70468   0.00000  Uiso   1.00
H485   H     0.46801   0.70059   0.68830   0.00000  Uiso   1.00
H486   H     0.57843   0.97664   0.72639   0.00000  Uiso   1.00
H487   H     0.23720   0.96617   0.70413   0.00000  Uiso   1.00
H488   H     0.52304   0.51968   0.66261   0.00000  Uiso   1.00
H489   H     0.75585   0.10178   0.74294   0.00000  Uiso   1.00
H490   H     0.03628   0.07970   0.69600   0.00000  Uiso   1.00
H491   H     0.53630   0.08008   0.64670   0.00000  Uiso   1.00
H492   H     0.57934   0.90486   0.62713   0.00000  Uiso   1.00
H493   H     0.68976   0.18091   0.66523   0.00000  Uiso   1.00
H494   H     0.34852   0.17044   0.64297   0.00000  Uiso   1.00
H495   H     0.61340   0.68547   0.61297   0.00000  Uiso   1.00
H496   H     0.84621   0.26758   0.69329   0.00000  Uiso   1.00
H497   H     0.12664   0.24549   0.64636   0.00000  Uiso   1.00
O498   O     0.59467   0.48382   0.62597   0.00000  Uiso   1.00
O499   O     0.90008   0.24752   0.73135   0.00000  Uiso   1.00
O500   O     0.95603   0.21855   0.66978   0.00000  Uiso   1.00
N501   N     0.53838   0.58274   0.65361   0.00000  Uiso   1.00
N502   N     0.75605   0.12696   0.72871   0.00000  Uiso   1.00
N503   N     0.08333   0.10634   0.68483   0.00000  Uiso   1.00
N504   N     0.58700   0.67195   0.62690   0.00000  Uiso   1.00
N505   N     0.80467   0.21617   0.70199   0.00000  Uiso   1.00
N506   N     0.13195   0.19555   0.65812   0.00000  Uiso   1.00
C507   C     0.81720   0.43736   0.44311   0.00000  Uiso   1.00
C508   C     0.74360   0.40347   0.42603   0.00000  Uiso   1.00
C509   C     0.63161   0.39995   0.42662   0.00000  Uiso   1.00
C510   C     0.57904   0.36672   0.40944   0.00000  Uiso   1.00
C511   C     0.45602   0.31841   0.38552   0.00000  Uiso   1.00
C512   C     0.89406   0.34294   0.44655   0.00000  Uiso   1.00
C513   C     0.90859   0.28854   0.46441   0.00000  Uiso   1.00
C514   C     0.98269   0.20436   0.46450   0.00000  Uiso   1.00
C515   C     0.09332   0.06213   0.47245   0.00000  Uiso   1.00
C516   C     0.88644   0.52951   0.43512   0.00000  Uiso   1.00
C517   C     0.89458   0.63196   0.44336   0.00000  Uiso   1.00
C518   C     0.96229   0.70486   0.43382   0.00000  Uiso   1.00
C519   C     0.06108   0.85230   0.42402   0.00000  Uiso   1.00
C520   C     0.92298   0.38462   0.41153   0.00000  Uiso   1.00
C521   C     0.80106   0.37483   0.40888   0.00000  Uiso   1.00
C522   C     0.74864   0.34160   0.39168   0.00000  Uiso   1.00
C523   C     0.63660   0.33803   0.39225   0.00000  Uiso   1.00
C524   C     0.95152   0.31430   0.42940   0.00000  Uiso   1.00
C525   C     0.02562   0.23019   0.42947   0.00000  Uiso   1.00
C526   C     0.04025   0.17567   0.44731   0.00000  Uiso   1.00
C527   C     0.94389   0.50087   0.41796   0.00000  Uiso   1.00
C528   C     0.01161   0.57361   0.40842   0.00000  Uiso   1.00
C529   C     0.01984   0.67616   0.41664   0.00000  Uiso   1.00
H530   H     0.77248   0.45965   0.45647   0.00000  Uiso   1.00
H531   H     0.58718   0.42211   0.43990   0.00000  Uiso   1.00
H532   H     0.86412   0.31073   0.47768   0.00000  Uiso   1.00
H533   H     0.85011   0.65410   0.45663   0.00000  Uiso   1.00
H534   H     0.40708   0.36782   0.41397   0.00000  Uiso   1.00
H535   H     0.99106   0.13299   0.49363   0.00000  Uiso   1.00
H536   H     0.96151   0.85705   0.44925   0.00000  Uiso   1.00
H537   H     0.96772   0.36232   0.39818   0.00000  Uiso   1.00
H538   H     0.79312   0.31944   0.37841   0.00000  Uiso   1.00
H539   H     0.07007   0.20805   0.41619   0.00000  Uiso   1.00
H540   H     0.05605   0.55142   0.39514   0.00000  Uiso   1.00
H541   H     0.57423   0.28448   0.36406   0.00000  Uiso   1.00
H542   H     0.15821   0.04965   0.44372   0.00000  Uiso   1.00
H543   H     0.12866   0.77371   0.39934   0.00000  Uiso   1.00
O544   O     0.37229   0.29966   0.37707   0.00000  Uiso   1.00
O545   O     0.13845   0.99158   0.48157   0.00000  Uiso   1.00
O546   O     0.09968   0.94154   0.42335   0.00000  Uiso   1.00
N547   N     0.47038   0.35411   0.40493   0.00000  Uiso   1.00
N548   N     0.01635   0.13454   0.47941   0.00000  Uiso   1.00
N549   N     0.98875   0.81147   0.43792   0.00000  Uiso   1.00
N550   N     0.56032   0.30927   0.37808   0.00000  Uiso   1.00
N551   N     0.10629   0.08970   0.45256   0.00000  Uiso   1.00
N552   N     0.07869   0.76663   0.41107   0.00000  Uiso   1.00
C553   C     0.56921   0.95494   0.44140   0.00000  Uiso   1.00
C554   C     0.64333   0.98980   0.42445   0.00000  Uiso   1.00
C555   C     0.75534   0.99205   0.42509   0.00000  Uiso   1.00
C556   C     0.80842   0.02649   0.40804   0.00000  Uiso   1.00
C557   C     0.93218   0.07595   0.38433   0.00000  Uiso   1.00
C558   C     0.49335   0.04981   0.44515   0.00000  Uiso   1.00
C559   C     0.47925   0.10249   0.46319   0.00000  Uiso   1.00
C560   C     0.40607   0.18744   0.46356   0.00000  Uiso   1.00
C561   C     0.29692   0.33001   0.47199   0.00000  Uiso   1.00
C562   C     0.49905   0.86440   0.43306   0.00000  Uiso   1.00
C563   C     0.48972   0.76120   0.44093   0.00000  Uiso   1.00
C564   C     0.42131   0.69006   0.43112   0.00000  Uiso   1.00
C565   C     0.32102   0.54476   0.42077   0.00000  Uiso   1.00
C566   C     0.46429   0.01212   0.40998   0.00000  Uiso   1.00
C567   C     0.58634   0.02086   0.40739   0.00000  Uiso   1.00
C568   C     0.63926   0.05531   0.39033   0.00000  Uiso   1.00
C569   C     0.75134   0.05760   0.39094   0.00000  Uiso   1.00
C570   C     0.43636   0.08087   0.42809   0.00000  Uiso   1.00
C571   C     0.36318   0.16575   0.42843   0.00000  Uiso   1.00
C572   C     0.34898   0.21856   0.44647   0.00000  Uiso   1.00
C573   C     0.44206   0.89546   0.41599   0.00000  Uiso   1.00
C574   C     0.37365   0.82446   0.40617   0.00000  Uiso   1.00
C575   C     0.36422   0.72117   0.41403   0.00000  Uiso   1.00
H576   H     0.61357   0.93077   0.45468   0.00000  Uiso   1.00
H577   H     0.79941   0.96801   0.43830   0.00000  Uiso   1.00
H578   H     0.52336   0.07843   0.47639   0.00000  Uiso   1.00
H579   H     0.53383   0.73720   0.45413   0.00000  Uiso   1.00
H580   H     0.98032   0.02304   0.41261   0.00000  Uiso   1.00
H581   H     0.39822   0.25585   0.49294   0.00000  Uiso   1.00
H582   H     0.42030   0.53628   0.44600   0.00000  Uiso   1.00
H583   H     0.41992   0.03630   0.39670   0.00000  Uiso   1.00
H584   H     0.59514   0.07934   0.37713   0.00000  Uiso   1.00
H585   H     0.31909   0.18976   0.41523   0.00000  Uiso   1.00
H586   H     0.32956   0.84852   0.39297   0.00000  Uiso   1.00
H587   H     0.81453   0.11340   0.36297   0.00000  Uiso   1.00
H588   H     0.23242   0.34621   0.44329   0.00000  Uiso   1.00
H589   H     0.25451   0.62664   0.39636   0.00000  Uiso   1.00
O590   O     0.01618   0.09467   0.37597   0.00000  Uiso   1.00
O591   O     0.25248   0.40008   0.48135   0.00000  Uiso   1.00
O592   O     0.28145   0.45603   0.41978   0.00000  Uiso   1.00
N593   N     0.91726   0.03838   0.40361   0.00000  Uiso   1.00
N594   N     0.37304   0.25605   0.47871   0.00000  Uiso   1.00
N595   N     0.39366   0.58333   0.43483   0.00000  Uiso   1.00
N596   N     0.82805   0.08700   0.37690   0.00000  Uiso   1.00
N597   N     0.28383   0.30467   0.45199   0.00000  Uiso   1.00
N598   N     0.30445   0.63195   0.40812   0.00000  Uiso   1.00
C599   C     0.06264   0.31720   0.19311   0.00000  Uiso   1.00
C600   C     0.09653   0.24360   0.17603   0.00000  Uiso   1.00
C601   C     0.10005   0.13161   0.17662   0.00000  Uiso   1.00
C602   C     0.13328   0.07904   0.15944   0.00000  Uiso   1.00
C603   C     0.18159   0.95602   0.13552   0.00000  Uiso   1.00
C604   C     0.15706   0.39406   0.19655   0.00000  Uiso   1.00
C605   C     0.21146   0.40859   0.21441   0.00000  Uiso   1.00
C606   C     0.29564   0.48269   0.21450   0.00000  Uiso   1.00
C607   C     0.43787   0.59332   0.22245   0.00000  Uiso   1.00
C608   C     0.97049   0.38644   0.18512   0.00000  Uiso   1.00
C609   C     0.86804   0.39458   0.19336   0.00000  Uiso   1.00
C610   C     0.79514   0.46229   0.18382   0.00000  Uiso   1.00
C611   C     0.64770   0.56108   0.17402   0.00000  Uiso   1.00
C612   C     0.11538   0.42298   0.16153   0.00000  Uiso   1.00
C613   C     0.12517   0.30106   0.15888   0.00000  Uiso   1.00
C614   C     0.15840   0.24864   0.14168   0.00000  Uiso   1.00
C615   C     0.16197   0.13660   0.14225   0.00000  Uiso   1.00
C616   C     0.18570   0.45152   0.17940   0.00000  Uiso   1.00
C617   C     0.26981   0.52562   0.17947   0.00000  Uiso   1.00
C618   C     0.32433   0.54025   0.19731   0.00000  Uiso   1.00
C619   C     0.99913   0.44389   0.16796   0.00000  Uiso   1.00
C620   C     0.92639   0.51161   0.15842   0.00000  Uiso   1.00
C621   C     0.82384   0.51984   0.16664   0.00000  Uiso   1.00
H622   H     0.04035   0.27248   0.20647   0.00000  Uiso   1.00
H623   H     0.07789   0.08718   0.18990   0.00000  Uiso   1.00
H624   H     0.18927   0.36412   0.22768   0.00000  Uiso   1.00
H625   H     0.84590   0.35011   0.20663   0.00000  Uiso   1.00
H626   H     0.13218   0.90708   0.16397   0.00000  Uiso   1.00
H627   H     0.36701   0.49106   0.24363   0.00000  Uiso   1.00
H628   H     0.64295   0.46151   0.19925   0.00000  Uiso   1.00
H629   H     0.13768   0.46772   0.14818   0.00000  Uiso   1.00
H630   H     0.18056   0.29312   0.12841   0.00000  Uiso   1.00
H631   H     0.29195   0.57007   0.16619   0.00000  Uiso   1.00
H632   H     0.94858   0.55605   0.14514   0.00000  Uiso   1.00
H633   H     0.21552   0.07423   0.11406   0.00000  Uiso   1.00
H634   H     0.45035   0.65821   0.19372   0.00000  Uiso   1.00
H635   H     0.72629   0.62866   0.14934   0.00000  Uiso   1.00
O636   O     0.20034   0.87229   0.12707   0.00000  Uiso   1.00
O637   O     0.50842   0.63845   0.23157   0.00000  Uiso   1.00
O638   O     0.55846   0.59968   0.17335   0.00000  Uiso   1.00
N639   N     0.14589   0.97038   0.15493   0.00000  Uiso   1.00
N640   N     0.36546   0.51635   0.22941   0.00000  Uiso   1.00
N641   N     0.68853   0.48875   0.18792   0.00000  Uiso   1.00
N642   N     0.19073   0.06032   0.12808   0.00000  Uiso   1.00
N643   N     0.41030   0.60629   0.20256   0.00000  Uiso   1.00
N644   N     0.73337   0.57869   0.16107   0.00000  Uiso   1.00
C645   C     0.43079   0.04506   0.94140   0.00000  Uiso   1.00
C646   C     0.35667   0.01020   0.92445   0.00000  Uiso   1.00
C647   C     0.24466   0.00795   0.92509   0.00000  Uiso   1.00
C648   C     0.19158   0.97351   0.90804   0.00000  Uiso   1.00
C649   C     0.06782   0.92405   0.88433   0.00000  Uiso   1.00
C650   C     0.50665   0.95019   0.94515   0.00000  Uiso   1.00
C651   C     0.52075   0.89751   0.96319   0.00000  Uiso   1.00
C652   C     0.59393   0.81256   0.96356   0.00000  Uiso   1.00
C653   C     0.70308   0.66999   0.97199   0.00000  Uiso   1.00
C654   C     0.50095   0.13560   0.93306   0.00000  Uiso   1.00
C655   C     0.51028   0.23880   0.94093   0.00000  Uiso   1.00
C656   C     0.57869   0.30994   0.93112   0.00000  Uiso   1.00
C657   C     0.67898   0.45524   0.92077   0.00000  Uiso   1.00
C658   C     0.53571   0.98788   0.90998   0.00000  Uiso   1.00
C659   C     0.41366   0.97914   0.90739   0.00000  Uiso   1.00
C660   C     0.36074   0.94469   0.89033   0.00000  Uiso   1.00
C661   C     0.24866   0.94240   0.89094   0.00000  Uiso   1.00
C662   C     0.56364   0.91913   0.92809   0.00000  Uiso   1.00
C663   C     0.63682   0.83425   0.92843   0.00000  Uiso   1.00
C664   C     0.65102   0.78144   0.94647   0.00000  Uiso   1.00
C665   C     0.55794   0.10454   0.91599   0.00000  Uiso   1.00
C666   C     0.62635   0.17554   0.90617   0.00000  Uiso   1.00
C667   C     0.63578   0.27883   0.91403   0.00000  Uiso   1.00
H668   H     0.38643   0.06923   0.95468   0.00000  Uiso   1.00
H669   H     0.20059   0.03199   0.93830   0.00000  Uiso   1.00
H670   H     0.47664   0.92157   0.97639   0.00000  Uiso   1.00
H671   H     0.46617   0.26280   0.95413   0.00000  Uiso   1.00
H672   H     0.01968   0.97696   0.91261   0.00000  Uiso   1.00
H673   H     0.60178   0.74415   0.99294   0.00000  Uiso   1.00
H674   H     0.57970   0.46372   0.94600   0.00000  Uiso   1.00
H675   H     0.58008   0.96370   0.89670   0.00000  Uiso   1.00
H676   H     0.40486   0.92066   0.87713   0.00000  Uiso   1.00
H677   H     0.68091   0.81024   0.91523   0.00000  Uiso   1.00
H678   H     0.67044   0.15148   0.89297   0.00000  Uiso   1.00
H679   H     0.18547   0.88660   0.86297   0.00000  Uiso   1.00
H680   H     0.76758   0.65379   0.94329   0.00000  Uiso   1.00
H681   H     0.74549   0.37336   0.89636   0.00000  Uiso   1.00
O682   O     0.98382   0.90533   0.87597   0.00000  Uiso   1.00
O683   O     0.74752   0.59992   0.98135   0.00000  Uiso   1.00
O684   O     0.71855   0.54397   0.91978   0.00000  Uiso   1.00
N685   N     0.08274   0.96162   0.90361   0.00000  Uiso   1.00
N686   N     0.62696   0.74395   0.97871   0.00000  Uiso   1.00
N687   N     0.60634   0.41667   0.93483   0.00000  Uiso   1.00
N688   N     0.17195   0.91300   0.87690   0.00000  Uiso   1.00
N689   N     0.71617   0.69533   0.95199   0.00000  Uiso   1.00
N690   N     0.69555   0.36805   0.90812   0.00000  Uiso   1.00
C691   C     0.93736   0.68280   0.69311   0.00000  Uiso   1.00
C692   C     0.90347   0.75640   0.67603   0.00000  Uiso   1.00
C693   C     0.89995   0.86839   0.67662   0.00000  Uiso   1.00
C694   C     0.86672   0.92096   0.65944   0.00000  Uiso   1.00
C695   C     0.81841   0.04398   0.63552   0.00000  Uiso   1.00
C696   C     0.84294   0.60594   0.69655   0.00000  Uiso   1.00
C697   C     0.78854   0.59141   0.71441   0.00000  Uiso   1.00
C698   C     0.70436   0.51731   0.71450   0.00000  Uiso   1.00
C699   C     0.56213   0.40668   0.72245   0.00000  Uiso   1.00
C700   C     0.02951   0.61356   0.68512   0.00000  Uiso   1.00
C701   C     0.13196   0.60542   0.69336   0.00000  Uiso   1.00
C702   C     0.20486   0.53771   0.68382   0.00000  Uiso   1.00
C703   C     0.35230   0.43892   0.67402   0.00000  Uiso   1.00
C704   C     0.88462   0.57702   0.66153   0.00000  Uiso   1.00
C705   C     0.87483   0.69894   0.65888   0.00000  Uiso   1.00
C706   C     0.84160   0.75136   0.64168   0.00000  Uiso   1.00
C707   C     0.83803   0.86340   0.64225   0.00000  Uiso   1.00
C708   C     0.81430   0.54848   0.67940   0.00000  Uiso   1.00
C709   C     0.73019   0.47438   0.67947   0.00000  Uiso   1.00
C710   C     0.67567   0.45975   0.69731   0.00000  Uiso   1.00
C711   C     0.00087   0.55611   0.66796   0.00000  Uiso   1.00
C712   C     0.07361   0.48839   0.65842   0.00000  Uiso   1.00
C713   C     0.17616   0.48016   0.66664   0.00000  Uiso   1.00
H714   H     0.95965   0.72752   0.70647   0.00000  Uiso   1.00
H715   H     0.92211   0.91282   0.68990   0.00000  Uiso   1.00
H716   H     0.81073   0.63588   0.72768   0.00000  Uiso   1.00
H717   H     0.15410   0.64989   0.70663   0.00000  Uiso   1.00
H718   H     0.86782   0.09292   0.66397   0.00000  Uiso   1.00
H719   H     0.63299   0.50894   0.74363   0.00000  Uiso   1.00
H720   H     0.35705   0.53849   0.69925   0.00000  Uiso   1.00
H721   H     0.86232   0.53228   0.64818   0.00000  Uiso   1.00
H722   H     0.81944   0.70688   0.62841   0.00000  Uiso   1.00
H723   H     0.70805   0.42993   0.66619   0.00000  Uiso   1.00
H724   H     0.05142   0.44395   0.64514   0.00000  Uiso   1.00
H725   H     0.78448   0.92577   0.61406   0.00000  Uiso   1.00
H726   H     0.54965   0.34179   0.69372   0.00000  Uiso   1.00
H727   H     0.27371   0.37134   0.64934   0.00000  Uiso   1.00
O728   O     0.79966   0.12771   0.62707   0.00000  Uiso   1.00
O729   O     0.49158   0.36155   0.73157   0.00000  Uiso   1.00
O730   O     0.44154   0.40032   0.67335   0.00000  Uiso   1.00
N731   N     0.85411   0.02962   0.65493   0.00000  Uiso   1.00
N732   N     0.63454   0.48365   0.72941   0.00000  Uiso   1.00
N733   N     0.31147   0.51125   0.68792   0.00000  Uiso   1.00
N734   N     0.80927   0.93968   0.62808   0.00000  Uiso   1.00
N735   N     0.58970   0.39371   0.70256   0.00000  Uiso   1.00
N736   N     0.26663   0.42131   0.66107   0.00000  Uiso   1.00
