data_job_04088
_audit_creation_date              2018-12-19
_audit_creation_method            'Materials Studio'
_symmetry_space_group_name_H-M    'P1'
_symmetry_Int_Tables_number       1
_symmetry_cell_setting            triclinic
loop_
_symmetry_equiv_pos_as_xyz
  x,y,z
_cell_length_a                    24.6039
_cell_length_b                    24.6039
_cell_length_c                    24.2870
_cell_angle_alpha                 90.0000
_cell_angle_beta                  90.0000
_cell_angle_gamma                 90.0000
loop_
_atom_site_label
_atom_site_type_symbol
_atom_site_fract_x
_atom_site_fract_y
_atom_site_fract_z
_atom_site_U_iso_or_equiv
_atom_site_adp_type
_atom_site_occupancy
C1     C     0.76446   0.61503   0.57077   0.00000  Uiso   1.00
C2     C     0.82210   0.62287   0.54911   0.00000  Uiso   1.00
C3     C     0.83866   0.61572   0.49497   0.00000  Uiso   1.00
C4     C     0.89317   0.62487   0.48347   0.00000  Uiso   1.00
C5     C     0.97712   0.63461   0.44357   0.00000  Uiso   1.00
C6     C     0.76868   0.57348   0.61716   0.00000  Uiso   1.00
C7     C     0.74033   0.52481   0.62024   0.00000  Uiso   1.00
C8     C     0.74987   0.49240   0.66603   0.00000  Uiso   1.00
C9     C     0.75086   0.42549   0.73181   0.00000  Uiso   1.00
C10    C     0.74874   0.66861   0.59802   0.00000  Uiso   1.00
C11    C     0.70361   0.69992   0.58503   0.00000  Uiso   1.00
C12    C     0.69636   0.74760   0.61471   0.00000  Uiso   1.00
C13    C     0.66638   0.82839   0.65077   0.00000  Uiso   1.00
C14    C     0.83181   0.64402   0.64662   0.00000  Uiso   1.00
C15    C     0.85868   0.63861   0.59030   0.00000  Uiso   1.00
C16    C     0.91318   0.64778   0.57888   0.00000  Uiso   1.00
C17    C     0.92982   0.64065   0.52473   0.00000  Uiso   1.00
C18    C     0.80526   0.58922   0.65836   0.00000  Uiso   1.00
C19    C     0.81485   0.55688   0.70415   0.00000  Uiso   1.00
C20    C     0.78652   0.50817   0.70730   0.00000  Uiso   1.00
C21    C     0.78532   0.68436   0.63922   0.00000  Uiso   1.00
C22    C     0.77813   0.73199   0.66893   0.00000  Uiso   1.00
C23    C     0.73300   0.76337   0.65598   0.00000  Uiso   1.00
H24    H     0.73597   0.60277   0.53870   0.00000  Uiso   1.00
H25    H     0.81034   0.60353   0.46310   0.00000  Uiso   1.00
H26    H     0.71202   0.51264   0.58836   0.00000  Uiso   1.00
H27    H     0.67531   0.68773   0.55314   0.00000  Uiso   1.00
H28    H     0.90893   0.61128   0.39746   0.00000  Uiso   1.00
H29    H     0.70160   0.41966   0.66158   0.00000  Uiso   1.00
H30    H     0.62419   0.78886   0.58732   0.00000  Uiso   1.00
H31    H     0.86029   0.65628   0.67869   0.00000  Uiso   1.00
H32    H     0.94148   0.65997   0.61077   0.00000  Uiso   1.00
H33    H     0.84316   0.56908   0.73603   0.00000  Uiso   1.00
H34    H     0.80645   0.74416   0.70081   0.00000  Uiso   1.00
H35    H     0.01537   0.65709   0.51731   0.00000  Uiso   1.00
H36    H     0.80803   0.46546   0.78143   0.00000  Uiso   1.00
H37    H     0.73063   0.83466   0.70717   0.00000  Uiso   1.00
O38    O     0.01332   0.63563   0.41018   0.00000  Uiso   1.00
O39    O     0.74130   0.38423   0.75670   0.00000  Uiso   1.00
O40    O     0.63974   0.86861   0.65928   0.00000  Uiso   1.00
N41    N     0.92283   0.62157   0.43498   0.00000  Uiso   1.00
N42    N     0.72900   0.44240   0.68192   0.00000  Uiso   1.00
N43    N     0.65662   0.78757   0.61250   0.00000  Uiso   1.00
N44    N     0.98011   0.64622   0.49947   0.00000  Uiso   1.00
N45    N     0.78627   0.46705   0.74641   0.00000  Uiso   1.00
N46    N     0.71389   0.81222   0.67699   0.00000  Uiso   1.00
C47    C     0.23554   0.38497   0.57077   0.00000  Uiso   1.00
C48    C     0.17790   0.37713   0.54911   0.00000  Uiso   1.00
C49    C     0.16134   0.38428   0.49497   0.00000  Uiso   1.00
C50    C     0.10683   0.37513   0.48347   0.00000  Uiso   1.00
C51    C     0.02288   0.36539   0.44357   0.00000  Uiso   1.00
C52    C     0.23132   0.42652   0.61716   0.00000  Uiso   1.00
C53    C     0.25967   0.47519   0.62024   0.00000  Uiso   1.00
C54    C     0.25013   0.50760   0.66603   0.00000  Uiso   1.00
C55    C     0.24914   0.57451   0.73181   0.00000  Uiso   1.00
C56    C     0.25126   0.33139   0.59802   0.00000  Uiso   1.00
C57    C     0.29639   0.30008   0.58503   0.00000  Uiso   1.00
C58    C     0.30364   0.25240   0.61471   0.00000  Uiso   1.00
C59    C     0.33362   0.17161   0.65077   0.00000  Uiso   1.00
C60    C     0.16819   0.35598   0.64662   0.00000  Uiso   1.00
C61    C     0.14132   0.36139   0.59030   0.00000  Uiso   1.00
C62    C     0.08682   0.35222   0.57888   0.00000  Uiso   1.00
C63    C     0.07018   0.35935   0.52473   0.00000  Uiso   1.00
C64    C     0.19474   0.41078   0.65836   0.00000  Uiso   1.00
C65    C     0.18515   0.44312   0.70415   0.00000  Uiso   1.00
C66    C     0.21348   0.49183   0.70730   0.00000  Uiso   1.00
C67    C     0.21468   0.31564   0.63922   0.00000  Uiso   1.00
C68    C     0.22187   0.26801   0.66893   0.00000  Uiso   1.00
C69    C     0.26700   0.23663   0.65598   0.00000  Uiso   1.00
H70    H     0.26403   0.39723   0.53870   0.00000  Uiso   1.00
H71    H     0.18966   0.39647   0.46310   0.00000  Uiso   1.00
H72    H     0.28798   0.48736   0.58836   0.00000  Uiso   1.00
H73    H     0.32469   0.31227   0.55314   0.00000  Uiso   1.00
H74    H     0.09107   0.38872   0.39746   0.00000  Uiso   1.00
H75    H     0.29840   0.58034   0.66158   0.00000  Uiso   1.00
H76    H     0.37581   0.21114   0.58732   0.00000  Uiso   1.00
H77    H     0.13971   0.34372   0.67869   0.00000  Uiso   1.00
H78    H     0.05852   0.34003   0.61077   0.00000  Uiso   1.00
H79    H     0.15684   0.43092   0.73603   0.00000  Uiso   1.00
H80    H     0.19355   0.25584   0.70081   0.00000  Uiso   1.00
H81    H     0.98463   0.34291   0.51731   0.00000  Uiso   1.00
H82    H     0.19197   0.53454   0.78143   0.00000  Uiso   1.00
H83    H     0.26937   0.16534   0.70717   0.00000  Uiso   1.00
O84    O     0.98668   0.36437   0.41018   0.00000  Uiso   1.00
O85    O     0.25870   0.61577   0.75670   0.00000  Uiso   1.00
O86    O     0.36026   0.13139   0.65928   0.00000  Uiso   1.00
N87    N     0.07717   0.37843   0.43498   0.00000  Uiso   1.00
N88    N     0.27100   0.55760   0.68192   0.00000  Uiso   1.00
N89    N     0.34338   0.21243   0.61250   0.00000  Uiso   1.00
N90    N     0.01989   0.35378   0.49947   0.00000  Uiso   1.00
N91    N     0.21373   0.53295   0.74641   0.00000  Uiso   1.00
N92    N     0.28611   0.18778   0.67699   0.00000  Uiso   1.00
C93    C     0.88497   0.26446   0.57077   0.00000  Uiso   1.00
C94    C     0.87713   0.32210   0.54911   0.00000  Uiso   1.00
C95    C     0.88428   0.33866   0.49497   0.00000  Uiso   1.00
C96    C     0.87513   0.39317   0.48347   0.00000  Uiso   1.00
C97    C     0.86539   0.47712   0.44357   0.00000  Uiso   1.00
C98    C     0.92652   0.26868   0.61716   0.00000  Uiso   1.00
C99    C     0.97519   0.24033   0.62024   0.00000  Uiso   1.00
C100   C     0.00760   0.24987   0.66603   0.00000  Uiso   1.00
C101   C     0.07451   0.25086   0.73181   0.00000  Uiso   1.00
C102   C     0.83139   0.24874   0.59802   0.00000  Uiso   1.00
C103   C     0.80008   0.20361   0.58503   0.00000  Uiso   1.00
C104   C     0.75240   0.19636   0.61471   0.00000  Uiso   1.00
C105   C     0.67161   0.16638   0.65077   0.00000  Uiso   1.00
C106   C     0.85598   0.33181   0.64662   0.00000  Uiso   1.00
C107   C     0.86139   0.35868   0.59030   0.00000  Uiso   1.00
C108   C     0.85222   0.41318   0.57888   0.00000  Uiso   1.00
C109   C     0.85935   0.42982   0.52473   0.00000  Uiso   1.00
C110   C     0.91078   0.30526   0.65836   0.00000  Uiso   1.00
C111   C     0.94312   0.31485   0.70415   0.00000  Uiso   1.00
C112   C     0.99183   0.28652   0.70730   0.00000  Uiso   1.00
C113   C     0.81564   0.28532   0.63922   0.00000  Uiso   1.00
C114   C     0.76801   0.27813   0.66893   0.00000  Uiso   1.00
C115   C     0.73663   0.23300   0.65598   0.00000  Uiso   1.00
H116   H     0.89723   0.23597   0.53870   0.00000  Uiso   1.00
H117   H     0.89647   0.31034   0.46310   0.00000  Uiso   1.00
H118   H     0.98736   0.21202   0.58836   0.00000  Uiso   1.00
H119   H     0.81227   0.17531   0.55314   0.00000  Uiso   1.00
H120   H     0.88872   0.40893   0.39746   0.00000  Uiso   1.00
H121   H     0.08034   0.20160   0.66158   0.00000  Uiso   1.00
H122   H     0.71114   0.12419   0.58732   0.00000  Uiso   1.00
H123   H     0.84372   0.36029   0.67869   0.00000  Uiso   1.00
H124   H     0.84003   0.44148   0.61077   0.00000  Uiso   1.00
H125   H     0.93092   0.34316   0.73603   0.00000  Uiso   1.00
H126   H     0.75584   0.30645   0.70081   0.00000  Uiso   1.00
H127   H     0.84291   0.51537   0.51731   0.00000  Uiso   1.00
H128   H     0.03454   0.30803   0.78143   0.00000  Uiso   1.00
H129   H     0.66534   0.23063   0.70717   0.00000  Uiso   1.00
O130   O     0.86437   0.51332   0.41018   0.00000  Uiso   1.00
O131   O     0.11577   0.24130   0.75670   0.00000  Uiso   1.00
O132   O     0.63139   0.13974   0.65928   0.00000  Uiso   1.00
N133   N     0.87843   0.42283   0.43498   0.00000  Uiso   1.00
N134   N     0.05760   0.22900   0.68192   0.00000  Uiso   1.00
N135   N     0.71243   0.15662   0.61250   0.00000  Uiso   1.00
N136   N     0.85378   0.48011   0.49947   0.00000  Uiso   1.00
N137   N     0.03295   0.28627   0.74641   0.00000  Uiso   1.00
N138   N     0.68778   0.21389   0.67699   0.00000  Uiso   1.00
C139   C     0.11503   0.73554   0.57077   0.00000  Uiso   1.00
C140   C     0.12287   0.67790   0.54911   0.00000  Uiso   1.00
C141   C     0.11572   0.66134   0.49497   0.00000  Uiso   1.00
C142   C     0.12487   0.60683   0.48347   0.00000  Uiso   1.00
C143   C     0.13461   0.52288   0.44357   0.00000  Uiso   1.00
C144   C     0.07348   0.73132   0.61716   0.00000  Uiso   1.00
C145   C     0.02481   0.75967   0.62024   0.00000  Uiso   1.00
C146   C     0.99240   0.75013   0.66603   0.00000  Uiso   1.00
C147   C     0.92549   0.74914   0.73181   0.00000  Uiso   1.00
C148   C     0.16861   0.75126   0.59802   0.00000  Uiso   1.00
C149   C     0.19992   0.79639   0.58503   0.00000  Uiso   1.00
C150   C     0.24760   0.80364   0.61471   0.00000  Uiso   1.00
C151   C     0.32839   0.83362   0.65077   0.00000  Uiso   1.00
C152   C     0.14402   0.66819   0.64662   0.00000  Uiso   1.00
C153   C     0.13861   0.64132   0.59030   0.00000  Uiso   1.00
C154   C     0.14778   0.58682   0.57888   0.00000  Uiso   1.00
C155   C     0.14065   0.57018   0.52473   0.00000  Uiso   1.00
C156   C     0.08922   0.69474   0.65836   0.00000  Uiso   1.00
C157   C     0.05688   0.68515   0.70415   0.00000  Uiso   1.00
C158   C     0.00817   0.71348   0.70730   0.00000  Uiso   1.00
C159   C     0.18436   0.71468   0.63922   0.00000  Uiso   1.00
C160   C     0.23199   0.72187   0.66893   0.00000  Uiso   1.00
C161   C     0.26337   0.76700   0.65598   0.00000  Uiso   1.00
H162   H     0.10277   0.76403   0.53870   0.00000  Uiso   1.00
H163   H     0.10353   0.68966   0.46310   0.00000  Uiso   1.00
H164   H     0.01264   0.78798   0.58836   0.00000  Uiso   1.00
H165   H     0.18773   0.82469   0.55314   0.00000  Uiso   1.00
H166   H     0.11128   0.59107   0.39746   0.00000  Uiso   1.00
H167   H     0.91966   0.79840   0.66158   0.00000  Uiso   1.00
H168   H     0.28886   0.87581   0.58732   0.00000  Uiso   1.00
H169   H     0.15628   0.63971   0.67869   0.00000  Uiso   1.00
H170   H     0.15997   0.55852   0.61077   0.00000  Uiso   1.00
H171   H     0.06908   0.65684   0.73603   0.00000  Uiso   1.00
H172   H     0.24416   0.69355   0.70081   0.00000  Uiso   1.00
H173   H     0.15709   0.48463   0.51731   0.00000  Uiso   1.00
H174   H     0.96546   0.69197   0.78143   0.00000  Uiso   1.00
H175   H     0.33466   0.76937   0.70717   0.00000  Uiso   1.00
O176   O     0.13563   0.48668   0.41018   0.00000  Uiso   1.00
O177   O     0.88423   0.75870   0.75670   0.00000  Uiso   1.00
O178   O     0.36861   0.86026   0.65928   0.00000  Uiso   1.00
N179   N     0.12157   0.57717   0.43498   0.00000  Uiso   1.00
N180   N     0.94240   0.77100   0.68192   0.00000  Uiso   1.00
N181   N     0.28757   0.84338   0.61250   0.00000  Uiso   1.00
N182   N     0.14622   0.51989   0.49947   0.00000  Uiso   1.00
N183   N     0.96705   0.71373   0.74641   0.00000  Uiso   1.00
N184   N     0.31222   0.78611   0.67699   0.00000  Uiso   1.00
C185   C     0.73554   0.11503   0.92923   0.00000  Uiso   1.00
C186   C     0.67790   0.12287   0.95089   0.00000  Uiso   1.00
C187   C     0.66134   0.11572   0.00503   0.00000  Uiso   1.00
C188   C     0.60683   0.12487   0.01653   0.00000  Uiso   1.00
C189   C     0.52288   0.13461   0.05643   0.00000  Uiso   1.00
C190   C     0.73132   0.07348   0.88284   0.00000  Uiso   1.00
C191   C     0.75967   0.02481   0.87976   0.00000  Uiso   1.00
C192   C     0.75013   0.99240   0.83397   0.00000  Uiso   1.00
C193   C     0.74914   0.92549   0.76819   0.00000  Uiso   1.00
C194   C     0.75126   0.16861   0.90198   0.00000  Uiso   1.00
C195   C     0.79639   0.19992   0.91497   0.00000  Uiso   1.00
C196   C     0.80364   0.24760   0.88529   0.00000  Uiso   1.00
C197   C     0.83362   0.32839   0.84923   0.00000  Uiso   1.00
C198   C     0.66819   0.14402   0.85338   0.00000  Uiso   1.00
C199   C     0.64132   0.13861   0.90970   0.00000  Uiso   1.00
C200   C     0.58682   0.14778   0.92112   0.00000  Uiso   1.00
C201   C     0.57018   0.14065   0.97527   0.00000  Uiso   1.00
C202   C     0.69474   0.08922   0.84164   0.00000  Uiso   1.00
C203   C     0.68515   0.05688   0.79585   0.00000  Uiso   1.00
C204   C     0.71348   0.00817   0.79270   0.00000  Uiso   1.00
C205   C     0.71468   0.18436   0.86078   0.00000  Uiso   1.00
C206   C     0.72187   0.23199   0.83107   0.00000  Uiso   1.00
C207   C     0.76700   0.26337   0.84402   0.00000  Uiso   1.00
H208   H     0.76403   0.10277   0.96130   0.00000  Uiso   1.00
H209   H     0.68966   0.10353   0.03690   0.00000  Uiso   1.00
H210   H     0.78798   0.01264   0.91164   0.00000  Uiso   1.00
H211   H     0.82469   0.18773   0.94686   0.00000  Uiso   1.00
H212   H     0.59107   0.11128   0.10254   0.00000  Uiso   1.00
H213   H     0.79840   0.91966   0.83842   0.00000  Uiso   1.00
H214   H     0.87581   0.28886   0.91268   0.00000  Uiso   1.00
H215   H     0.63971   0.15628   0.82131   0.00000  Uiso   1.00
H216   H     0.55852   0.15997   0.88923   0.00000  Uiso   1.00
H217   H     0.65684   0.06908   0.76397   0.00000  Uiso   1.00
H218   H     0.69355   0.24416   0.79919   0.00000  Uiso   1.00
H219   H     0.48463   0.15709   0.98269   0.00000  Uiso   1.00
H220   H     0.69197   0.96546   0.71857   0.00000  Uiso   1.00
H221   H     0.76937   0.33466   0.79283   0.00000  Uiso   1.00
O222   O     0.48668   0.13563   0.08982   0.00000  Uiso   1.00
O223   O     0.75870   0.88423   0.74330   0.00000  Uiso   1.00
O224   O     0.86026   0.36861   0.84072   0.00000  Uiso   1.00
N225   N     0.57717   0.12157   0.06502   0.00000  Uiso   1.00
N226   N     0.77100   0.94240   0.81808   0.00000  Uiso   1.00
N227   N     0.84338   0.28757   0.88750   0.00000  Uiso   1.00
N228   N     0.51989   0.14622   0.00053   0.00000  Uiso   1.00
N229   N     0.71373   0.96705   0.75359   0.00000  Uiso   1.00
N230   N     0.78611   0.31222   0.82301   0.00000  Uiso   1.00
C231   C     0.26446   0.88497   0.92923   0.00000  Uiso   1.00
C232   C     0.32210   0.87713   0.95089   0.00000  Uiso   1.00
C233   C     0.33866   0.88428   0.00503   0.00000  Uiso   1.00
C234   C     0.39317   0.87513   0.01653   0.00000  Uiso   1.00
C235   C     0.47712   0.86539   0.05643   0.00000  Uiso   1.00
C236   C     0.26868   0.92652   0.88284   0.00000  Uiso   1.00
C237   C     0.24033   0.97519   0.87976   0.00000  Uiso   1.00
C238   C     0.24987   0.00760   0.83397   0.00000  Uiso   1.00
C239   C     0.25086   0.07451   0.76819   0.00000  Uiso   1.00
C240   C     0.24874   0.83139   0.90198   0.00000  Uiso   1.00
C241   C     0.20361   0.80008   0.91497   0.00000  Uiso   1.00
C242   C     0.19636   0.75240   0.88529   0.00000  Uiso   1.00
C243   C     0.16638   0.67161   0.84923   0.00000  Uiso   1.00
C244   C     0.33181   0.85598   0.85338   0.00000  Uiso   1.00
C245   C     0.35868   0.86139   0.90970   0.00000  Uiso   1.00
C246   C     0.41318   0.85222   0.92112   0.00000  Uiso   1.00
C247   C     0.42982   0.85935   0.97527   0.00000  Uiso   1.00
C248   C     0.30526   0.91078   0.84164   0.00000  Uiso   1.00
C249   C     0.31485   0.94312   0.79585   0.00000  Uiso   1.00
C250   C     0.28652   0.99183   0.79270   0.00000  Uiso   1.00
C251   C     0.28532   0.81564   0.86078   0.00000  Uiso   1.00
C252   C     0.27813   0.76801   0.83107   0.00000  Uiso   1.00
C253   C     0.23300   0.73663   0.84402   0.00000  Uiso   1.00
H254   H     0.23597   0.89723   0.96130   0.00000  Uiso   1.00
H255   H     0.31034   0.89647   0.03690   0.00000  Uiso   1.00
H256   H     0.21202   0.98736   0.91164   0.00000  Uiso   1.00
H257   H     0.17531   0.81227   0.94686   0.00000  Uiso   1.00
H258   H     0.40893   0.88872   0.10254   0.00000  Uiso   1.00
H259   H     0.20160   0.08034   0.83842   0.00000  Uiso   1.00
H260   H     0.12419   0.71114   0.91268   0.00000  Uiso   1.00
H261   H     0.36029   0.84372   0.82131   0.00000  Uiso   1.00
H262   H     0.44148   0.84003   0.88923   0.00000  Uiso   1.00
H263   H     0.34316   0.93092   0.76397   0.00000  Uiso   1.00
H264   H     0.30645   0.75584   0.79919   0.00000  Uiso   1.00
H265   H     0.51537   0.84291   0.98269   0.00000  Uiso   1.00
H266   H     0.30803   0.03454   0.71857   0.00000  Uiso   1.00
H267   H     0.23063   0.66534   0.79283   0.00000  Uiso   1.00
O268   O     0.51332   0.86437   0.08982   0.00000  Uiso   1.00
O269   O     0.24130   0.11577   0.74330   0.00000  Uiso   1.00
O270   O     0.13974   0.63139   0.84072   0.00000  Uiso   1.00
N271   N     0.42283   0.87843   0.06502   0.00000  Uiso   1.00
N272   N     0.22900   0.05760   0.81808   0.00000  Uiso   1.00
N273   N     0.15662   0.71243   0.88750   0.00000  Uiso   1.00
N274   N     0.48011   0.85378   0.00053   0.00000  Uiso   1.00
N275   N     0.28627   0.03295   0.75359   0.00000  Uiso   1.00
N276   N     0.21389   0.68778   0.82301   0.00000  Uiso   1.00
C277   C     0.61503   0.76446   0.92923   0.00000  Uiso   1.00
C278   C     0.62287   0.82210   0.95089   0.00000  Uiso   1.00
C279   C     0.61572   0.83866   0.00503   0.00000  Uiso   1.00
C280   C     0.62487   0.89317   0.01653   0.00000  Uiso   1.00
C281   C     0.63461   0.97712   0.05643   0.00000  Uiso   1.00
C282   C     0.57348   0.76868   0.88284   0.00000  Uiso   1.00
C283   C     0.52481   0.74033   0.87976   0.00000  Uiso   1.00
C284   C     0.49240   0.74987   0.83397   0.00000  Uiso   1.00
C285   C     0.42549   0.75086   0.76819   0.00000  Uiso   1.00
C286   C     0.66861   0.74874   0.90198   0.00000  Uiso   1.00
C287   C     0.69992   0.70361   0.91497   0.00000  Uiso   1.00
C288   C     0.74760   0.69636   0.88529   0.00000  Uiso   1.00
C289   C     0.82839   0.66638   0.84923   0.00000  Uiso   1.00
C290   C     0.64402   0.83181   0.85338   0.00000  Uiso   1.00
C291   C     0.63861   0.85868   0.90970   0.00000  Uiso   1.00
C292   C     0.64778   0.91318   0.92112   0.00000  Uiso   1.00
C293   C     0.64065   0.92982   0.97527   0.00000  Uiso   1.00
C294   C     0.58922   0.80526   0.84164   0.00000  Uiso   1.00
C295   C     0.55688   0.81485   0.79585   0.00000  Uiso   1.00
C296   C     0.50817   0.78652   0.79270   0.00000  Uiso   1.00
C297   C     0.68436   0.78532   0.86078   0.00000  Uiso   1.00
C298   C     0.73199   0.77813   0.83107   0.00000  Uiso   1.00
C299   C     0.76337   0.73300   0.84402   0.00000  Uiso   1.00
H300   H     0.60277   0.73597   0.96130   0.00000  Uiso   1.00
H301   H     0.60353   0.81034   0.03690   0.00000  Uiso   1.00
H302   H     0.51264   0.71202   0.91164   0.00000  Uiso   1.00
H303   H     0.68773   0.67531   0.94686   0.00000  Uiso   1.00
H304   H     0.61128   0.90893   0.10254   0.00000  Uiso   1.00
H305   H     0.41966   0.70160   0.83842   0.00000  Uiso   1.00
H306   H     0.78886   0.62419   0.91268   0.00000  Uiso   1.00
H307   H     0.65628   0.86029   0.82131   0.00000  Uiso   1.00
H308   H     0.65997   0.94148   0.88923   0.00000  Uiso   1.00
H309   H     0.56908   0.84316   0.76397   0.00000  Uiso   1.00
H310   H     0.74416   0.80645   0.79919   0.00000  Uiso   1.00
H311   H     0.65709   0.01537   0.98269   0.00000  Uiso   1.00
H312   H     0.46546   0.80803   0.71857   0.00000  Uiso   1.00
H313   H     0.83466   0.73063   0.79283   0.00000  Uiso   1.00
O314   O     0.63563   0.01332   0.08982   0.00000  Uiso   1.00
O315   O     0.38423   0.74130   0.74330   0.00000  Uiso   1.00
O316   O     0.86861   0.63974   0.84072   0.00000  Uiso   1.00
N317   N     0.62157   0.92283   0.06502   0.00000  Uiso   1.00
N318   N     0.44240   0.72900   0.81808   0.00000  Uiso   1.00
N319   N     0.78757   0.65662   0.88750   0.00000  Uiso   1.00
N320   N     0.64622   0.98011   0.00053   0.00000  Uiso   1.00
N321   N     0.46705   0.78627   0.75359   0.00000  Uiso   1.00
N322   N     0.81222   0.71389   0.82301   0.00000  Uiso   1.00
C323   C     0.38497   0.23554   0.92923   0.00000  Uiso   1.00
C324   C     0.37713   0.17790   0.95089   0.00000  Uiso   1.00
C325   C     0.38428   0.16134   0.00503   0.00000  Uiso   1.00
C326   C     0.37513   0.10683   0.01653   0.00000  Uiso   1.00
C327   C     0.36539   0.02288   0.05643   0.00000  Uiso   1.00
C328   C     0.42652   0.23132   0.88284   0.00000  Uiso   1.00
C329   C     0.47519   0.25967   0.87976   0.00000  Uiso   1.00
C330   C     0.50760   0.25013   0.83397   0.00000  Uiso   1.00
C331   C     0.57451   0.24914   0.76819   0.00000  Uiso   1.00
C332   C     0.33139   0.25126   0.90198   0.00000  Uiso   1.00
C333   C     0.30008   0.29639   0.91497   0.00000  Uiso   1.00
C334   C     0.25240   0.30364   0.88529   0.00000  Uiso   1.00
C335   C     0.17161   0.33362   0.84923   0.00000  Uiso   1.00
C336   C     0.35598   0.16819   0.85338   0.00000  Uiso   1.00
C337   C     0.36139   0.14132   0.90970   0.00000  Uiso   1.00
C338   C     0.35222   0.08682   0.92112   0.00000  Uiso   1.00
C339   C     0.35935   0.07018   0.97527   0.00000  Uiso   1.00
C340   C     0.41078   0.19474   0.84164   0.00000  Uiso   1.00
C341   C     0.44312   0.18515   0.79585   0.00000  Uiso   1.00
C342   C     0.49183   0.21348   0.79270   0.00000  Uiso   1.00
C343   C     0.31564   0.21468   0.86078   0.00000  Uiso   1.00
C344   C     0.26801   0.22187   0.83107   0.00000  Uiso   1.00
C345   C     0.23663   0.26700   0.84402   0.00000  Uiso   1.00
H346   H     0.39723   0.26403   0.96130   0.00000  Uiso   1.00
H347   H     0.39647   0.18966   0.03690   0.00000  Uiso   1.00
H348   H     0.48736   0.28798   0.91164   0.00000  Uiso   1.00
H349   H     0.31227   0.32469   0.94686   0.00000  Uiso   1.00
H350   H     0.38872   0.09107   0.10254   0.00000  Uiso   1.00
H351   H     0.58034   0.29840   0.83842   0.00000  Uiso   1.00
H352   H     0.21114   0.37581   0.91268   0.00000  Uiso   1.00
H353   H     0.34372   0.13971   0.82131   0.00000  Uiso   1.00
H354   H     0.34003   0.05852   0.88923   0.00000  Uiso   1.00
H355   H     0.43092   0.15684   0.76397   0.00000  Uiso   1.00
H356   H     0.25584   0.19355   0.79919   0.00000  Uiso   1.00
H357   H     0.34291   0.98463   0.98269   0.00000  Uiso   1.00
H358   H     0.53454   0.19197   0.71857   0.00000  Uiso   1.00
H359   H     0.16534   0.26937   0.79283   0.00000  Uiso   1.00
O360   O     0.36437   0.98668   0.08982   0.00000  Uiso   1.00
O361   O     0.61577   0.25870   0.74330   0.00000  Uiso   1.00
O362   O     0.13139   0.36026   0.84072   0.00000  Uiso   1.00
N363   N     0.37843   0.07717   0.06502   0.00000  Uiso   1.00
N364   N     0.55760   0.27100   0.81808   0.00000  Uiso   1.00
N365   N     0.21243   0.34338   0.88750   0.00000  Uiso   1.00
N366   N     0.35378   0.01989   0.00053   0.00000  Uiso   1.00
N367   N     0.53295   0.21373   0.75359   0.00000  Uiso   1.00
N368   N     0.18778   0.28611   0.82301   0.00000  Uiso   1.00
C369   C     0.73554   0.88497   0.42923   0.00000  Uiso   1.00
C370   C     0.67790   0.87713   0.45089   0.00000  Uiso   1.00
C371   C     0.66134   0.88428   0.50503   0.00000  Uiso   1.00
C372   C     0.60683   0.87513   0.51653   0.00000  Uiso   1.00
C373   C     0.52288   0.86539   0.55643   0.00000  Uiso   1.00
C374   C     0.73132   0.92652   0.38284   0.00000  Uiso   1.00
C375   C     0.75967   0.97519   0.37976   0.00000  Uiso   1.00
C376   C     0.75013   0.00760   0.33397   0.00000  Uiso   1.00
C377   C     0.74914   0.07451   0.26819   0.00000  Uiso   1.00
C378   C     0.75126   0.83139   0.40198   0.00000  Uiso   1.00
C379   C     0.79639   0.80008   0.41497   0.00000  Uiso   1.00
C380   C     0.80364   0.75240   0.38529   0.00000  Uiso   1.00
C381   C     0.83362   0.67161   0.34923   0.00000  Uiso   1.00
C382   C     0.66819   0.85598   0.35338   0.00000  Uiso   1.00
C383   C     0.64132   0.86139   0.40970   0.00000  Uiso   1.00
C384   C     0.58682   0.85222   0.42112   0.00000  Uiso   1.00
C385   C     0.57018   0.85935   0.47527   0.00000  Uiso   1.00
C386   C     0.69474   0.91078   0.34164   0.00000  Uiso   1.00
C387   C     0.68515   0.94312   0.29585   0.00000  Uiso   1.00
C388   C     0.71348   0.99183   0.29270   0.00000  Uiso   1.00
C389   C     0.71468   0.81564   0.36078   0.00000  Uiso   1.00
C390   C     0.72187   0.76801   0.33107   0.00000  Uiso   1.00
C391   C     0.76700   0.73663   0.34402   0.00000  Uiso   1.00
H392   H     0.76403   0.89723   0.46130   0.00000  Uiso   1.00
H393   H     0.68966   0.89647   0.53690   0.00000  Uiso   1.00
H394   H     0.78798   0.98736   0.41164   0.00000  Uiso   1.00
H395   H     0.82469   0.81227   0.44686   0.00000  Uiso   1.00
H396   H     0.59107   0.88872   0.60254   0.00000  Uiso   1.00
H397   H     0.79840   0.08034   0.33842   0.00000  Uiso   1.00
H398   H     0.87581   0.71114   0.41268   0.00000  Uiso   1.00
H399   H     0.63971   0.84372   0.32131   0.00000  Uiso   1.00
H400   H     0.55852   0.84003   0.38923   0.00000  Uiso   1.00
H401   H     0.65684   0.93092   0.26397   0.00000  Uiso   1.00
H402   H     0.69355   0.75584   0.29919   0.00000  Uiso   1.00
H403   H     0.48463   0.84291   0.48269   0.00000  Uiso   1.00
H404   H     0.69197   0.03454   0.21857   0.00000  Uiso   1.00
H405   H     0.76937   0.66534   0.29283   0.00000  Uiso   1.00
O406   O     0.48668   0.86437   0.58982   0.00000  Uiso   1.00
O407   O     0.75870   0.11577   0.24330   0.00000  Uiso   1.00
O408   O     0.86026   0.63139   0.34072   0.00000  Uiso   1.00
N409   N     0.57717   0.87843   0.56502   0.00000  Uiso   1.00
N410   N     0.77100   0.05760   0.31808   0.00000  Uiso   1.00
N411   N     0.84338   0.71243   0.38750   0.00000  Uiso   1.00
N412   N     0.51989   0.85378   0.50053   0.00000  Uiso   1.00
N413   N     0.71373   0.03295   0.25359   0.00000  Uiso   1.00
N414   N     0.78611   0.68778   0.32301   0.00000  Uiso   1.00
C415   C     0.26446   0.11503   0.42923   0.00000  Uiso   1.00
C416   C     0.32210   0.12287   0.45089   0.00000  Uiso   1.00
C417   C     0.33866   0.11572   0.50503   0.00000  Uiso   1.00
C418   C     0.39317   0.12487   0.51653   0.00000  Uiso   1.00
C419   C     0.47712   0.13461   0.55643   0.00000  Uiso   1.00
C420   C     0.26868   0.07348   0.38284   0.00000  Uiso   1.00
C421   C     0.24033   0.02481   0.37976   0.00000  Uiso   1.00
C422   C     0.24987   0.99240   0.33397   0.00000  Uiso   1.00
C423   C     0.25086   0.92549   0.26819   0.00000  Uiso   1.00
C424   C     0.24874   0.16861   0.40198   0.00000  Uiso   1.00
C425   C     0.20361   0.19992   0.41497   0.00000  Uiso   1.00
C426   C     0.19636   0.24760   0.38529   0.00000  Uiso   1.00
C427   C     0.16638   0.32839   0.34923   0.00000  Uiso   1.00
C428   C     0.33181   0.14402   0.35338   0.00000  Uiso   1.00
C429   C     0.35868   0.13861   0.40970   0.00000  Uiso   1.00
C430   C     0.41318   0.14778   0.42112   0.00000  Uiso   1.00
C431   C     0.42982   0.14065   0.47527   0.00000  Uiso   1.00
C432   C     0.30526   0.08922   0.34164   0.00000  Uiso   1.00
C433   C     0.31485   0.05688   0.29585   0.00000  Uiso   1.00
C434   C     0.28652   0.00817   0.29270   0.00000  Uiso   1.00
C435   C     0.28532   0.18436   0.36078   0.00000  Uiso   1.00
C436   C     0.27813   0.23199   0.33107   0.00000  Uiso   1.00
C437   C     0.23300   0.26337   0.34402   0.00000  Uiso   1.00
H438   H     0.23597   0.10277   0.46130   0.00000  Uiso   1.00
H439   H     0.31034   0.10353   0.53690   0.00000  Uiso   1.00
H440   H     0.21202   0.01264   0.41164   0.00000  Uiso   1.00
H441   H     0.17531   0.18773   0.44686   0.00000  Uiso   1.00
H442   H     0.40893   0.11128   0.60254   0.00000  Uiso   1.00
H443   H     0.20160   0.91966   0.33842   0.00000  Uiso   1.00
H444   H     0.12419   0.28886   0.41268   0.00000  Uiso   1.00
H445   H     0.36029   0.15628   0.32131   0.00000  Uiso   1.00
H446   H     0.44148   0.15997   0.38923   0.00000  Uiso   1.00
H447   H     0.34316   0.06908   0.26397   0.00000  Uiso   1.00
H448   H     0.30645   0.24416   0.29919   0.00000  Uiso   1.00
H449   H     0.51537   0.15709   0.48269   0.00000  Uiso   1.00
H450   H     0.30803   0.96546   0.21857   0.00000  Uiso   1.00
H451   H     0.23063   0.33466   0.29283   0.00000  Uiso   1.00
O452   O     0.51332   0.13563   0.58982   0.00000  Uiso   1.00
O453   O     0.24130   0.88423   0.24330   0.00000  Uiso   1.00
O454   O     0.13974   0.36861   0.34072   0.00000  Uiso   1.00
N455   N     0.42283   0.12157   0.56502   0.00000  Uiso   1.00
N456   N     0.22900   0.94240   0.31808   0.00000  Uiso   1.00
N457   N     0.15662   0.28757   0.38750   0.00000  Uiso   1.00
N458   N     0.48011   0.14622   0.50053   0.00000  Uiso   1.00
N459   N     0.28627   0.96705   0.25359   0.00000  Uiso   1.00
N460   N     0.21389   0.31222   0.32301   0.00000  Uiso   1.00
C461   C     0.61503   0.23554   0.42923   0.00000  Uiso   1.00
C462   C     0.62287   0.17790   0.45089   0.00000  Uiso   1.00
C463   C     0.61572   0.16134   0.50503   0.00000  Uiso   1.00
C464   C     0.62487   0.10683   0.51653   0.00000  Uiso   1.00
C465   C     0.63461   0.02288   0.55643   0.00000  Uiso   1.00
C466   C     0.57348   0.23132   0.38284   0.00000  Uiso   1.00
C467   C     0.52481   0.25967   0.37976   0.00000  Uiso   1.00
C468   C     0.49240   0.25013   0.33397   0.00000  Uiso   1.00
C469   C     0.42549   0.24914   0.26819   0.00000  Uiso   1.00
C470   C     0.66861   0.25126   0.40198   0.00000  Uiso   1.00
C471   C     0.69992   0.29639   0.41497   0.00000  Uiso   1.00
C472   C     0.74760   0.30364   0.38529   0.00000  Uiso   1.00
C473   C     0.82839   0.33362   0.34923   0.00000  Uiso   1.00
C474   C     0.64402   0.16819   0.35338   0.00000  Uiso   1.00
C475   C     0.63861   0.14132   0.40970   0.00000  Uiso   1.00
C476   C     0.64778   0.08682   0.42112   0.00000  Uiso   1.00
C477   C     0.64065   0.07018   0.47527   0.00000  Uiso   1.00
C478   C     0.58922   0.19474   0.34164   0.00000  Uiso   1.00
C479   C     0.55688   0.18515   0.29585   0.00000  Uiso   1.00
C480   C     0.50817   0.21348   0.29270   0.00000  Uiso   1.00
C481   C     0.68436   0.21468   0.36078   0.00000  Uiso   1.00
C482   C     0.73199   0.22187   0.33107   0.00000  Uiso   1.00
C483   C     0.76337   0.26700   0.34402   0.00000  Uiso   1.00
H484   H     0.60277   0.26403   0.46130   0.00000  Uiso   1.00
H485   H     0.60353   0.18966   0.53690   0.00000  Uiso   1.00
H486   H     0.51264   0.28798   0.41164   0.00000  Uiso   1.00
H487   H     0.68773   0.32469   0.44686   0.00000  Uiso   1.00
H488   H     0.61128   0.09107   0.60254   0.00000  Uiso   1.00
H489   H     0.41966   0.29840   0.33842   0.00000  Uiso   1.00
H490   H     0.78886   0.37581   0.41268   0.00000  Uiso   1.00
H491   H     0.65628   0.13971   0.32131   0.00000  Uiso   1.00
H492   H     0.65997   0.05852   0.38923   0.00000  Uiso   1.00
H493   H     0.56908   0.15684   0.26397   0.00000  Uiso   1.00
H494   H     0.74416   0.19355   0.29919   0.00000  Uiso   1.00
H495   H     0.65709   0.98463   0.48269   0.00000  Uiso   1.00
H496   H     0.46546   0.19197   0.21857   0.00000  Uiso   1.00
H497   H     0.83466   0.26937   0.29283   0.00000  Uiso   1.00
O498   O     0.63563   0.98668   0.58982   0.00000  Uiso   1.00
O499   O     0.38423   0.25870   0.24330   0.00000  Uiso   1.00
O500   O     0.86861   0.36026   0.34072   0.00000  Uiso   1.00
N501   N     0.62157   0.07717   0.56502   0.00000  Uiso   1.00
N502   N     0.44240   0.27100   0.31808   0.00000  Uiso   1.00
N503   N     0.78757   0.34338   0.38750   0.00000  Uiso   1.00
N504   N     0.64622   0.01989   0.50053   0.00000  Uiso   1.00
N505   N     0.46705   0.21373   0.25359   0.00000  Uiso   1.00
N506   N     0.81222   0.28611   0.32301   0.00000  Uiso   1.00
C507   C     0.38497   0.76446   0.42923   0.00000  Uiso   1.00
C508   C     0.37713   0.82210   0.45089   0.00000  Uiso   1.00
C509   C     0.38428   0.83866   0.50503   0.00000  Uiso   1.00
C510   C     0.37513   0.89317   0.51653   0.00000  Uiso   1.00
C511   C     0.36539   0.97712   0.55643   0.00000  Uiso   1.00
C512   C     0.42652   0.76868   0.38284   0.00000  Uiso   1.00
C513   C     0.47519   0.74033   0.37976   0.00000  Uiso   1.00
C514   C     0.50760   0.74987   0.33397   0.00000  Uiso   1.00
C515   C     0.57451   0.75086   0.26819   0.00000  Uiso   1.00
C516   C     0.33139   0.74874   0.40198   0.00000  Uiso   1.00
C517   C     0.30008   0.70361   0.41497   0.00000  Uiso   1.00
C518   C     0.25240   0.69636   0.38529   0.00000  Uiso   1.00
C519   C     0.17161   0.66638   0.34923   0.00000  Uiso   1.00
C520   C     0.35598   0.83181   0.35338   0.00000  Uiso   1.00
C521   C     0.36139   0.85868   0.40970   0.00000  Uiso   1.00
C522   C     0.35222   0.91318   0.42112   0.00000  Uiso   1.00
C523   C     0.35935   0.92982   0.47527   0.00000  Uiso   1.00
C524   C     0.41078   0.80526   0.34164   0.00000  Uiso   1.00
C525   C     0.44312   0.81485   0.29585   0.00000  Uiso   1.00
C526   C     0.49183   0.78652   0.29270   0.00000  Uiso   1.00
C527   C     0.31564   0.78532   0.36078   0.00000  Uiso   1.00
C528   C     0.26801   0.77813   0.33107   0.00000  Uiso   1.00
C529   C     0.23663   0.73300   0.34402   0.00000  Uiso   1.00
H530   H     0.39723   0.73597   0.46130   0.00000  Uiso   1.00
H531   H     0.39647   0.81034   0.53690   0.00000  Uiso   1.00
H532   H     0.48736   0.71202   0.41164   0.00000  Uiso   1.00
H533   H     0.31227   0.67531   0.44686   0.00000  Uiso   1.00
H534   H     0.38872   0.90893   0.60254   0.00000  Uiso   1.00
H535   H     0.58034   0.70160   0.33842   0.00000  Uiso   1.00
H536   H     0.21114   0.62419   0.41268   0.00000  Uiso   1.00
H537   H     0.34372   0.86029   0.32131   0.00000  Uiso   1.00
H538   H     0.34003   0.94148   0.38923   0.00000  Uiso   1.00
H539   H     0.43092   0.84316   0.26397   0.00000  Uiso   1.00
H540   H     0.25584   0.80645   0.29919   0.00000  Uiso   1.00
H541   H     0.34291   0.01537   0.48269   0.00000  Uiso   1.00
H542   H     0.53454   0.80803   0.21857   0.00000  Uiso   1.00
H543   H     0.16534   0.73063   0.29283   0.00000  Uiso   1.00
O544   O     0.36437   0.01332   0.58982   0.00000  Uiso   1.00
O545   O     0.61577   0.74130   0.24330   0.00000  Uiso   1.00
O546   O     0.13139   0.63974   0.34072   0.00000  Uiso   1.00
N547   N     0.37843   0.92283   0.56502   0.00000  Uiso   1.00
N548   N     0.55760   0.72900   0.31808   0.00000  Uiso   1.00
N549   N     0.21243   0.65662   0.38750   0.00000  Uiso   1.00
N550   N     0.35378   0.98011   0.50053   0.00000  Uiso   1.00
N551   N     0.53295   0.78627   0.25359   0.00000  Uiso   1.00
N552   N     0.18778   0.71389   0.32301   0.00000  Uiso   1.00
C553   C     0.76446   0.38497   0.07077   0.00000  Uiso   1.00
C554   C     0.82210   0.37713   0.04911   0.00000  Uiso   1.00
C555   C     0.83866   0.38428   0.99497   0.00000  Uiso   1.00
C556   C     0.89317   0.37513   0.98347   0.00000  Uiso   1.00
C557   C     0.97712   0.36539   0.94357   0.00000  Uiso   1.00
C558   C     0.76868   0.42652   0.11716   0.00000  Uiso   1.00
C559   C     0.74033   0.47519   0.12024   0.00000  Uiso   1.00
C560   C     0.74987   0.50760   0.16603   0.00000  Uiso   1.00
C561   C     0.75086   0.57451   0.23181   0.00000  Uiso   1.00
C562   C     0.74874   0.33139   0.09802   0.00000  Uiso   1.00
C563   C     0.70361   0.30008   0.08503   0.00000  Uiso   1.00
C564   C     0.69636   0.25240   0.11471   0.00000  Uiso   1.00
C565   C     0.66638   0.17161   0.15077   0.00000  Uiso   1.00
C566   C     0.83181   0.35598   0.14662   0.00000  Uiso   1.00
C567   C     0.85868   0.36139   0.09030   0.00000  Uiso   1.00
C568   C     0.91318   0.35222   0.07888   0.00000  Uiso   1.00
C569   C     0.92982   0.35935   0.02473   0.00000  Uiso   1.00
C570   C     0.80526   0.41078   0.15836   0.00000  Uiso   1.00
C571   C     0.81485   0.44312   0.20415   0.00000  Uiso   1.00
C572   C     0.78652   0.49183   0.20730   0.00000  Uiso   1.00
C573   C     0.78532   0.31564   0.13922   0.00000  Uiso   1.00
C574   C     0.77813   0.26801   0.16893   0.00000  Uiso   1.00
C575   C     0.73300   0.23663   0.15598   0.00000  Uiso   1.00
H576   H     0.73597   0.39723   0.03870   0.00000  Uiso   1.00
H577   H     0.81034   0.39647   0.96310   0.00000  Uiso   1.00
H578   H     0.71202   0.48736   0.08836   0.00000  Uiso   1.00
H579   H     0.67531   0.31227   0.05314   0.00000  Uiso   1.00
H580   H     0.90893   0.38872   0.89746   0.00000  Uiso   1.00
H581   H     0.70160   0.58034   0.16158   0.00000  Uiso   1.00
H582   H     0.62419   0.21114   0.08732   0.00000  Uiso   1.00
H583   H     0.86029   0.34372   0.17869   0.00000  Uiso   1.00
H584   H     0.94148   0.34003   0.11077   0.00000  Uiso   1.00
H585   H     0.84316   0.43092   0.23603   0.00000  Uiso   1.00
H586   H     0.80645   0.25584   0.20081   0.00000  Uiso   1.00
H587   H     0.01537   0.34291   0.01731   0.00000  Uiso   1.00
H588   H     0.80803   0.53454   0.28143   0.00000  Uiso   1.00
H589   H     0.73063   0.16534   0.20717   0.00000  Uiso   1.00
O590   O     0.01332   0.36437   0.91018   0.00000  Uiso   1.00
O591   O     0.74130   0.61577   0.25670   0.00000  Uiso   1.00
O592   O     0.63974   0.13139   0.15928   0.00000  Uiso   1.00
N593   N     0.92283   0.37843   0.93498   0.00000  Uiso   1.00
N594   N     0.72900   0.55760   0.18192   0.00000  Uiso   1.00
N595   N     0.65662   0.21243   0.11250   0.00000  Uiso   1.00
N596   N     0.98011   0.35378   0.99947   0.00000  Uiso   1.00
N597   N     0.78627   0.53295   0.24641   0.00000  Uiso   1.00
N598   N     0.71389   0.18778   0.17699   0.00000  Uiso   1.00
C599   C     0.23554   0.61503   0.07077   0.00000  Uiso   1.00
C600   C     0.17790   0.62287   0.04911   0.00000  Uiso   1.00
C601   C     0.16134   0.61572   0.99497   0.00000  Uiso   1.00
C602   C     0.10683   0.62487   0.98347   0.00000  Uiso   1.00
C603   C     0.02288   0.63461   0.94357   0.00000  Uiso   1.00
C604   C     0.23132   0.57348   0.11716   0.00000  Uiso   1.00
C605   C     0.25967   0.52481   0.12024   0.00000  Uiso   1.00
C606   C     0.25013   0.49240   0.16603   0.00000  Uiso   1.00
C607   C     0.24914   0.42549   0.23181   0.00000  Uiso   1.00
C608   C     0.25126   0.66861   0.09802   0.00000  Uiso   1.00
C609   C     0.29639   0.69992   0.08503   0.00000  Uiso   1.00
C610   C     0.30364   0.74760   0.11471   0.00000  Uiso   1.00
C611   C     0.33362   0.82839   0.15077   0.00000  Uiso   1.00
C612   C     0.16819   0.64402   0.14662   0.00000  Uiso   1.00
C613   C     0.14132   0.63861   0.09030   0.00000  Uiso   1.00
C614   C     0.08682   0.64778   0.07888   0.00000  Uiso   1.00
C615   C     0.07018   0.64065   0.02473   0.00000  Uiso   1.00
C616   C     0.19474   0.58922   0.15836   0.00000  Uiso   1.00
C617   C     0.18515   0.55688   0.20415   0.00000  Uiso   1.00
C618   C     0.21348   0.50817   0.20730   0.00000  Uiso   1.00
C619   C     0.21468   0.68436   0.13922   0.00000  Uiso   1.00
C620   C     0.22187   0.73199   0.16893   0.00000  Uiso   1.00
C621   C     0.26700   0.76337   0.15598   0.00000  Uiso   1.00
H622   H     0.26403   0.60277   0.03870   0.00000  Uiso   1.00
H623   H     0.18966   0.60353   0.96310   0.00000  Uiso   1.00
H624   H     0.28798   0.51264   0.08836   0.00000  Uiso   1.00
H625   H     0.32469   0.68773   0.05314   0.00000  Uiso   1.00
H626   H     0.09107   0.61128   0.89746   0.00000  Uiso   1.00
H627   H     0.29840   0.41966   0.16158   0.00000  Uiso   1.00
H628   H     0.37581   0.78886   0.08732   0.00000  Uiso   1.00
H629   H     0.13971   0.65628   0.17869   0.00000  Uiso   1.00
H630   H     0.05852   0.65997   0.11077   0.00000  Uiso   1.00
H631   H     0.15684   0.56908   0.23603   0.00000  Uiso   1.00
H632   H     0.19355   0.74416   0.20081   0.00000  Uiso   1.00
H633   H     0.98463   0.65709   0.01731   0.00000  Uiso   1.00
H634   H     0.19197   0.46546   0.28143   0.00000  Uiso   1.00
H635   H     0.26937   0.83466   0.20717   0.00000  Uiso   1.00
O636   O     0.98668   0.63563   0.91018   0.00000  Uiso   1.00
O637   O     0.25870   0.38423   0.25670   0.00000  Uiso   1.00
O638   O     0.36026   0.86861   0.15928   0.00000  Uiso   1.00
N639   N     0.07717   0.62157   0.93498   0.00000  Uiso   1.00
N640   N     0.27100   0.44240   0.18192   0.00000  Uiso   1.00
N641   N     0.34338   0.78757   0.11250   0.00000  Uiso   1.00
N642   N     0.01989   0.64622   0.99947   0.00000  Uiso   1.00
N643   N     0.21373   0.46705   0.24641   0.00000  Uiso   1.00
N644   N     0.28611   0.81222   0.17699   0.00000  Uiso   1.00
C645   C     0.88497   0.73554   0.07077   0.00000  Uiso   1.00
C646   C     0.87713   0.67790   0.04911   0.00000  Uiso   1.00
C647   C     0.88428   0.66134   0.99497   0.00000  Uiso   1.00
C648   C     0.87513   0.60683   0.98347   0.00000  Uiso   1.00
C649   C     0.86539   0.52288   0.94357   0.00000  Uiso   1.00
C650   C     0.92652   0.73132   0.11716   0.00000  Uiso   1.00
C651   C     0.97519   0.75967   0.12024   0.00000  Uiso   1.00
C652   C     0.00760   0.75013   0.16603   0.00000  Uiso   1.00
C653   C     0.07451   0.74914   0.23181   0.00000  Uiso   1.00
C654   C     0.83139   0.75126   0.09802   0.00000  Uiso   1.00
C655   C     0.80008   0.79639   0.08503   0.00000  Uiso   1.00
C656   C     0.75240   0.80364   0.11471   0.00000  Uiso   1.00
C657   C     0.67161   0.83362   0.15077   0.00000  Uiso   1.00
C658   C     0.85598   0.66819   0.14662   0.00000  Uiso   1.00
C659   C     0.86139   0.64132   0.09030   0.00000  Uiso   1.00
C660   C     0.85222   0.58682   0.07888   0.00000  Uiso   1.00
C661   C     0.85935   0.57018   0.02473   0.00000  Uiso   1.00
C662   C     0.91078   0.69474   0.15836   0.00000  Uiso   1.00
C663   C     0.94312   0.68515   0.20415   0.00000  Uiso   1.00
C664   C     0.99183   0.71348   0.20730   0.00000  Uiso   1.00
C665   C     0.81564   0.71468   0.13922   0.00000  Uiso   1.00
C666   C     0.76801   0.72187   0.16893   0.00000  Uiso   1.00
C667   C     0.73663   0.76700   0.15598   0.00000  Uiso   1.00
H668   H     0.89723   0.76403   0.03870   0.00000  Uiso   1.00
H669   H     0.89647   0.68966   0.96310   0.00000  Uiso   1.00
H670   H     0.98736   0.78798   0.08836   0.00000  Uiso   1.00
H671   H     0.81227   0.82469   0.05314   0.00000  Uiso   1.00
H672   H     0.88872   0.59107   0.89746   0.00000  Uiso   1.00
H673   H     0.08034   0.79840   0.16158   0.00000  Uiso   1.00
H674   H     0.71114   0.87581   0.08732   0.00000  Uiso   1.00
H675   H     0.84372   0.63971   0.17869   0.00000  Uiso   1.00
H676   H     0.84003   0.55852   0.11077   0.00000  Uiso   1.00
H677   H     0.93092   0.65684   0.23603   0.00000  Uiso   1.00
H678   H     0.75584   0.69355   0.20081   0.00000  Uiso   1.00
H679   H     0.84291   0.48463   0.01731   0.00000  Uiso   1.00
H680   H     0.03454   0.69197   0.28143   0.00000  Uiso   1.00
H681   H     0.66534   0.76937   0.20717   0.00000  Uiso   1.00
O682   O     0.86437   0.48668   0.91018   0.00000  Uiso   1.00
O683   O     0.11577   0.75870   0.25670   0.00000  Uiso   1.00
O684   O     0.63139   0.86026   0.15928   0.00000  Uiso   1.00
N685   N     0.87843   0.57717   0.93498   0.00000  Uiso   1.00
N686   N     0.05760   0.77100   0.18192   0.00000  Uiso   1.00
N687   N     0.71243   0.84338   0.11250   0.00000  Uiso   1.00
N688   N     0.85378   0.51989   0.99947   0.00000  Uiso   1.00
N689   N     0.03295   0.71373   0.24641   0.00000  Uiso   1.00
N690   N     0.68778   0.78611   0.17699   0.00000  Uiso   1.00
C691   C     0.11503   0.26446   0.07077   0.00000  Uiso   1.00
C692   C     0.12287   0.32210   0.04911   0.00000  Uiso   1.00
C693   C     0.11572   0.33866   0.99497   0.00000  Uiso   1.00
C694   C     0.12487   0.39317   0.98347   0.00000  Uiso   1.00
C695   C     0.13461   0.47712   0.94357   0.00000  Uiso   1.00
C696   C     0.07348   0.26868   0.11716   0.00000  Uiso   1.00
C697   C     0.02481   0.24033   0.12024   0.00000  Uiso   1.00
C698   C     0.99240   0.24987   0.16603   0.00000  Uiso   1.00
C699   C     0.92549   0.25086   0.23181   0.00000  Uiso   1.00
C700   C     0.16861   0.24874   0.09802   0.00000  Uiso   1.00
C701   C     0.19992   0.20361   0.08503   0.00000  Uiso   1.00
C702   C     0.24760   0.19636   0.11471   0.00000  Uiso   1.00
C703   C     0.32839   0.16638   0.15077   0.00000  Uiso   1.00
C704   C     0.14402   0.33181   0.14662   0.00000  Uiso   1.00
C705   C     0.13861   0.35868   0.09030   0.00000  Uiso   1.00
C706   C     0.14778   0.41318   0.07888   0.00000  Uiso   1.00
C707   C     0.14065   0.42982   0.02473   0.00000  Uiso   1.00
C708   C     0.08922   0.30526   0.15836   0.00000  Uiso   1.00
C709   C     0.05688   0.31485   0.20415   0.00000  Uiso   1.00
C710   C     0.00817   0.28652   0.20730   0.00000  Uiso   1.00
C711   C     0.18436   0.28532   0.13922   0.00000  Uiso   1.00
C712   C     0.23199   0.27813   0.16893   0.00000  Uiso   1.00
C713   C     0.26337   0.23300   0.15598   0.00000  Uiso   1.00
H714   H     0.10277   0.23597   0.03870   0.00000  Uiso   1.00
H715   H     0.10353   0.31034   0.96310   0.00000  Uiso   1.00
H716   H     0.01264   0.21202   0.08836   0.00000  Uiso   1.00
H717   H     0.18773   0.17531   0.05314   0.00000  Uiso   1.00
H718   H     0.11128   0.40893   0.89746   0.00000  Uiso   1.00
H719   H     0.91966   0.20160   0.16158   0.00000  Uiso   1.00
H720   H     0.28886   0.12419   0.08732   0.00000  Uiso   1.00
H721   H     0.15628   0.36029   0.17869   0.00000  Uiso   1.00
H722   H     0.15997   0.44148   0.11077   0.00000  Uiso   1.00
H723   H     0.06908   0.34316   0.23603   0.00000  Uiso   1.00
H724   H     0.24416   0.30645   0.20081   0.00000  Uiso   1.00
H725   H     0.15709   0.51537   0.01731   0.00000  Uiso   1.00
H726   H     0.96546   0.30803   0.28143   0.00000  Uiso   1.00
H727   H     0.33466   0.23063   0.20717   0.00000  Uiso   1.00
O728   O     0.13563   0.51332   0.91018   0.00000  Uiso   1.00
O729   O     0.88423   0.24130   0.25670   0.00000  Uiso   1.00
O730   O     0.36861   0.13974   0.15928   0.00000  Uiso   1.00
N731   N     0.12157   0.42283   0.93498   0.00000  Uiso   1.00
N732   N     0.94240   0.22900   0.18192   0.00000  Uiso   1.00
N733   N     0.28757   0.15662   0.11250   0.00000  Uiso   1.00
N734   N     0.14622   0.48011   0.99947   0.00000  Uiso   1.00
N735   N     0.96705   0.28627   0.24641   0.00000  Uiso   1.00
N736   N     0.31222   0.21389   0.17699   0.00000  Uiso   1.00
