data_job_05025
_audit_creation_date              2018-12-19
_audit_creation_method            'Materials Studio'
_symmetry_space_group_name_H-M    'P1'
_symmetry_Int_Tables_number       1
_symmetry_cell_setting            triclinic
loop_
_symmetry_equiv_pos_as_xyz
  x,y,z
_cell_length_a                    20.6565
_cell_length_b                    40.3709
_cell_length_c                    10.5576
_cell_angle_alpha                 90.0000
_cell_angle_beta                  90.0000
_cell_angle_gamma                 90.0000
loop_
_atom_site_label
_atom_site_type_symbol
_atom_site_fract_x
_atom_site_fract_y
_atom_site_fract_z
_atom_site_U_iso_or_equiv
_atom_site_adp_type
_atom_site_occupancy
C1     C     0.47094   0.24097   0.53726   0.00000  Uiso   1.00
C2     C     0.42746   0.26332   0.61680   0.00000  Uiso   1.00
C3     C     0.43083   0.29762   0.62240   0.00000  Uiso   1.00
C4     C     0.38675   0.31352   0.70087   0.00000  Uiso   1.00
C5     C     0.32622   0.35091   0.81374   0.00000  Uiso   1.00
C6     C     0.50189   0.21662   0.62959   0.00000  Uiso   1.00
C7     C     0.56785   0.21166   0.64592   0.00000  Uiso   1.00
C8     C     0.58642   0.18826   0.73515   0.00000  Uiso   1.00
C9     C     0.64146   0.15314   0.86780   0.00000  Uiso   1.00
C10    C     0.42570   0.22053   0.45408   0.00000  Uiso   1.00
C11    C     0.42761   0.21885   0.32284   0.00000  Uiso   1.00
C12    C     0.38205   0.19873   0.26430   0.00000  Uiso   1.00
C13    C     0.31879   0.16969   0.12445   0.00000  Uiso   1.00
C14    C     0.38664   0.20821   0.66667   0.00000  Uiso   1.00
C15    C     0.38167   0.24552   0.68710   0.00000  Uiso   1.00
C16    C     0.33757   0.26137   0.76558   0.00000  Uiso   1.00
C17    C     0.34088   0.29569   0.77129   0.00000  Uiso   1.00
C18    C     0.45611   0.19883   0.69988   0.00000  Uiso   1.00
C19    C     0.47459   0.17542   0.78910   0.00000  Uiso   1.00
C20    C     0.54056   0.17043   0.80557   0.00000  Uiso   1.00
C21    C     0.37992   0.20274   0.52437   0.00000  Uiso   1.00
C22    C     0.33435   0.18261   0.46603   0.00000  Uiso   1.00
C23    C     0.33618   0.18090   0.33472   0.00000  Uiso   1.00
H24    H     0.50659   0.25483   0.48254   0.00000  Uiso   1.00
H25    H     0.46628   0.31138   0.56799   0.00000  Uiso   1.00
H26    H     0.60327   0.22544   0.59150   0.00000  Uiso   1.00
H27    H     0.46305   0.23262   0.26847   0.00000  Uiso   1.00
H28    H     0.40141   0.36623   0.69377   0.00000  Uiso   1.00
H29    H     0.69027   0.18501   0.74330   0.00000  Uiso   1.00
H30    H     0.39459   0.20017   0.06214   0.00000  Uiso   1.00
H31    H     0.35100   0.19436   0.72140   0.00000  Uiso   1.00
H32    H     0.30215   0.24760   0.81997   0.00000  Uiso   1.00
H33    H     0.43914   0.16166   0.84347   0.00000  Uiso   1.00
H34    H     0.29892   0.16884   0.52045   0.00000  Uiso   1.00
H35    H     0.26820   0.31446   0.89829   0.00000  Uiso   1.00
H36    H     0.55706   0.13324   0.94782   0.00000  Uiso   1.00
H37    H     0.26138   0.14840   0.26666   0.00000  Uiso   1.00
O38    O     0.30549   0.37645   0.85659   0.00000  Uiso   1.00
O39    O     0.68446   0.13870   0.92155   0.00000  Uiso   1.00
O40    O     0.29653   0.15859   0.02789   0.00000  Uiso   1.00
N41    N     0.37675   0.34674   0.72836   0.00000  Uiso   1.00
N42    N     0.64682   0.17731   0.77468   0.00000  Uiso   1.00
N43    N     0.37039   0.19148   0.13785   0.00000  Uiso   1.00
N44    N     0.30507   0.31888   0.83840   0.00000  Uiso   1.00
N45    N     0.57514   0.14946   0.88473   0.00000  Uiso   1.00
N46    N     0.29871   0.16362   0.24790   0.00000  Uiso   1.00
C47    C     0.47094   0.74097   0.03726   0.00000  Uiso   1.00
C48    C     0.42746   0.76332   0.11680   0.00000  Uiso   1.00
C49    C     0.43083   0.79762   0.12240   0.00000  Uiso   1.00
C50    C     0.38675   0.81352   0.20087   0.00000  Uiso   1.00
C51    C     0.32622   0.85091   0.31374   0.00000  Uiso   1.00
C52    C     0.50189   0.71662   0.12959   0.00000  Uiso   1.00
C53    C     0.56785   0.71166   0.14592   0.00000  Uiso   1.00
C54    C     0.58642   0.68826   0.23515   0.00000  Uiso   1.00
C55    C     0.64146   0.65314   0.36780   0.00000  Uiso   1.00
C56    C     0.42570   0.72053   0.95408   0.00000  Uiso   1.00
C57    C     0.42761   0.71885   0.82284   0.00000  Uiso   1.00
C58    C     0.38205   0.69873   0.76430   0.00000  Uiso   1.00
C59    C     0.31879   0.66969   0.62445   0.00000  Uiso   1.00
C60    C     0.38664   0.70821   0.16667   0.00000  Uiso   1.00
C61    C     0.38167   0.74552   0.18710   0.00000  Uiso   1.00
C62    C     0.33757   0.76137   0.26558   0.00000  Uiso   1.00
C63    C     0.34088   0.79569   0.27129   0.00000  Uiso   1.00
C64    C     0.45611   0.69883   0.19988   0.00000  Uiso   1.00
C65    C     0.47459   0.67542   0.28910   0.00000  Uiso   1.00
C66    C     0.54056   0.67043   0.30557   0.00000  Uiso   1.00
C67    C     0.37992   0.70274   0.02437   0.00000  Uiso   1.00
C68    C     0.33435   0.68261   0.96603   0.00000  Uiso   1.00
C69    C     0.33618   0.68090   0.83472   0.00000  Uiso   1.00
H70    H     0.50659   0.75483   0.98254   0.00000  Uiso   1.00
H71    H     0.46628   0.81138   0.06799   0.00000  Uiso   1.00
H72    H     0.60327   0.72544   0.09150   0.00000  Uiso   1.00
H73    H     0.46305   0.73262   0.76847   0.00000  Uiso   1.00
H74    H     0.40141   0.86623   0.19377   0.00000  Uiso   1.00
H75    H     0.69027   0.68501   0.24330   0.00000  Uiso   1.00
H76    H     0.39459   0.70017   0.56214   0.00000  Uiso   1.00
H77    H     0.35100   0.69436   0.22140   0.00000  Uiso   1.00
H78    H     0.30215   0.74760   0.31997   0.00000  Uiso   1.00
H79    H     0.43914   0.66166   0.34347   0.00000  Uiso   1.00
H80    H     0.29892   0.66884   0.02045   0.00000  Uiso   1.00
H81    H     0.26820   0.81446   0.39829   0.00000  Uiso   1.00
H82    H     0.55706   0.63324   0.44782   0.00000  Uiso   1.00
H83    H     0.26138   0.64840   0.76666   0.00000  Uiso   1.00
O84    O     0.30549   0.87645   0.35659   0.00000  Uiso   1.00
O85    O     0.68446   0.63870   0.42155   0.00000  Uiso   1.00
O86    O     0.29653   0.65859   0.52789   0.00000  Uiso   1.00
N87    N     0.37675   0.84674   0.22836   0.00000  Uiso   1.00
N88    N     0.64682   0.67731   0.27468   0.00000  Uiso   1.00
N89    N     0.37039   0.69148   0.63785   0.00000  Uiso   1.00
N90    N     0.30507   0.81888   0.33840   0.00000  Uiso   1.00
N91    N     0.57514   0.64946   0.38473   0.00000  Uiso   1.00
N92    N     0.29871   0.66362   0.74790   0.00000  Uiso   1.00
C93    C     0.97094   0.24097   0.03726   0.00000  Uiso   1.00
C94    C     0.92746   0.26332   0.11680   0.00000  Uiso   1.00
C95    C     0.93083   0.29762   0.12240   0.00000  Uiso   1.00
C96    C     0.88675   0.31352   0.20087   0.00000  Uiso   1.00
C97    C     0.82622   0.35091   0.31374   0.00000  Uiso   1.00
C98    C     0.00189   0.21662   0.12959   0.00000  Uiso   1.00
C99    C     0.06785   0.21166   0.14592   0.00000  Uiso   1.00
C100   C     0.08642   0.18826   0.23515   0.00000  Uiso   1.00
C101   C     0.14146   0.15314   0.36780   0.00000  Uiso   1.00
C102   C     0.92570   0.22053   0.95408   0.00000  Uiso   1.00
C103   C     0.92761   0.21885   0.82284   0.00000  Uiso   1.00
C104   C     0.88205   0.19873   0.76430   0.00000  Uiso   1.00
C105   C     0.81879   0.16969   0.62445   0.00000  Uiso   1.00
C106   C     0.88664   0.20821   0.16667   0.00000  Uiso   1.00
C107   C     0.88167   0.24552   0.18710   0.00000  Uiso   1.00
C108   C     0.83757   0.26137   0.26558   0.00000  Uiso   1.00
C109   C     0.84088   0.29569   0.27129   0.00000  Uiso   1.00
C110   C     0.95611   0.19883   0.19988   0.00000  Uiso   1.00
C111   C     0.97459   0.17542   0.28910   0.00000  Uiso   1.00
C112   C     0.04056   0.17043   0.30557   0.00000  Uiso   1.00
C113   C     0.87992   0.20274   0.02437   0.00000  Uiso   1.00
C114   C     0.83435   0.18261   0.96603   0.00000  Uiso   1.00
C115   C     0.83618   0.18090   0.83472   0.00000  Uiso   1.00
H116   H     0.00659   0.25483   0.98254   0.00000  Uiso   1.00
H117   H     0.96628   0.31138   0.06799   0.00000  Uiso   1.00
H118   H     0.10327   0.22544   0.09150   0.00000  Uiso   1.00
H119   H     0.96305   0.23262   0.76847   0.00000  Uiso   1.00
H120   H     0.90141   0.36623   0.19377   0.00000  Uiso   1.00
H121   H     0.19027   0.18501   0.24330   0.00000  Uiso   1.00
H122   H     0.89459   0.20017   0.56214   0.00000  Uiso   1.00
H123   H     0.85100   0.19436   0.22140   0.00000  Uiso   1.00
H124   H     0.80215   0.24760   0.31997   0.00000  Uiso   1.00
H125   H     0.93914   0.16166   0.34347   0.00000  Uiso   1.00
H126   H     0.79892   0.16884   0.02045   0.00000  Uiso   1.00
H127   H     0.76820   0.31446   0.39829   0.00000  Uiso   1.00
H128   H     0.05706   0.13324   0.44782   0.00000  Uiso   1.00
H129   H     0.76138   0.14840   0.76666   0.00000  Uiso   1.00
O130   O     0.80549   0.37645   0.35659   0.00000  Uiso   1.00
O131   O     0.18446   0.13870   0.42155   0.00000  Uiso   1.00
O132   O     0.79653   0.15859   0.52789   0.00000  Uiso   1.00
N133   N     0.87675   0.34674   0.22836   0.00000  Uiso   1.00
N134   N     0.14682   0.17731   0.27468   0.00000  Uiso   1.00
N135   N     0.87039   0.19148   0.63785   0.00000  Uiso   1.00
N136   N     0.80507   0.31888   0.33840   0.00000  Uiso   1.00
N137   N     0.07514   0.14946   0.38473   0.00000  Uiso   1.00
N138   N     0.79871   0.16362   0.74790   0.00000  Uiso   1.00
C139   C     0.97094   0.74097   0.53726   0.00000  Uiso   1.00
C140   C     0.92746   0.76332   0.61680   0.00000  Uiso   1.00
C141   C     0.93083   0.79762   0.62240   0.00000  Uiso   1.00
C142   C     0.88675   0.81352   0.70087   0.00000  Uiso   1.00
C143   C     0.82622   0.85091   0.81374   0.00000  Uiso   1.00
C144   C     0.00189   0.71662   0.62959   0.00000  Uiso   1.00
C145   C     0.06785   0.71166   0.64592   0.00000  Uiso   1.00
C146   C     0.08642   0.68826   0.73515   0.00000  Uiso   1.00
C147   C     0.14146   0.65314   0.86780   0.00000  Uiso   1.00
C148   C     0.92570   0.72053   0.45408   0.00000  Uiso   1.00
C149   C     0.92761   0.71885   0.32284   0.00000  Uiso   1.00
C150   C     0.88205   0.69873   0.26430   0.00000  Uiso   1.00
C151   C     0.81879   0.66969   0.12445   0.00000  Uiso   1.00
C152   C     0.88664   0.70821   0.66667   0.00000  Uiso   1.00
C153   C     0.88167   0.74552   0.68710   0.00000  Uiso   1.00
C154   C     0.83757   0.76137   0.76558   0.00000  Uiso   1.00
C155   C     0.84088   0.79569   0.77129   0.00000  Uiso   1.00
C156   C     0.95611   0.69883   0.69988   0.00000  Uiso   1.00
C157   C     0.97459   0.67542   0.78910   0.00000  Uiso   1.00
C158   C     0.04056   0.67043   0.80557   0.00000  Uiso   1.00
C159   C     0.87992   0.70274   0.52437   0.00000  Uiso   1.00
C160   C     0.83435   0.68261   0.46603   0.00000  Uiso   1.00
C161   C     0.83618   0.68090   0.33472   0.00000  Uiso   1.00
H162   H     0.00659   0.75483   0.48254   0.00000  Uiso   1.00
H163   H     0.96628   0.81138   0.56799   0.00000  Uiso   1.00
H164   H     0.10327   0.72544   0.59150   0.00000  Uiso   1.00
H165   H     0.96305   0.73262   0.26847   0.00000  Uiso   1.00
H166   H     0.90141   0.86623   0.69377   0.00000  Uiso   1.00
H167   H     0.19027   0.68501   0.74330   0.00000  Uiso   1.00
H168   H     0.89459   0.70017   0.06214   0.00000  Uiso   1.00
H169   H     0.85100   0.69436   0.72140   0.00000  Uiso   1.00
H170   H     0.80215   0.74760   0.81997   0.00000  Uiso   1.00
H171   H     0.93914   0.66166   0.84347   0.00000  Uiso   1.00
H172   H     0.79892   0.66884   0.52045   0.00000  Uiso   1.00
H173   H     0.76820   0.81446   0.89829   0.00000  Uiso   1.00
H174   H     0.05706   0.63324   0.94782   0.00000  Uiso   1.00
H175   H     0.76138   0.64840   0.26666   0.00000  Uiso   1.00
O176   O     0.80549   0.87645   0.85659   0.00000  Uiso   1.00
O177   O     0.18446   0.63870   0.92155   0.00000  Uiso   1.00
O178   O     0.79653   0.65859   0.02789   0.00000  Uiso   1.00
N179   N     0.87675   0.84674   0.72836   0.00000  Uiso   1.00
N180   N     0.14682   0.67731   0.77468   0.00000  Uiso   1.00
N181   N     0.87039   0.69148   0.13785   0.00000  Uiso   1.00
N182   N     0.80507   0.81888   0.83840   0.00000  Uiso   1.00
N183   N     0.07514   0.64946   0.88473   0.00000  Uiso   1.00
N184   N     0.79871   0.66362   0.24790   0.00000  Uiso   1.00
C185   C     0.52906   0.75903   0.53726   0.00000  Uiso   1.00
C186   C     0.57254   0.73668   0.61680   0.00000  Uiso   1.00
C187   C     0.56917   0.70238   0.62240   0.00000  Uiso   1.00
C188   C     0.61325   0.68648   0.70087   0.00000  Uiso   1.00
C189   C     0.67378   0.64909   0.81374   0.00000  Uiso   1.00
C190   C     0.49811   0.78338   0.62959   0.00000  Uiso   1.00
C191   C     0.43215   0.78834   0.64592   0.00000  Uiso   1.00
C192   C     0.41358   0.81174   0.73515   0.00000  Uiso   1.00
C193   C     0.35854   0.84686   0.86780   0.00000  Uiso   1.00
C194   C     0.57430   0.77947   0.45408   0.00000  Uiso   1.00
C195   C     0.57239   0.78115   0.32284   0.00000  Uiso   1.00
C196   C     0.61795   0.80127   0.26430   0.00000  Uiso   1.00
C197   C     0.68121   0.83031   0.12445   0.00000  Uiso   1.00
C198   C     0.61336   0.79179   0.66667   0.00000  Uiso   1.00
C199   C     0.61833   0.75448   0.68710   0.00000  Uiso   1.00
C200   C     0.66243   0.73863   0.76558   0.00000  Uiso   1.00
C201   C     0.65912   0.70431   0.77129   0.00000  Uiso   1.00
C202   C     0.54389   0.80117   0.69988   0.00000  Uiso   1.00
C203   C     0.52541   0.82458   0.78910   0.00000  Uiso   1.00
C204   C     0.45944   0.82957   0.80557   0.00000  Uiso   1.00
C205   C     0.62008   0.79726   0.52437   0.00000  Uiso   1.00
C206   C     0.66565   0.81739   0.46603   0.00000  Uiso   1.00
C207   C     0.66382   0.81910   0.33472   0.00000  Uiso   1.00
H208   H     0.49341   0.74517   0.48254   0.00000  Uiso   1.00
H209   H     0.53372   0.68862   0.56799   0.00000  Uiso   1.00
H210   H     0.39673   0.77456   0.59150   0.00000  Uiso   1.00
H211   H     0.53695   0.76738   0.26847   0.00000  Uiso   1.00
H212   H     0.59859   0.63377   0.69377   0.00000  Uiso   1.00
H213   H     0.30973   0.81499   0.74330   0.00000  Uiso   1.00
H214   H     0.60541   0.79983   0.06214   0.00000  Uiso   1.00
H215   H     0.64900   0.80564   0.72140   0.00000  Uiso   1.00
H216   H     0.69785   0.75240   0.81997   0.00000  Uiso   1.00
H217   H     0.56086   0.83834   0.84347   0.00000  Uiso   1.00
H218   H     0.70108   0.83116   0.52045   0.00000  Uiso   1.00
H219   H     0.73180   0.68554   0.89829   0.00000  Uiso   1.00
H220   H     0.44294   0.86676   0.94782   0.00000  Uiso   1.00
H221   H     0.73862   0.85160   0.26666   0.00000  Uiso   1.00
O222   O     0.69451   0.62355   0.85659   0.00000  Uiso   1.00
O223   O     0.31554   0.86130   0.92155   0.00000  Uiso   1.00
O224   O     0.70347   0.84141   0.02789   0.00000  Uiso   1.00
N225   N     0.62325   0.65326   0.72836   0.00000  Uiso   1.00
N226   N     0.35318   0.82269   0.77468   0.00000  Uiso   1.00
N227   N     0.62961   0.80852   0.13785   0.00000  Uiso   1.00
N228   N     0.69493   0.68112   0.83840   0.00000  Uiso   1.00
N229   N     0.42486   0.85054   0.88473   0.00000  Uiso   1.00
N230   N     0.70129   0.83638   0.24790   0.00000  Uiso   1.00
C231   C     0.52906   0.25903   0.03726   0.00000  Uiso   1.00
C232   C     0.57254   0.23668   0.11680   0.00000  Uiso   1.00
C233   C     0.56917   0.20238   0.12240   0.00000  Uiso   1.00
C234   C     0.61325   0.18648   0.20087   0.00000  Uiso   1.00
C235   C     0.67378   0.14909   0.31374   0.00000  Uiso   1.00
C236   C     0.49811   0.28338   0.12959   0.00000  Uiso   1.00
C237   C     0.43215   0.28834   0.14592   0.00000  Uiso   1.00
C238   C     0.41358   0.31174   0.23515   0.00000  Uiso   1.00
C239   C     0.35854   0.34686   0.36780   0.00000  Uiso   1.00
C240   C     0.57430   0.27947   0.95408   0.00000  Uiso   1.00
C241   C     0.57239   0.28115   0.82284   0.00000  Uiso   1.00
C242   C     0.61795   0.30127   0.76430   0.00000  Uiso   1.00
C243   C     0.68121   0.33031   0.62445   0.00000  Uiso   1.00
C244   C     0.61336   0.29179   0.16667   0.00000  Uiso   1.00
C245   C     0.61833   0.25448   0.18710   0.00000  Uiso   1.00
C246   C     0.66243   0.23863   0.26558   0.00000  Uiso   1.00
C247   C     0.65912   0.20431   0.27129   0.00000  Uiso   1.00
C248   C     0.54389   0.30117   0.19988   0.00000  Uiso   1.00
C249   C     0.52541   0.32458   0.28910   0.00000  Uiso   1.00
C250   C     0.45944   0.32957   0.30557   0.00000  Uiso   1.00
C251   C     0.62008   0.29726   0.02437   0.00000  Uiso   1.00
C252   C     0.66565   0.31739   0.96603   0.00000  Uiso   1.00
C253   C     0.66382   0.31910   0.83472   0.00000  Uiso   1.00
H254   H     0.49341   0.24517   0.98254   0.00000  Uiso   1.00
H255   H     0.53372   0.18862   0.06799   0.00000  Uiso   1.00
H256   H     0.39673   0.27456   0.09150   0.00000  Uiso   1.00
H257   H     0.53695   0.26738   0.76847   0.00000  Uiso   1.00
H258   H     0.59859   0.13377   0.19377   0.00000  Uiso   1.00
H259   H     0.30973   0.31499   0.24330   0.00000  Uiso   1.00
H260   H     0.60541   0.29983   0.56214   0.00000  Uiso   1.00
H261   H     0.64900   0.30564   0.22140   0.00000  Uiso   1.00
H262   H     0.69785   0.25240   0.31997   0.00000  Uiso   1.00
H263   H     0.56086   0.33834   0.34347   0.00000  Uiso   1.00
H264   H     0.70108   0.33116   0.02045   0.00000  Uiso   1.00
H265   H     0.73180   0.18554   0.39829   0.00000  Uiso   1.00
H266   H     0.44294   0.36676   0.44782   0.00000  Uiso   1.00
H267   H     0.73862   0.35160   0.76666   0.00000  Uiso   1.00
O268   O     0.69451   0.12355   0.35659   0.00000  Uiso   1.00
O269   O     0.31554   0.36130   0.42155   0.00000  Uiso   1.00
O270   O     0.70347   0.34141   0.52789   0.00000  Uiso   1.00
N271   N     0.62325   0.15326   0.22836   0.00000  Uiso   1.00
N272   N     0.35318   0.32269   0.27468   0.00000  Uiso   1.00
N273   N     0.62961   0.30852   0.63785   0.00000  Uiso   1.00
N274   N     0.69493   0.18112   0.33840   0.00000  Uiso   1.00
N275   N     0.42486   0.35054   0.38473   0.00000  Uiso   1.00
N276   N     0.70129   0.33638   0.74790   0.00000  Uiso   1.00
C277   C     0.02906   0.75903   0.03726   0.00000  Uiso   1.00
C278   C     0.07254   0.73668   0.11680   0.00000  Uiso   1.00
C279   C     0.06917   0.70238   0.12240   0.00000  Uiso   1.00
C280   C     0.11325   0.68648   0.20087   0.00000  Uiso   1.00
C281   C     0.17378   0.64909   0.31374   0.00000  Uiso   1.00
C282   C     0.99811   0.78338   0.12959   0.00000  Uiso   1.00
C283   C     0.93215   0.78834   0.14592   0.00000  Uiso   1.00
C284   C     0.91358   0.81174   0.23515   0.00000  Uiso   1.00
C285   C     0.85854   0.84686   0.36780   0.00000  Uiso   1.00
C286   C     0.07430   0.77947   0.95408   0.00000  Uiso   1.00
C287   C     0.07239   0.78115   0.82284   0.00000  Uiso   1.00
C288   C     0.11795   0.80127   0.76430   0.00000  Uiso   1.00
C289   C     0.18121   0.83031   0.62445   0.00000  Uiso   1.00
C290   C     0.11336   0.79179   0.16667   0.00000  Uiso   1.00
C291   C     0.11833   0.75448   0.18710   0.00000  Uiso   1.00
C292   C     0.16243   0.73863   0.26558   0.00000  Uiso   1.00
C293   C     0.15912   0.70431   0.27129   0.00000  Uiso   1.00
C294   C     0.04389   0.80117   0.19988   0.00000  Uiso   1.00
C295   C     0.02541   0.82458   0.28910   0.00000  Uiso   1.00
C296   C     0.95944   0.82957   0.30557   0.00000  Uiso   1.00
C297   C     0.12008   0.79726   0.02437   0.00000  Uiso   1.00
C298   C     0.16565   0.81739   0.96603   0.00000  Uiso   1.00
C299   C     0.16382   0.81910   0.83472   0.00000  Uiso   1.00
H300   H     0.99341   0.74517   0.98254   0.00000  Uiso   1.00
H301   H     0.03372   0.68862   0.06799   0.00000  Uiso   1.00
H302   H     0.89673   0.77456   0.09150   0.00000  Uiso   1.00
H303   H     0.03695   0.76738   0.76847   0.00000  Uiso   1.00
H304   H     0.09859   0.63377   0.19377   0.00000  Uiso   1.00
H305   H     0.80973   0.81499   0.24330   0.00000  Uiso   1.00
H306   H     0.10541   0.79983   0.56214   0.00000  Uiso   1.00
H307   H     0.14900   0.80564   0.22140   0.00000  Uiso   1.00
H308   H     0.19785   0.75240   0.31997   0.00000  Uiso   1.00
H309   H     0.06086   0.83834   0.34347   0.00000  Uiso   1.00
H310   H     0.20108   0.83116   0.02045   0.00000  Uiso   1.00
H311   H     0.23180   0.68554   0.39829   0.00000  Uiso   1.00
H312   H     0.94294   0.86676   0.44782   0.00000  Uiso   1.00
H313   H     0.23862   0.85160   0.76666   0.00000  Uiso   1.00
O314   O     0.19451   0.62355   0.35659   0.00000  Uiso   1.00
O315   O     0.81554   0.86130   0.42155   0.00000  Uiso   1.00
O316   O     0.20347   0.84141   0.52789   0.00000  Uiso   1.00
N317   N     0.12325   0.65326   0.22836   0.00000  Uiso   1.00
N318   N     0.85318   0.82269   0.27468   0.00000  Uiso   1.00
N319   N     0.12961   0.80852   0.63785   0.00000  Uiso   1.00
N320   N     0.19493   0.68112   0.33840   0.00000  Uiso   1.00
N321   N     0.92486   0.85054   0.38473   0.00000  Uiso   1.00
N322   N     0.20129   0.83638   0.74790   0.00000  Uiso   1.00
C323   C     0.02906   0.25903   0.53726   0.00000  Uiso   1.00
C324   C     0.07254   0.23668   0.61680   0.00000  Uiso   1.00
C325   C     0.06917   0.20238   0.62240   0.00000  Uiso   1.00
C326   C     0.11325   0.18648   0.70087   0.00000  Uiso   1.00
C327   C     0.17378   0.14909   0.81374   0.00000  Uiso   1.00
C328   C     0.99811   0.28338   0.62959   0.00000  Uiso   1.00
C329   C     0.93215   0.28834   0.64592   0.00000  Uiso   1.00
C330   C     0.91358   0.31174   0.73515   0.00000  Uiso   1.00
C331   C     0.85854   0.34686   0.86780   0.00000  Uiso   1.00
C332   C     0.07430   0.27947   0.45408   0.00000  Uiso   1.00
C333   C     0.07239   0.28115   0.32284   0.00000  Uiso   1.00
C334   C     0.11795   0.30127   0.26430   0.00000  Uiso   1.00
C335   C     0.18121   0.33031   0.12445   0.00000  Uiso   1.00
C336   C     0.11336   0.29179   0.66667   0.00000  Uiso   1.00
C337   C     0.11833   0.25448   0.68710   0.00000  Uiso   1.00
C338   C     0.16243   0.23863   0.76558   0.00000  Uiso   1.00
C339   C     0.15912   0.20431   0.77129   0.00000  Uiso   1.00
C340   C     0.04389   0.30117   0.69988   0.00000  Uiso   1.00
C341   C     0.02541   0.32458   0.78910   0.00000  Uiso   1.00
C342   C     0.95944   0.32957   0.80557   0.00000  Uiso   1.00
C343   C     0.12008   0.29726   0.52437   0.00000  Uiso   1.00
C344   C     0.16565   0.31739   0.46603   0.00000  Uiso   1.00
C345   C     0.16382   0.31910   0.33472   0.00000  Uiso   1.00
H346   H     0.99341   0.24517   0.48254   0.00000  Uiso   1.00
H347   H     0.03372   0.18862   0.56799   0.00000  Uiso   1.00
H348   H     0.89673   0.27456   0.59150   0.00000  Uiso   1.00
H349   H     0.03695   0.26738   0.26847   0.00000  Uiso   1.00
H350   H     0.09859   0.13377   0.69377   0.00000  Uiso   1.00
H351   H     0.80973   0.31499   0.74330   0.00000  Uiso   1.00
H352   H     0.10541   0.29983   0.06214   0.00000  Uiso   1.00
H353   H     0.14900   0.30564   0.72140   0.00000  Uiso   1.00
H354   H     0.19785   0.25240   0.81997   0.00000  Uiso   1.00
H355   H     0.06086   0.33834   0.84347   0.00000  Uiso   1.00
H356   H     0.20108   0.33116   0.52045   0.00000  Uiso   1.00
H357   H     0.23180   0.18554   0.89829   0.00000  Uiso   1.00
H358   H     0.94294   0.36676   0.94782   0.00000  Uiso   1.00
H359   H     0.23862   0.35160   0.26666   0.00000  Uiso   1.00
O360   O     0.19451   0.12355   0.85659   0.00000  Uiso   1.00
O361   O     0.81554   0.36130   0.92155   0.00000  Uiso   1.00
O362   O     0.20347   0.34141   0.02789   0.00000  Uiso   1.00
N363   N     0.12325   0.15326   0.72836   0.00000  Uiso   1.00
N364   N     0.85318   0.32269   0.77468   0.00000  Uiso   1.00
N365   N     0.12961   0.30852   0.13785   0.00000  Uiso   1.00
N366   N     0.19493   0.18112   0.83840   0.00000  Uiso   1.00
N367   N     0.92486   0.35054   0.88473   0.00000  Uiso   1.00
N368   N     0.20129   0.33638   0.24790   0.00000  Uiso   1.00
C369   C     0.72094   0.00903   0.78726   0.00000  Uiso   1.00
C370   C     0.67746   0.98668   0.86680   0.00000  Uiso   1.00
C371   C     0.68083   0.95238   0.87240   0.00000  Uiso   1.00
C372   C     0.63675   0.93648   0.95087   0.00000  Uiso   1.00
C373   C     0.57622   0.89909   0.06374   0.00000  Uiso   1.00
C374   C     0.75189   0.03338   0.87959   0.00000  Uiso   1.00
C375   C     0.81785   0.03834   0.89592   0.00000  Uiso   1.00
C376   C     0.83642   0.06174   0.98515   0.00000  Uiso   1.00
C377   C     0.89146   0.09686   0.11780   0.00000  Uiso   1.00
C378   C     0.67570   0.02947   0.70408   0.00000  Uiso   1.00
C379   C     0.67761   0.03115   0.57284   0.00000  Uiso   1.00
C380   C     0.63205   0.05127   0.51430   0.00000  Uiso   1.00
C381   C     0.56879   0.08031   0.37445   0.00000  Uiso   1.00
C382   C     0.63664   0.04179   0.91667   0.00000  Uiso   1.00
C383   C     0.63167   0.00448   0.93710   0.00000  Uiso   1.00
C384   C     0.58757   0.98863   0.01558   0.00000  Uiso   1.00
C385   C     0.59088   0.95431   0.02129   0.00000  Uiso   1.00
C386   C     0.70611   0.05117   0.94988   0.00000  Uiso   1.00
C387   C     0.72459   0.07458   0.03910   0.00000  Uiso   1.00
C388   C     0.79056   0.07957   0.05557   0.00000  Uiso   1.00
C389   C     0.62992   0.04726   0.77437   0.00000  Uiso   1.00
C390   C     0.58435   0.06739   0.71603   0.00000  Uiso   1.00
C391   C     0.58618   0.06910   0.58472   0.00000  Uiso   1.00
H392   H     0.75659   0.99517   0.73254   0.00000  Uiso   1.00
H393   H     0.71628   0.93862   0.81799   0.00000  Uiso   1.00
H394   H     0.85327   0.02456   0.84150   0.00000  Uiso   1.00
H395   H     0.71305   0.01738   0.51847   0.00000  Uiso   1.00
H396   H     0.65141   0.88377   0.94377   0.00000  Uiso   1.00
H397   H     0.94027   0.06499   0.99330   0.00000  Uiso   1.00
H398   H     0.64459   0.04983   0.31214   0.00000  Uiso   1.00
H399   H     0.60100   0.05564   0.97140   0.00000  Uiso   1.00
H400   H     0.55215   0.00240   0.06997   0.00000  Uiso   1.00
H401   H     0.68914   0.08834   0.09347   0.00000  Uiso   1.00
H402   H     0.54892   0.08116   0.77045   0.00000  Uiso   1.00
H403   H     0.51820   0.93554   0.14829   0.00000  Uiso   1.00
H404   H     0.80706   0.11676   0.19782   0.00000  Uiso   1.00
H405   H     0.51138   0.10160   0.51666   0.00000  Uiso   1.00
O406   O     0.55549   0.87355   0.10659   0.00000  Uiso   1.00
O407   O     0.93446   0.11130   0.17155   0.00000  Uiso   1.00
O408   O     0.54653   0.09141   0.27789   0.00000  Uiso   1.00
N409   N     0.62675   0.90326   0.97836   0.00000  Uiso   1.00
N410   N     0.89682   0.07269   0.02468   0.00000  Uiso   1.00
N411   N     0.62039   0.05852   0.38785   0.00000  Uiso   1.00
N412   N     0.55507   0.93112   0.08840   0.00000  Uiso   1.00
N413   N     0.82514   0.10054   0.13473   0.00000  Uiso   1.00
N414   N     0.54871   0.08638   0.49790   0.00000  Uiso   1.00
C415   C     0.72094   0.50903   0.28726   0.00000  Uiso   1.00
C416   C     0.67746   0.48668   0.36680   0.00000  Uiso   1.00
C417   C     0.68083   0.45238   0.37240   0.00000  Uiso   1.00
C418   C     0.63675   0.43648   0.45087   0.00000  Uiso   1.00
C419   C     0.57622   0.39909   0.56374   0.00000  Uiso   1.00
C420   C     0.75189   0.53338   0.37959   0.00000  Uiso   1.00
C421   C     0.81785   0.53834   0.39592   0.00000  Uiso   1.00
C422   C     0.83642   0.56174   0.48515   0.00000  Uiso   1.00
C423   C     0.89146   0.59686   0.61780   0.00000  Uiso   1.00
C424   C     0.67570   0.52947   0.20408   0.00000  Uiso   1.00
C425   C     0.67761   0.53115   0.07284   0.00000  Uiso   1.00
C426   C     0.63205   0.55127   0.01430   0.00000  Uiso   1.00
C427   C     0.56879   0.58031   0.87445   0.00000  Uiso   1.00
C428   C     0.63664   0.54179   0.41667   0.00000  Uiso   1.00
C429   C     0.63167   0.50448   0.43710   0.00000  Uiso   1.00
C430   C     0.58757   0.48863   0.51558   0.00000  Uiso   1.00
C431   C     0.59088   0.45431   0.52129   0.00000  Uiso   1.00
C432   C     0.70611   0.55117   0.44988   0.00000  Uiso   1.00
C433   C     0.72459   0.57458   0.53910   0.00000  Uiso   1.00
C434   C     0.79056   0.57957   0.55557   0.00000  Uiso   1.00
C435   C     0.62992   0.54726   0.27437   0.00000  Uiso   1.00
C436   C     0.58435   0.56739   0.21603   0.00000  Uiso   1.00
C437   C     0.58618   0.56910   0.08472   0.00000  Uiso   1.00
H438   H     0.75659   0.49517   0.23254   0.00000  Uiso   1.00
H439   H     0.71628   0.43862   0.31799   0.00000  Uiso   1.00
H440   H     0.85327   0.52456   0.34150   0.00000  Uiso   1.00
H441   H     0.71305   0.51738   0.01847   0.00000  Uiso   1.00
H442   H     0.65141   0.38377   0.44377   0.00000  Uiso   1.00
H443   H     0.94027   0.56499   0.49330   0.00000  Uiso   1.00
H444   H     0.64459   0.54983   0.81214   0.00000  Uiso   1.00
H445   H     0.60100   0.55564   0.47140   0.00000  Uiso   1.00
H446   H     0.55215   0.50240   0.56997   0.00000  Uiso   1.00
H447   H     0.68914   0.58834   0.59347   0.00000  Uiso   1.00
H448   H     0.54892   0.58116   0.27045   0.00000  Uiso   1.00
H449   H     0.51820   0.43554   0.64829   0.00000  Uiso   1.00
H450   H     0.80706   0.61676   0.69782   0.00000  Uiso   1.00
H451   H     0.51138   0.60160   0.01666   0.00000  Uiso   1.00
O452   O     0.55549   0.37355   0.60659   0.00000  Uiso   1.00
O453   O     0.93446   0.61130   0.67155   0.00000  Uiso   1.00
O454   O     0.54653   0.59141   0.77789   0.00000  Uiso   1.00
N455   N     0.62675   0.40326   0.47836   0.00000  Uiso   1.00
N456   N     0.89682   0.57269   0.52468   0.00000  Uiso   1.00
N457   N     0.62039   0.55852   0.88785   0.00000  Uiso   1.00
N458   N     0.55507   0.43112   0.58840   0.00000  Uiso   1.00
N459   N     0.82514   0.60054   0.63473   0.00000  Uiso   1.00
N460   N     0.54871   0.58638   0.99790   0.00000  Uiso   1.00
C461   C     0.22094   0.00903   0.28726   0.00000  Uiso   1.00
C462   C     0.17746   0.98668   0.36680   0.00000  Uiso   1.00
C463   C     0.18083   0.95238   0.37240   0.00000  Uiso   1.00
C464   C     0.13675   0.93648   0.45087   0.00000  Uiso   1.00
C465   C     0.07622   0.89909   0.56374   0.00000  Uiso   1.00
C466   C     0.25189   0.03338   0.37959   0.00000  Uiso   1.00
C467   C     0.31785   0.03834   0.39592   0.00000  Uiso   1.00
C468   C     0.33642   0.06174   0.48515   0.00000  Uiso   1.00
C469   C     0.39146   0.09686   0.61780   0.00000  Uiso   1.00
C470   C     0.17570   0.02947   0.20408   0.00000  Uiso   1.00
C471   C     0.17761   0.03115   0.07284   0.00000  Uiso   1.00
C472   C     0.13205   0.05127   0.01430   0.00000  Uiso   1.00
C473   C     0.06879   0.08031   0.87445   0.00000  Uiso   1.00
C474   C     0.13664   0.04179   0.41667   0.00000  Uiso   1.00
C475   C     0.13167   0.00448   0.43710   0.00000  Uiso   1.00
C476   C     0.08757   0.98863   0.51558   0.00000  Uiso   1.00
C477   C     0.09088   0.95431   0.52129   0.00000  Uiso   1.00
C478   C     0.20611   0.05117   0.44988   0.00000  Uiso   1.00
C479   C     0.22459   0.07458   0.53910   0.00000  Uiso   1.00
C480   C     0.29056   0.07957   0.55557   0.00000  Uiso   1.00
C481   C     0.12992   0.04726   0.27437   0.00000  Uiso   1.00
C482   C     0.08435   0.06739   0.21603   0.00000  Uiso   1.00
C483   C     0.08618   0.06910   0.08472   0.00000  Uiso   1.00
H484   H     0.25659   0.99517   0.23254   0.00000  Uiso   1.00
H485   H     0.21628   0.93862   0.31799   0.00000  Uiso   1.00
H486   H     0.35327   0.02456   0.34150   0.00000  Uiso   1.00
H487   H     0.21305   0.01738   0.01847   0.00000  Uiso   1.00
H488   H     0.15141   0.88377   0.44377   0.00000  Uiso   1.00
H489   H     0.44027   0.06499   0.49330   0.00000  Uiso   1.00
H490   H     0.14459   0.04983   0.81214   0.00000  Uiso   1.00
H491   H     0.10100   0.05564   0.47140   0.00000  Uiso   1.00
H492   H     0.05215   0.00240   0.56997   0.00000  Uiso   1.00
H493   H     0.18914   0.08834   0.59347   0.00000  Uiso   1.00
H494   H     0.04892   0.08116   0.27045   0.00000  Uiso   1.00
H495   H     0.01820   0.93554   0.64829   0.00000  Uiso   1.00
H496   H     0.30706   0.11676   0.69782   0.00000  Uiso   1.00
H497   H     0.01138   0.10160   0.01666   0.00000  Uiso   1.00
O498   O     0.05549   0.87355   0.60659   0.00000  Uiso   1.00
O499   O     0.43446   0.11130   0.67155   0.00000  Uiso   1.00
O500   O     0.04653   0.09141   0.77789   0.00000  Uiso   1.00
N501   N     0.12675   0.90326   0.47836   0.00000  Uiso   1.00
N502   N     0.39682   0.07269   0.52468   0.00000  Uiso   1.00
N503   N     0.12039   0.05852   0.88785   0.00000  Uiso   1.00
N504   N     0.05507   0.93112   0.58840   0.00000  Uiso   1.00
N505   N     0.32514   0.10054   0.63473   0.00000  Uiso   1.00
N506   N     0.04871   0.08638   0.99790   0.00000  Uiso   1.00
C507   C     0.22094   0.50903   0.78726   0.00000  Uiso   1.00
C508   C     0.17746   0.48668   0.86680   0.00000  Uiso   1.00
C509   C     0.18083   0.45238   0.87240   0.00000  Uiso   1.00
C510   C     0.13675   0.43648   0.95087   0.00000  Uiso   1.00
C511   C     0.07622   0.39909   0.06374   0.00000  Uiso   1.00
C512   C     0.25189   0.53338   0.87959   0.00000  Uiso   1.00
C513   C     0.31785   0.53834   0.89592   0.00000  Uiso   1.00
C514   C     0.33642   0.56174   0.98515   0.00000  Uiso   1.00
C515   C     0.39146   0.59686   0.11780   0.00000  Uiso   1.00
C516   C     0.17570   0.52947   0.70408   0.00000  Uiso   1.00
C517   C     0.17761   0.53115   0.57284   0.00000  Uiso   1.00
C518   C     0.13205   0.55127   0.51430   0.00000  Uiso   1.00
C519   C     0.06879   0.58031   0.37445   0.00000  Uiso   1.00
C520   C     0.13664   0.54179   0.91667   0.00000  Uiso   1.00
C521   C     0.13167   0.50448   0.93710   0.00000  Uiso   1.00
C522   C     0.08757   0.48863   0.01558   0.00000  Uiso   1.00
C523   C     0.09088   0.45431   0.02129   0.00000  Uiso   1.00
C524   C     0.20611   0.55117   0.94988   0.00000  Uiso   1.00
C525   C     0.22459   0.57458   0.03910   0.00000  Uiso   1.00
C526   C     0.29056   0.57957   0.05557   0.00000  Uiso   1.00
C527   C     0.12992   0.54726   0.77437   0.00000  Uiso   1.00
C528   C     0.08435   0.56739   0.71603   0.00000  Uiso   1.00
C529   C     0.08618   0.56910   0.58472   0.00000  Uiso   1.00
H530   H     0.25659   0.49517   0.73254   0.00000  Uiso   1.00
H531   H     0.21628   0.43862   0.81799   0.00000  Uiso   1.00
H532   H     0.35327   0.52456   0.84150   0.00000  Uiso   1.00
H533   H     0.21305   0.51738   0.51847   0.00000  Uiso   1.00
H534   H     0.15141   0.38377   0.94377   0.00000  Uiso   1.00
H535   H     0.44027   0.56499   0.99330   0.00000  Uiso   1.00
H536   H     0.14459   0.54983   0.31214   0.00000  Uiso   1.00
H537   H     0.10100   0.55564   0.97140   0.00000  Uiso   1.00
H538   H     0.05215   0.50240   0.06997   0.00000  Uiso   1.00
H539   H     0.18914   0.58834   0.09347   0.00000  Uiso   1.00
H540   H     0.04892   0.58116   0.77045   0.00000  Uiso   1.00
H541   H     0.01820   0.43554   0.14829   0.00000  Uiso   1.00
H542   H     0.30706   0.61676   0.19782   0.00000  Uiso   1.00
H543   H     0.01138   0.60160   0.51666   0.00000  Uiso   1.00
O544   O     0.05549   0.37355   0.10659   0.00000  Uiso   1.00
O545   O     0.43446   0.61130   0.17155   0.00000  Uiso   1.00
O546   O     0.04653   0.59141   0.27789   0.00000  Uiso   1.00
N547   N     0.12675   0.40326   0.97836   0.00000  Uiso   1.00
N548   N     0.39682   0.57269   0.02468   0.00000  Uiso   1.00
N549   N     0.12039   0.55852   0.38785   0.00000  Uiso   1.00
N550   N     0.05507   0.43112   0.08840   0.00000  Uiso   1.00
N551   N     0.32514   0.60054   0.13473   0.00000  Uiso   1.00
N552   N     0.04871   0.58638   0.49790   0.00000  Uiso   1.00
C553   C     0.77906   0.49097   0.78726   0.00000  Uiso   1.00
C554   C     0.82254   0.51332   0.86680   0.00000  Uiso   1.00
C555   C     0.81917   0.54762   0.87240   0.00000  Uiso   1.00
C556   C     0.86325   0.56352   0.95087   0.00000  Uiso   1.00
C557   C     0.92378   0.60091   0.06374   0.00000  Uiso   1.00
C558   C     0.74811   0.46662   0.87959   0.00000  Uiso   1.00
C559   C     0.68215   0.46166   0.89592   0.00000  Uiso   1.00
C560   C     0.66358   0.43826   0.98515   0.00000  Uiso   1.00
C561   C     0.60854   0.40314   0.11780   0.00000  Uiso   1.00
C562   C     0.82430   0.47053   0.70408   0.00000  Uiso   1.00
C563   C     0.82239   0.46885   0.57284   0.00000  Uiso   1.00
C564   C     0.86795   0.44873   0.51430   0.00000  Uiso   1.00
C565   C     0.93121   0.41969   0.37445   0.00000  Uiso   1.00
C566   C     0.86336   0.45821   0.91667   0.00000  Uiso   1.00
C567   C     0.86833   0.49552   0.93710   0.00000  Uiso   1.00
C568   C     0.91243   0.51137   0.01558   0.00000  Uiso   1.00
C569   C     0.90912   0.54569   0.02129   0.00000  Uiso   1.00
C570   C     0.79389   0.44883   0.94988   0.00000  Uiso   1.00
C571   C     0.77541   0.42542   0.03910   0.00000  Uiso   1.00
C572   C     0.70944   0.42043   0.05557   0.00000  Uiso   1.00
C573   C     0.87008   0.45274   0.77437   0.00000  Uiso   1.00
C574   C     0.91565   0.43261   0.71603   0.00000  Uiso   1.00
C575   C     0.91382   0.43090   0.58472   0.00000  Uiso   1.00
H576   H     0.74341   0.50483   0.73254   0.00000  Uiso   1.00
H577   H     0.78372   0.56138   0.81799   0.00000  Uiso   1.00
H578   H     0.64673   0.47544   0.84150   0.00000  Uiso   1.00
H579   H     0.78695   0.48262   0.51847   0.00000  Uiso   1.00
H580   H     0.84859   0.61623   0.94377   0.00000  Uiso   1.00
H581   H     0.55973   0.43501   0.99330   0.00000  Uiso   1.00
H582   H     0.85541   0.45017   0.31214   0.00000  Uiso   1.00
H583   H     0.89900   0.44436   0.97140   0.00000  Uiso   1.00
H584   H     0.94785   0.49760   0.06997   0.00000  Uiso   1.00
H585   H     0.81086   0.41166   0.09347   0.00000  Uiso   1.00
H586   H     0.95108   0.41884   0.77045   0.00000  Uiso   1.00
H587   H     0.98180   0.56446   0.14829   0.00000  Uiso   1.00
H588   H     0.69294   0.38324   0.19782   0.00000  Uiso   1.00
H589   H     0.98862   0.39840   0.51666   0.00000  Uiso   1.00
O590   O     0.94451   0.62645   0.10659   0.00000  Uiso   1.00
O591   O     0.56554   0.38870   0.17155   0.00000  Uiso   1.00
O592   O     0.95347   0.40859   0.27789   0.00000  Uiso   1.00
N593   N     0.87325   0.59674   0.97836   0.00000  Uiso   1.00
N594   N     0.60318   0.42731   0.02468   0.00000  Uiso   1.00
N595   N     0.87961   0.44148   0.38785   0.00000  Uiso   1.00
N596   N     0.94493   0.56888   0.08840   0.00000  Uiso   1.00
N597   N     0.67486   0.39946   0.13473   0.00000  Uiso   1.00
N598   N     0.95129   0.41362   0.49790   0.00000  Uiso   1.00
C599   C     0.77906   0.99097   0.28726   0.00000  Uiso   1.00
C600   C     0.82254   0.01332   0.36680   0.00000  Uiso   1.00
C601   C     0.81917   0.04762   0.37240   0.00000  Uiso   1.00
C602   C     0.86325   0.06352   0.45087   0.00000  Uiso   1.00
C603   C     0.92378   0.10091   0.56374   0.00000  Uiso   1.00
C604   C     0.74811   0.96662   0.37959   0.00000  Uiso   1.00
C605   C     0.68215   0.96166   0.39592   0.00000  Uiso   1.00
C606   C     0.66358   0.93826   0.48515   0.00000  Uiso   1.00
C607   C     0.60854   0.90314   0.61780   0.00000  Uiso   1.00
C608   C     0.82430   0.97053   0.20408   0.00000  Uiso   1.00
C609   C     0.82239   0.96885   0.07284   0.00000  Uiso   1.00
C610   C     0.86795   0.94873   0.01430   0.00000  Uiso   1.00
C611   C     0.93121   0.91969   0.87445   0.00000  Uiso   1.00
C612   C     0.86336   0.95821   0.41667   0.00000  Uiso   1.00
C613   C     0.86833   0.99552   0.43710   0.00000  Uiso   1.00
C614   C     0.91243   0.01137   0.51558   0.00000  Uiso   1.00
C615   C     0.90912   0.04569   0.52129   0.00000  Uiso   1.00
C616   C     0.79389   0.94883   0.44988   0.00000  Uiso   1.00
C617   C     0.77541   0.92542   0.53910   0.00000  Uiso   1.00
C618   C     0.70944   0.92043   0.55557   0.00000  Uiso   1.00
C619   C     0.87008   0.95274   0.27437   0.00000  Uiso   1.00
C620   C     0.91565   0.93261   0.21603   0.00000  Uiso   1.00
C621   C     0.91382   0.93090   0.08472   0.00000  Uiso   1.00
H622   H     0.74341   0.00483   0.23254   0.00000  Uiso   1.00
H623   H     0.78372   0.06138   0.31799   0.00000  Uiso   1.00
H624   H     0.64673   0.97544   0.34150   0.00000  Uiso   1.00
H625   H     0.78695   0.98262   0.01847   0.00000  Uiso   1.00
H626   H     0.84859   0.11623   0.44377   0.00000  Uiso   1.00
H627   H     0.55973   0.93501   0.49330   0.00000  Uiso   1.00
H628   H     0.85541   0.95017   0.81214   0.00000  Uiso   1.00
H629   H     0.89900   0.94436   0.47140   0.00000  Uiso   1.00
H630   H     0.94785   0.99760   0.56997   0.00000  Uiso   1.00
H631   H     0.81086   0.91166   0.59347   0.00000  Uiso   1.00
H632   H     0.95108   0.91884   0.27045   0.00000  Uiso   1.00
H633   H     0.98180   0.06446   0.64829   0.00000  Uiso   1.00
H634   H     0.69294   0.88324   0.69782   0.00000  Uiso   1.00
H635   H     0.98862   0.89840   0.01666   0.00000  Uiso   1.00
O636   O     0.94451   0.12645   0.60659   0.00000  Uiso   1.00
O637   O     0.56554   0.88870   0.67155   0.00000  Uiso   1.00
O638   O     0.95347   0.90859   0.77789   0.00000  Uiso   1.00
N639   N     0.87325   0.09674   0.47836   0.00000  Uiso   1.00
N640   N     0.60318   0.92731   0.52468   0.00000  Uiso   1.00
N641   N     0.87961   0.94148   0.88785   0.00000  Uiso   1.00
N642   N     0.94493   0.06888   0.58840   0.00000  Uiso   1.00
N643   N     0.67486   0.89946   0.63473   0.00000  Uiso   1.00
N644   N     0.95129   0.91362   0.99790   0.00000  Uiso   1.00
C645   C     0.27906   0.49097   0.28726   0.00000  Uiso   1.00
C646   C     0.32254   0.51332   0.36680   0.00000  Uiso   1.00
C647   C     0.31917   0.54762   0.37240   0.00000  Uiso   1.00
C648   C     0.36325   0.56352   0.45087   0.00000  Uiso   1.00
C649   C     0.42378   0.60091   0.56374   0.00000  Uiso   1.00
C650   C     0.24811   0.46662   0.37959   0.00000  Uiso   1.00
C651   C     0.18215   0.46166   0.39592   0.00000  Uiso   1.00
C652   C     0.16358   0.43826   0.48515   0.00000  Uiso   1.00
C653   C     0.10854   0.40314   0.61780   0.00000  Uiso   1.00
C654   C     0.32430   0.47053   0.20408   0.00000  Uiso   1.00
C655   C     0.32239   0.46885   0.07284   0.00000  Uiso   1.00
C656   C     0.36795   0.44873   0.01430   0.00000  Uiso   1.00
C657   C     0.43121   0.41969   0.87445   0.00000  Uiso   1.00
C658   C     0.36336   0.45821   0.41667   0.00000  Uiso   1.00
C659   C     0.36833   0.49552   0.43710   0.00000  Uiso   1.00
C660   C     0.41243   0.51137   0.51558   0.00000  Uiso   1.00
C661   C     0.40912   0.54569   0.52129   0.00000  Uiso   1.00
C662   C     0.29389   0.44883   0.44988   0.00000  Uiso   1.00
C663   C     0.27541   0.42542   0.53910   0.00000  Uiso   1.00
C664   C     0.20944   0.42043   0.55557   0.00000  Uiso   1.00
C665   C     0.37008   0.45274   0.27437   0.00000  Uiso   1.00
C666   C     0.41565   0.43261   0.21603   0.00000  Uiso   1.00
C667   C     0.41382   0.43090   0.08472   0.00000  Uiso   1.00
H668   H     0.24341   0.50483   0.23254   0.00000  Uiso   1.00
H669   H     0.28372   0.56138   0.31799   0.00000  Uiso   1.00
H670   H     0.14673   0.47544   0.34150   0.00000  Uiso   1.00
H671   H     0.28695   0.48262   0.01847   0.00000  Uiso   1.00
H672   H     0.34859   0.61623   0.44377   0.00000  Uiso   1.00
H673   H     0.05973   0.43501   0.49330   0.00000  Uiso   1.00
H674   H     0.35541   0.45017   0.81214   0.00000  Uiso   1.00
H675   H     0.39900   0.44436   0.47140   0.00000  Uiso   1.00
H676   H     0.44785   0.49760   0.56997   0.00000  Uiso   1.00
H677   H     0.31086   0.41166   0.59347   0.00000  Uiso   1.00
H678   H     0.45108   0.41884   0.27045   0.00000  Uiso   1.00
H679   H     0.48180   0.56446   0.64829   0.00000  Uiso   1.00
H680   H     0.19294   0.38324   0.69782   0.00000  Uiso   1.00
H681   H     0.48862   0.39840   0.01666   0.00000  Uiso   1.00
O682   O     0.44451   0.62645   0.60659   0.00000  Uiso   1.00
O683   O     0.06554   0.38870   0.67155   0.00000  Uiso   1.00
O684   O     0.45347   0.40859   0.77789   0.00000  Uiso   1.00
N685   N     0.37325   0.59674   0.47836   0.00000  Uiso   1.00
N686   N     0.10318   0.42731   0.52468   0.00000  Uiso   1.00
N687   N     0.37961   0.44148   0.88785   0.00000  Uiso   1.00
N688   N     0.44493   0.56888   0.58840   0.00000  Uiso   1.00
N689   N     0.17486   0.39946   0.63473   0.00000  Uiso   1.00
N690   N     0.45129   0.41362   0.99790   0.00000  Uiso   1.00
C691   C     0.27906   0.99097   0.78726   0.00000  Uiso   1.00
C692   C     0.32254   0.01332   0.86680   0.00000  Uiso   1.00
C693   C     0.31917   0.04762   0.87240   0.00000  Uiso   1.00
C694   C     0.36325   0.06352   0.95087   0.00000  Uiso   1.00
C695   C     0.42378   0.10091   0.06374   0.00000  Uiso   1.00
C696   C     0.24811   0.96662   0.87959   0.00000  Uiso   1.00
C697   C     0.18215   0.96166   0.89592   0.00000  Uiso   1.00
C698   C     0.16358   0.93826   0.98515   0.00000  Uiso   1.00
C699   C     0.10854   0.90314   0.11780   0.00000  Uiso   1.00
C700   C     0.32430   0.97053   0.70408   0.00000  Uiso   1.00
C701   C     0.32239   0.96885   0.57284   0.00000  Uiso   1.00
C702   C     0.36795   0.94873   0.51430   0.00000  Uiso   1.00
C703   C     0.43121   0.91969   0.37445   0.00000  Uiso   1.00
C704   C     0.36336   0.95821   0.91667   0.00000  Uiso   1.00
C705   C     0.36833   0.99552   0.93710   0.00000  Uiso   1.00
C706   C     0.41243   0.01137   0.01558   0.00000  Uiso   1.00
C707   C     0.40912   0.04569   0.02129   0.00000  Uiso   1.00
C708   C     0.29389   0.94883   0.94988   0.00000  Uiso   1.00
C709   C     0.27541   0.92542   0.03910   0.00000  Uiso   1.00
C710   C     0.20944   0.92043   0.05557   0.00000  Uiso   1.00
C711   C     0.37008   0.95274   0.77437   0.00000  Uiso   1.00
C712   C     0.41565   0.93261   0.71603   0.00000  Uiso   1.00
C713   C     0.41382   0.93090   0.58472   0.00000  Uiso   1.00
H714   H     0.24341   0.00483   0.73254   0.00000  Uiso   1.00
H715   H     0.28372   0.06138   0.81799   0.00000  Uiso   1.00
H716   H     0.14673   0.97544   0.84150   0.00000  Uiso   1.00
H717   H     0.28695   0.98262   0.51847   0.00000  Uiso   1.00
H718   H     0.34859   0.11623   0.94377   0.00000  Uiso   1.00
H719   H     0.05973   0.93501   0.99330   0.00000  Uiso   1.00
H720   H     0.35541   0.95017   0.31214   0.00000  Uiso   1.00
H721   H     0.39900   0.94436   0.97140   0.00000  Uiso   1.00
H722   H     0.44785   0.99760   0.06997   0.00000  Uiso   1.00
H723   H     0.31086   0.91166   0.09347   0.00000  Uiso   1.00
H724   H     0.45108   0.91884   0.77045   0.00000  Uiso   1.00
H725   H     0.48180   0.06446   0.14829   0.00000  Uiso   1.00
H726   H     0.19294   0.88324   0.19782   0.00000  Uiso   1.00
H727   H     0.48862   0.89840   0.51666   0.00000  Uiso   1.00
O728   O     0.44451   0.12645   0.10659   0.00000  Uiso   1.00
O729   O     0.06554   0.88870   0.17155   0.00000  Uiso   1.00
O730   O     0.45347   0.90859   0.27789   0.00000  Uiso   1.00
N731   N     0.37325   0.09674   0.97836   0.00000  Uiso   1.00
N732   N     0.10318   0.92731   0.02468   0.00000  Uiso   1.00
N733   N     0.37961   0.94148   0.38785   0.00000  Uiso   1.00
N734   N     0.44493   0.06888   0.08840   0.00000  Uiso   1.00
N735   N     0.17486   0.89946   0.13473   0.00000  Uiso   1.00
N736   N     0.45129   0.91362   0.49790   0.00000  Uiso   1.00
