data_job_02200
_audit_creation_date              2018-12-19
_audit_creation_method            'Materials Studio'
_symmetry_space_group_name_H-M    'P1'
_symmetry_Int_Tables_number       1
_symmetry_cell_setting            triclinic
loop_
_symmetry_equiv_pos_as_xyz
  x,y,z
_cell_length_a                    24.2406
_cell_length_b                    24.2406
_cell_length_c                    19.5333
_cell_angle_alpha                 90.0000
_cell_angle_beta                  90.0000
_cell_angle_gamma                 90.0000
loop_
_atom_site_label
_atom_site_type_symbol
_atom_site_fract_x
_atom_site_fract_y
_atom_site_fract_z
_atom_site_U_iso_or_equiv
_atom_site_adp_type
_atom_site_occupancy
C1     C     0.81023   0.95039   0.06455   0.00000  Uiso   1.00
C2     C     0.78505   0.91360   0.00946   0.00000  Uiso   1.00
C3     C     0.78645   0.92349   0.93950   0.00000  Uiso   1.00
C4     C     0.76101   0.88488   0.89756   0.00000  Uiso   1.00
C5     C     0.72582   0.83490   0.80790   0.00000  Uiso   1.00
C6     C     0.76330   0.96473   0.11339   0.00000  Uiso   1.00
C7     C     0.74642   0.01760   0.13083   0.00000  Uiso   1.00
C8     C     0.70268   0.02203   0.17638   0.00000  Uiso   1.00
C9     C     0.63375   0.05142   0.24812   0.00000  Uiso   1.00
C10    C     0.84966   0.91378   0.10499   0.00000  Uiso   1.00
C11    C     0.90540   0.92383   0.11538   0.00000  Uiso   1.00
C12    C     0.93437   0.88536   0.15388   0.00000  Uiso   1.00
C13    C     0.99955   0.83566   0.21257   0.00000  Uiso   1.00
C14    C     0.76256   0.86423   0.11446   0.00000  Uiso   1.00
C15    C     0.75915   0.86681   0.03657   0.00000  Uiso   1.00
C16    C     0.73370   0.82817   0.99472   0.00000  Uiso   1.00
C17    C     0.73507   0.83800   0.92471   0.00000  Uiso   1.00
C18    C     0.73740   0.91793   0.14050   0.00000  Uiso   1.00
C19    C     0.69368   0.92228   0.18605   0.00000  Uiso   1.00
C20    C     0.67673   0.97515   0.20354   0.00000  Uiso   1.00
C21    C     0.82377   0.86698   0.13210   0.00000  Uiso   1.00
C22    C     0.85266   0.82850   0.17060   0.00000  Uiso   1.00
C23    C     0.90843   0.83848   0.18104   0.00000  Uiso   1.00
H24    H     0.83039   0.98682   0.04345   0.00000  Uiso   1.00
H25    H     0.80649   0.95972   0.91854   0.00000  Uiso   1.00
H26    H     0.76647   0.05381   0.10985   0.00000  Uiso   1.00
H27    H     0.92543   0.96005   0.09440   0.00000  Uiso   1.00
H28    H     0.76856   0.90904   0.79202   0.00000  Uiso   1.00
H29    H     0.68419   0.10744   0.19541   0.00000  Uiso   1.00
H30    H     0.01938   0.90972   0.16284   0.00000  Uiso   1.00
H31    H     0.74239   0.82779   0.13556   0.00000  Uiso   1.00
H32    H     0.71367   0.79196   0.01571   0.00000  Uiso   1.00
H33    H     0.67365   0.88606   0.20702   0.00000  Uiso   1.00
H34    H     0.83261   0.79229   0.19157   0.00000  Uiso   1.00
H35    H     0.69322   0.77288   0.87089   0.00000  Uiso   1.00
H36    H     0.60885   0.97129   0.27428   0.00000  Uiso   1.00
H37    H     0.94404   0.77357   0.24170   0.00000  Uiso   1.00
O38    O     0.71356   0.82027   0.75096   0.00000  Uiso   1.00
O39    O     0.60288   0.08057   0.28020   0.00000  Uiso   1.00
O40    O     0.04265   0.82116   0.23745   0.00000  Uiso   1.00
N41    N     0.75478   0.88191   0.82703   0.00000  Uiso   1.00
N42    N     0.67589   0.06740   0.20417   0.00000  Uiso   1.00
N43    N     0.98927   0.88256   0.17373   0.00000  Uiso   1.00
N44    N     0.71424   0.80864   0.86947   0.00000  Uiso   1.00
N45    N     0.63536   0.99414   0.24661   0.00000  Uiso   1.00
N46    N     0.94873   0.80929   0.21617   0.00000  Uiso   1.00
C47    C     0.18977   0.04961   0.06455   0.00000  Uiso   1.00
C48    C     0.21495   0.08640   0.00946   0.00000  Uiso   1.00
C49    C     0.21355   0.07651   0.93950   0.00000  Uiso   1.00
C50    C     0.23899   0.11512   0.89756   0.00000  Uiso   1.00
C51    C     0.27418   0.16510   0.80790   0.00000  Uiso   1.00
C52    C     0.23670   0.03527   0.11339   0.00000  Uiso   1.00
C53    C     0.25358   0.98240   0.13083   0.00000  Uiso   1.00
C54    C     0.29732   0.97797   0.17638   0.00000  Uiso   1.00
C55    C     0.36625   0.94858   0.24812   0.00000  Uiso   1.00
C56    C     0.15034   0.08622   0.10499   0.00000  Uiso   1.00
C57    C     0.09460   0.07617   0.11538   0.00000  Uiso   1.00
C58    C     0.06563   0.11464   0.15388   0.00000  Uiso   1.00
C59    C     0.00045   0.16434   0.21257   0.00000  Uiso   1.00
C60    C     0.23744   0.13577   0.11446   0.00000  Uiso   1.00
C61    C     0.24085   0.13319   0.03657   0.00000  Uiso   1.00
C62    C     0.26630   0.17183   0.99472   0.00000  Uiso   1.00
C63    C     0.26493   0.16200   0.92471   0.00000  Uiso   1.00
C64    C     0.26260   0.08207   0.14050   0.00000  Uiso   1.00
C65    C     0.30632   0.07772   0.18605   0.00000  Uiso   1.00
C66    C     0.32327   0.02485   0.20354   0.00000  Uiso   1.00
C67    C     0.17623   0.13302   0.13210   0.00000  Uiso   1.00
C68    C     0.14734   0.17150   0.17060   0.00000  Uiso   1.00
C69    C     0.09157   0.16152   0.18104   0.00000  Uiso   1.00
H70    H     0.16961   0.01318   0.04345   0.00000  Uiso   1.00
H71    H     0.19351   0.04028   0.91854   0.00000  Uiso   1.00
H72    H     0.23353   0.94619   0.10985   0.00000  Uiso   1.00
H73    H     0.07457   0.03995   0.09440   0.00000  Uiso   1.00
H74    H     0.23144   0.09096   0.79202   0.00000  Uiso   1.00
H75    H     0.31581   0.89256   0.19541   0.00000  Uiso   1.00
H76    H     0.98062   0.09028   0.16284   0.00000  Uiso   1.00
H77    H     0.25761   0.17221   0.13556   0.00000  Uiso   1.00
H78    H     0.28633   0.20804   0.01571   0.00000  Uiso   1.00
H79    H     0.32635   0.11394   0.20702   0.00000  Uiso   1.00
H80    H     0.16739   0.20771   0.19157   0.00000  Uiso   1.00
H81    H     0.30678   0.22712   0.87089   0.00000  Uiso   1.00
H82    H     0.39115   0.02871   0.27428   0.00000  Uiso   1.00
H83    H     0.05596   0.22643   0.24170   0.00000  Uiso   1.00
O84    O     0.28644   0.17973   0.75096   0.00000  Uiso   1.00
O85    O     0.39712   0.91943   0.28020   0.00000  Uiso   1.00
O86    O     0.95735   0.17884   0.23745   0.00000  Uiso   1.00
N87    N     0.24522   0.11809   0.82703   0.00000  Uiso   1.00
N88    N     0.32411   0.93260   0.20417   0.00000  Uiso   1.00
N89    N     0.01073   0.11744   0.17373   0.00000  Uiso   1.00
N90    N     0.28576   0.19136   0.86947   0.00000  Uiso   1.00
N91    N     0.36464   0.00586   0.24661   0.00000  Uiso   1.00
N92    N     0.05127   0.19071   0.21617   0.00000  Uiso   1.00
C93    C     0.54961   0.31023   0.06455   0.00000  Uiso   1.00
C94    C     0.58640   0.28505   0.00946   0.00000  Uiso   1.00
C95    C     0.57651   0.28645   0.93950   0.00000  Uiso   1.00
C96    C     0.61512   0.26101   0.89756   0.00000  Uiso   1.00
C97    C     0.66510   0.22582   0.80790   0.00000  Uiso   1.00
C98    C     0.53527   0.26330   0.11339   0.00000  Uiso   1.00
C99    C     0.48240   0.24642   0.13083   0.00000  Uiso   1.00
C100   C     0.47797   0.20268   0.17638   0.00000  Uiso   1.00
C101   C     0.44858   0.13375   0.24812   0.00000  Uiso   1.00
C102   C     0.58622   0.34966   0.10499   0.00000  Uiso   1.00
C103   C     0.57617   0.40540   0.11538   0.00000  Uiso   1.00
C104   C     0.61464   0.43437   0.15388   0.00000  Uiso   1.00
C105   C     0.66434   0.49955   0.21257   0.00000  Uiso   1.00
C106   C     0.63577   0.26256   0.11446   0.00000  Uiso   1.00
C107   C     0.63319   0.25915   0.03657   0.00000  Uiso   1.00
C108   C     0.67183   0.23370   0.99472   0.00000  Uiso   1.00
C109   C     0.66200   0.23507   0.92471   0.00000  Uiso   1.00
C110   C     0.58207   0.23740   0.14050   0.00000  Uiso   1.00
C111   C     0.57772   0.19368   0.18605   0.00000  Uiso   1.00
C112   C     0.52485   0.17673   0.20354   0.00000  Uiso   1.00
C113   C     0.63302   0.32377   0.13210   0.00000  Uiso   1.00
C114   C     0.67150   0.35266   0.17060   0.00000  Uiso   1.00
C115   C     0.66152   0.40843   0.18104   0.00000  Uiso   1.00
H116   H     0.51318   0.33039   0.04345   0.00000  Uiso   1.00
H117   H     0.54028   0.30649   0.91854   0.00000  Uiso   1.00
H118   H     0.44619   0.26647   0.10985   0.00000  Uiso   1.00
H119   H     0.53995   0.42543   0.09440   0.00000  Uiso   1.00
H120   H     0.59096   0.26856   0.79202   0.00000  Uiso   1.00
H121   H     0.39256   0.18419   0.19541   0.00000  Uiso   1.00
H122   H     0.59028   0.51938   0.16284   0.00000  Uiso   1.00
H123   H     0.67221   0.24239   0.13556   0.00000  Uiso   1.00
H124   H     0.70804   0.21367   0.01571   0.00000  Uiso   1.00
H125   H     0.61394   0.17365   0.20702   0.00000  Uiso   1.00
H126   H     0.70771   0.33261   0.19157   0.00000  Uiso   1.00
H127   H     0.72712   0.19322   0.87089   0.00000  Uiso   1.00
H128   H     0.52871   0.10885   0.27428   0.00000  Uiso   1.00
H129   H     0.72643   0.44404   0.24170   0.00000  Uiso   1.00
O130   O     0.67973   0.21356   0.75096   0.00000  Uiso   1.00
O131   O     0.41943   0.10288   0.28020   0.00000  Uiso   1.00
O132   O     0.67884   0.54265   0.23745   0.00000  Uiso   1.00
N133   N     0.61809   0.25478   0.82703   0.00000  Uiso   1.00
N134   N     0.43260   0.17589   0.20417   0.00000  Uiso   1.00
N135   N     0.61744   0.48927   0.17373   0.00000  Uiso   1.00
N136   N     0.69136   0.21424   0.86947   0.00000  Uiso   1.00
N137   N     0.50586   0.13536   0.24661   0.00000  Uiso   1.00
N138   N     0.69071   0.44873   0.21617   0.00000  Uiso   1.00
C139   C     0.45039   0.68977   0.06455   0.00000  Uiso   1.00
C140   C     0.41360   0.71495   0.00946   0.00000  Uiso   1.00
C141   C     0.42349   0.71355   0.93950   0.00000  Uiso   1.00
C142   C     0.38488   0.73899   0.89756   0.00000  Uiso   1.00
C143   C     0.33490   0.77418   0.80790   0.00000  Uiso   1.00
C144   C     0.46473   0.73670   0.11339   0.00000  Uiso   1.00
C145   C     0.51760   0.75358   0.13083   0.00000  Uiso   1.00
C146   C     0.52203   0.79732   0.17638   0.00000  Uiso   1.00
C147   C     0.55142   0.86625   0.24812   0.00000  Uiso   1.00
C148   C     0.41378   0.65034   0.10499   0.00000  Uiso   1.00
C149   C     0.42383   0.59460   0.11538   0.00000  Uiso   1.00
C150   C     0.38536   0.56563   0.15388   0.00000  Uiso   1.00
C151   C     0.33566   0.50045   0.21257   0.00000  Uiso   1.00
C152   C     0.36423   0.73744   0.11446   0.00000  Uiso   1.00
C153   C     0.36681   0.74085   0.03657   0.00000  Uiso   1.00
C154   C     0.32817   0.76630   0.99472   0.00000  Uiso   1.00
C155   C     0.33800   0.76493   0.92471   0.00000  Uiso   1.00
C156   C     0.41793   0.76260   0.14050   0.00000  Uiso   1.00
C157   C     0.42228   0.80632   0.18605   0.00000  Uiso   1.00
C158   C     0.47515   0.82327   0.20354   0.00000  Uiso   1.00
C159   C     0.36698   0.67623   0.13210   0.00000  Uiso   1.00
C160   C     0.32850   0.64734   0.17060   0.00000  Uiso   1.00
C161   C     0.33848   0.59157   0.18104   0.00000  Uiso   1.00
H162   H     0.48682   0.66961   0.04345   0.00000  Uiso   1.00
H163   H     0.45972   0.69351   0.91854   0.00000  Uiso   1.00
H164   H     0.55381   0.73353   0.10985   0.00000  Uiso   1.00
H165   H     0.46005   0.57457   0.09440   0.00000  Uiso   1.00
H166   H     0.40904   0.73144   0.79202   0.00000  Uiso   1.00
H167   H     0.60744   0.81581   0.19541   0.00000  Uiso   1.00
H168   H     0.40972   0.48062   0.16284   0.00000  Uiso   1.00
H169   H     0.32779   0.75761   0.13556   0.00000  Uiso   1.00
H170   H     0.29196   0.78633   0.01571   0.00000  Uiso   1.00
H171   H     0.38606   0.82635   0.20702   0.00000  Uiso   1.00
H172   H     0.29229   0.66739   0.19157   0.00000  Uiso   1.00
H173   H     0.27288   0.80678   0.87089   0.00000  Uiso   1.00
H174   H     0.47129   0.89115   0.27428   0.00000  Uiso   1.00
H175   H     0.27357   0.55596   0.24170   0.00000  Uiso   1.00
O176   O     0.32027   0.78644   0.75096   0.00000  Uiso   1.00
O177   O     0.58057   0.89712   0.28020   0.00000  Uiso   1.00
O178   O     0.32116   0.45735   0.23745   0.00000  Uiso   1.00
N179   N     0.38191   0.74522   0.82703   0.00000  Uiso   1.00
N180   N     0.56740   0.82411   0.20417   0.00000  Uiso   1.00
N181   N     0.38256   0.51073   0.17373   0.00000  Uiso   1.00
N182   N     0.30864   0.78576   0.86947   0.00000  Uiso   1.00
N183   N     0.49414   0.86464   0.24661   0.00000  Uiso   1.00
N184   N     0.30929   0.55127   0.21617   0.00000  Uiso   1.00
C185   C     0.68977   0.45039   0.43545   0.00000  Uiso   1.00
C186   C     0.71495   0.41360   0.49054   0.00000  Uiso   1.00
C187   C     0.71355   0.42349   0.56050   0.00000  Uiso   1.00
C188   C     0.73899   0.38488   0.60244   0.00000  Uiso   1.00
C189   C     0.77418   0.33490   0.69210   0.00000  Uiso   1.00
C190   C     0.73670   0.46473   0.38661   0.00000  Uiso   1.00
C191   C     0.75358   0.51760   0.36917   0.00000  Uiso   1.00
C192   C     0.79732   0.52203   0.32362   0.00000  Uiso   1.00
C193   C     0.86625   0.55142   0.25188   0.00000  Uiso   1.00
C194   C     0.65034   0.41378   0.39501   0.00000  Uiso   1.00
C195   C     0.59460   0.42383   0.38462   0.00000  Uiso   1.00
C196   C     0.56563   0.38536   0.34612   0.00000  Uiso   1.00
C197   C     0.50045   0.33566   0.28743   0.00000  Uiso   1.00
C198   C     0.73744   0.36423   0.38554   0.00000  Uiso   1.00
C199   C     0.74085   0.36681   0.46343   0.00000  Uiso   1.00
C200   C     0.76630   0.32817   0.50528   0.00000  Uiso   1.00
C201   C     0.76493   0.33800   0.57529   0.00000  Uiso   1.00
C202   C     0.76260   0.41793   0.35950   0.00000  Uiso   1.00
C203   C     0.80632   0.42228   0.31395   0.00000  Uiso   1.00
C204   C     0.82327   0.47515   0.29646   0.00000  Uiso   1.00
C205   C     0.67623   0.36698   0.36790   0.00000  Uiso   1.00
C206   C     0.64734   0.32850   0.32940   0.00000  Uiso   1.00
C207   C     0.59157   0.33848   0.31896   0.00000  Uiso   1.00
H208   H     0.66961   0.48682   0.45655   0.00000  Uiso   1.00
H209   H     0.69351   0.45972   0.58146   0.00000  Uiso   1.00
H210   H     0.73353   0.55381   0.39015   0.00000  Uiso   1.00
H211   H     0.57457   0.46005   0.40560   0.00000  Uiso   1.00
H212   H     0.73144   0.40904   0.70798   0.00000  Uiso   1.00
H213   H     0.81581   0.60744   0.30459   0.00000  Uiso   1.00
H214   H     0.48062   0.40972   0.33716   0.00000  Uiso   1.00
H215   H     0.75761   0.32779   0.36444   0.00000  Uiso   1.00
H216   H     0.78633   0.29196   0.48429   0.00000  Uiso   1.00
H217   H     0.82635   0.38606   0.29298   0.00000  Uiso   1.00
H218   H     0.66739   0.29229   0.30843   0.00000  Uiso   1.00
H219   H     0.80678   0.27288   0.62911   0.00000  Uiso   1.00
H220   H     0.89115   0.47129   0.22572   0.00000  Uiso   1.00
H221   H     0.55596   0.27357   0.25830   0.00000  Uiso   1.00
O222   O     0.78644   0.32027   0.74904   0.00000  Uiso   1.00
O223   O     0.89712   0.58057   0.21980   0.00000  Uiso   1.00
O224   O     0.45735   0.32116   0.26255   0.00000  Uiso   1.00
N225   N     0.74522   0.38191   0.67297   0.00000  Uiso   1.00
N226   N     0.82411   0.56740   0.29583   0.00000  Uiso   1.00
N227   N     0.51073   0.38256   0.32627   0.00000  Uiso   1.00
N228   N     0.78576   0.30864   0.63053   0.00000  Uiso   1.00
N229   N     0.86464   0.49414   0.25339   0.00000  Uiso   1.00
N230   N     0.55127   0.30929   0.28383   0.00000  Uiso   1.00
C231   C     0.31023   0.54961   0.43545   0.00000  Uiso   1.00
C232   C     0.28505   0.58640   0.49054   0.00000  Uiso   1.00
C233   C     0.28645   0.57651   0.56050   0.00000  Uiso   1.00
C234   C     0.26101   0.61512   0.60244   0.00000  Uiso   1.00
C235   C     0.22582   0.66510   0.69210   0.00000  Uiso   1.00
C236   C     0.26330   0.53527   0.38661   0.00000  Uiso   1.00
C237   C     0.24642   0.48240   0.36917   0.00000  Uiso   1.00
C238   C     0.20268   0.47797   0.32362   0.00000  Uiso   1.00
C239   C     0.13375   0.44858   0.25188   0.00000  Uiso   1.00
C240   C     0.34966   0.58622   0.39501   0.00000  Uiso   1.00
C241   C     0.40540   0.57617   0.38462   0.00000  Uiso   1.00
C242   C     0.43437   0.61464   0.34612   0.00000  Uiso   1.00
C243   C     0.49955   0.66434   0.28743   0.00000  Uiso   1.00
C244   C     0.26256   0.63577   0.38554   0.00000  Uiso   1.00
C245   C     0.25915   0.63319   0.46343   0.00000  Uiso   1.00
C246   C     0.23370   0.67183   0.50528   0.00000  Uiso   1.00
C247   C     0.23507   0.66200   0.57529   0.00000  Uiso   1.00
C248   C     0.23740   0.58207   0.35950   0.00000  Uiso   1.00
C249   C     0.19368   0.57772   0.31395   0.00000  Uiso   1.00
C250   C     0.17673   0.52485   0.29646   0.00000  Uiso   1.00
C251   C     0.32377   0.63302   0.36790   0.00000  Uiso   1.00
C252   C     0.35266   0.67150   0.32940   0.00000  Uiso   1.00
C253   C     0.40843   0.66152   0.31896   0.00000  Uiso   1.00
H254   H     0.33039   0.51318   0.45655   0.00000  Uiso   1.00
H255   H     0.30649   0.54028   0.58146   0.00000  Uiso   1.00
H256   H     0.26647   0.44619   0.39015   0.00000  Uiso   1.00
H257   H     0.42543   0.53995   0.40560   0.00000  Uiso   1.00
H258   H     0.26856   0.59096   0.70798   0.00000  Uiso   1.00
H259   H     0.18419   0.39256   0.30459   0.00000  Uiso   1.00
H260   H     0.51938   0.59028   0.33716   0.00000  Uiso   1.00
H261   H     0.24239   0.67221   0.36444   0.00000  Uiso   1.00
H262   H     0.21367   0.70804   0.48429   0.00000  Uiso   1.00
H263   H     0.17365   0.61394   0.29298   0.00000  Uiso   1.00
H264   H     0.33261   0.70771   0.30843   0.00000  Uiso   1.00
H265   H     0.19322   0.72712   0.62911   0.00000  Uiso   1.00
H266   H     0.10885   0.52871   0.22572   0.00000  Uiso   1.00
H267   H     0.44404   0.72643   0.25830   0.00000  Uiso   1.00
O268   O     0.21356   0.67973   0.74904   0.00000  Uiso   1.00
O269   O     0.10288   0.41943   0.21980   0.00000  Uiso   1.00
O270   O     0.54265   0.67884   0.26255   0.00000  Uiso   1.00
N271   N     0.25478   0.61809   0.67297   0.00000  Uiso   1.00
N272   N     0.17589   0.43260   0.29583   0.00000  Uiso   1.00
N273   N     0.48927   0.61744   0.32627   0.00000  Uiso   1.00
N274   N     0.21424   0.69136   0.63053   0.00000  Uiso   1.00
N275   N     0.13536   0.50586   0.25339   0.00000  Uiso   1.00
N276   N     0.44873   0.69071   0.28383   0.00000  Uiso   1.00
C277   C     0.95039   0.81023   0.43545   0.00000  Uiso   1.00
C278   C     0.91360   0.78505   0.49054   0.00000  Uiso   1.00
C279   C     0.92349   0.78645   0.56050   0.00000  Uiso   1.00
C280   C     0.88488   0.76101   0.60244   0.00000  Uiso   1.00
C281   C     0.83490   0.72582   0.69210   0.00000  Uiso   1.00
C282   C     0.96473   0.76330   0.38661   0.00000  Uiso   1.00
C283   C     0.01760   0.74642   0.36917   0.00000  Uiso   1.00
C284   C     0.02203   0.70268   0.32362   0.00000  Uiso   1.00
C285   C     0.05142   0.63375   0.25188   0.00000  Uiso   1.00
C286   C     0.91378   0.84966   0.39501   0.00000  Uiso   1.00
C287   C     0.92383   0.90540   0.38462   0.00000  Uiso   1.00
C288   C     0.88536   0.93437   0.34612   0.00000  Uiso   1.00
C289   C     0.83566   0.99955   0.28743   0.00000  Uiso   1.00
C290   C     0.86423   0.76256   0.38554   0.00000  Uiso   1.00
C291   C     0.86681   0.75915   0.46343   0.00000  Uiso   1.00
C292   C     0.82817   0.73370   0.50528   0.00000  Uiso   1.00
C293   C     0.83800   0.73507   0.57529   0.00000  Uiso   1.00
C294   C     0.91793   0.73740   0.35950   0.00000  Uiso   1.00
C295   C     0.92228   0.69368   0.31395   0.00000  Uiso   1.00
C296   C     0.97515   0.67673   0.29646   0.00000  Uiso   1.00
C297   C     0.86698   0.82377   0.36790   0.00000  Uiso   1.00
C298   C     0.82850   0.85266   0.32940   0.00000  Uiso   1.00
C299   C     0.83848   0.90843   0.31896   0.00000  Uiso   1.00
H300   H     0.98682   0.83039   0.45655   0.00000  Uiso   1.00
H301   H     0.95972   0.80649   0.58146   0.00000  Uiso   1.00
H302   H     0.05381   0.76647   0.39015   0.00000  Uiso   1.00
H303   H     0.96005   0.92543   0.40560   0.00000  Uiso   1.00
H304   H     0.90904   0.76856   0.70798   0.00000  Uiso   1.00
H305   H     0.10744   0.68419   0.30459   0.00000  Uiso   1.00
H306   H     0.90972   0.01938   0.33716   0.00000  Uiso   1.00
H307   H     0.82779   0.74239   0.36444   0.00000  Uiso   1.00
H308   H     0.79196   0.71367   0.48429   0.00000  Uiso   1.00
H309   H     0.88606   0.67365   0.29298   0.00000  Uiso   1.00
H310   H     0.79229   0.83261   0.30843   0.00000  Uiso   1.00
H311   H     0.77288   0.69322   0.62911   0.00000  Uiso   1.00
H312   H     0.97129   0.60885   0.22572   0.00000  Uiso   1.00
H313   H     0.77357   0.94404   0.25830   0.00000  Uiso   1.00
O314   O     0.82027   0.71356   0.74904   0.00000  Uiso   1.00
O315   O     0.08057   0.60288   0.21980   0.00000  Uiso   1.00
O316   O     0.82116   0.04265   0.26255   0.00000  Uiso   1.00
N317   N     0.88191   0.75478   0.67297   0.00000  Uiso   1.00
N318   N     0.06740   0.67589   0.29583   0.00000  Uiso   1.00
N319   N     0.88256   0.98927   0.32627   0.00000  Uiso   1.00
N320   N     0.80864   0.71424   0.63053   0.00000  Uiso   1.00
N321   N     0.99414   0.63536   0.25339   0.00000  Uiso   1.00
N322   N     0.80929   0.94873   0.28383   0.00000  Uiso   1.00
C323   C     0.04961   0.18977   0.43545   0.00000  Uiso   1.00
C324   C     0.08640   0.21495   0.49054   0.00000  Uiso   1.00
C325   C     0.07651   0.21355   0.56050   0.00000  Uiso   1.00
C326   C     0.11512   0.23899   0.60244   0.00000  Uiso   1.00
C327   C     0.16510   0.27418   0.69210   0.00000  Uiso   1.00
C328   C     0.03527   0.23670   0.38661   0.00000  Uiso   1.00
C329   C     0.98240   0.25358   0.36917   0.00000  Uiso   1.00
C330   C     0.97797   0.29732   0.32362   0.00000  Uiso   1.00
C331   C     0.94858   0.36625   0.25188   0.00000  Uiso   1.00
C332   C     0.08622   0.15034   0.39501   0.00000  Uiso   1.00
C333   C     0.07617   0.09460   0.38462   0.00000  Uiso   1.00
C334   C     0.11464   0.06563   0.34612   0.00000  Uiso   1.00
C335   C     0.16434   0.00045   0.28743   0.00000  Uiso   1.00
C336   C     0.13577   0.23744   0.38554   0.00000  Uiso   1.00
C337   C     0.13319   0.24085   0.46343   0.00000  Uiso   1.00
C338   C     0.17183   0.26630   0.50528   0.00000  Uiso   1.00
C339   C     0.16200   0.26493   0.57529   0.00000  Uiso   1.00
C340   C     0.08207   0.26260   0.35950   0.00000  Uiso   1.00
C341   C     0.07772   0.30632   0.31395   0.00000  Uiso   1.00
C342   C     0.02485   0.32327   0.29646   0.00000  Uiso   1.00
C343   C     0.13302   0.17623   0.36790   0.00000  Uiso   1.00
C344   C     0.17150   0.14734   0.32940   0.00000  Uiso   1.00
C345   C     0.16152   0.09157   0.31896   0.00000  Uiso   1.00
H346   H     0.01318   0.16961   0.45655   0.00000  Uiso   1.00
H347   H     0.04028   0.19351   0.58146   0.00000  Uiso   1.00
H348   H     0.94619   0.23353   0.39015   0.00000  Uiso   1.00
H349   H     0.03995   0.07457   0.40560   0.00000  Uiso   1.00
H350   H     0.09096   0.23144   0.70798   0.00000  Uiso   1.00
H351   H     0.89256   0.31581   0.30459   0.00000  Uiso   1.00
H352   H     0.09028   0.98062   0.33716   0.00000  Uiso   1.00
H353   H     0.17221   0.25761   0.36444   0.00000  Uiso   1.00
H354   H     0.20804   0.28633   0.48429   0.00000  Uiso   1.00
H355   H     0.11394   0.32635   0.29298   0.00000  Uiso   1.00
H356   H     0.20771   0.16739   0.30843   0.00000  Uiso   1.00
H357   H     0.22712   0.30678   0.62911   0.00000  Uiso   1.00
H358   H     0.02871   0.39115   0.22572   0.00000  Uiso   1.00
H359   H     0.22643   0.05596   0.25830   0.00000  Uiso   1.00
O360   O     0.17973   0.28644   0.74904   0.00000  Uiso   1.00
O361   O     0.91943   0.39712   0.21980   0.00000  Uiso   1.00
O362   O     0.17884   0.95735   0.26255   0.00000  Uiso   1.00
N363   N     0.11809   0.24522   0.67297   0.00000  Uiso   1.00
N364   N     0.93260   0.32411   0.29583   0.00000  Uiso   1.00
N365   N     0.11744   0.01073   0.32627   0.00000  Uiso   1.00
N366   N     0.19136   0.28576   0.63053   0.00000  Uiso   1.00
N367   N     0.00586   0.36464   0.25339   0.00000  Uiso   1.00
N368   N     0.19071   0.05127   0.28383   0.00000  Uiso   1.00
C369   C     0.68977   0.54961   0.93545   0.00000  Uiso   1.00
C370   C     0.71495   0.58640   0.99054   0.00000  Uiso   1.00
C371   C     0.71355   0.57651   0.06050   0.00000  Uiso   1.00
C372   C     0.73899   0.61512   0.10244   0.00000  Uiso   1.00
C373   C     0.77418   0.66510   0.19210   0.00000  Uiso   1.00
C374   C     0.73670   0.53527   0.88661   0.00000  Uiso   1.00
C375   C     0.75358   0.48240   0.86917   0.00000  Uiso   1.00
C376   C     0.79732   0.47797   0.82362   0.00000  Uiso   1.00
C377   C     0.86625   0.44858   0.75188   0.00000  Uiso   1.00
C378   C     0.65034   0.58622   0.89501   0.00000  Uiso   1.00
C379   C     0.59460   0.57617   0.88462   0.00000  Uiso   1.00
C380   C     0.56563   0.61464   0.84612   0.00000  Uiso   1.00
C381   C     0.50045   0.66434   0.78743   0.00000  Uiso   1.00
C382   C     0.73744   0.63577   0.88554   0.00000  Uiso   1.00
C383   C     0.74085   0.63319   0.96343   0.00000  Uiso   1.00
C384   C     0.76630   0.67183   0.00528   0.00000  Uiso   1.00
C385   C     0.76493   0.66200   0.07529   0.00000  Uiso   1.00
C386   C     0.76260   0.58207   0.85950   0.00000  Uiso   1.00
C387   C     0.80632   0.57772   0.81395   0.00000  Uiso   1.00
C388   C     0.82327   0.52485   0.79646   0.00000  Uiso   1.00
C389   C     0.67623   0.63302   0.86790   0.00000  Uiso   1.00
C390   C     0.64734   0.67150   0.82940   0.00000  Uiso   1.00
C391   C     0.59157   0.66152   0.81896   0.00000  Uiso   1.00
H392   H     0.66961   0.51318   0.95655   0.00000  Uiso   1.00
H393   H     0.69351   0.54028   0.08146   0.00000  Uiso   1.00
H394   H     0.73353   0.44619   0.89015   0.00000  Uiso   1.00
H395   H     0.57457   0.53995   0.90560   0.00000  Uiso   1.00
H396   H     0.73144   0.59096   0.20798   0.00000  Uiso   1.00
H397   H     0.81581   0.39256   0.80459   0.00000  Uiso   1.00
H398   H     0.48062   0.59028   0.83716   0.00000  Uiso   1.00
H399   H     0.75761   0.67221   0.86444   0.00000  Uiso   1.00
H400   H     0.78633   0.70804   0.98429   0.00000  Uiso   1.00
H401   H     0.82635   0.61394   0.79298   0.00000  Uiso   1.00
H402   H     0.66739   0.70771   0.80843   0.00000  Uiso   1.00
H403   H     0.80678   0.72712   0.12911   0.00000  Uiso   1.00
H404   H     0.89115   0.52871   0.72572   0.00000  Uiso   1.00
H405   H     0.55596   0.72643   0.75830   0.00000  Uiso   1.00
O406   O     0.78644   0.67973   0.24904   0.00000  Uiso   1.00
O407   O     0.89712   0.41943   0.71980   0.00000  Uiso   1.00
O408   O     0.45735   0.67884   0.76255   0.00000  Uiso   1.00
N409   N     0.74522   0.61809   0.17297   0.00000  Uiso   1.00
N410   N     0.82411   0.43260   0.79583   0.00000  Uiso   1.00
N411   N     0.51073   0.61744   0.82627   0.00000  Uiso   1.00
N412   N     0.78576   0.69136   0.13053   0.00000  Uiso   1.00
N413   N     0.86464   0.50586   0.75339   0.00000  Uiso   1.00
N414   N     0.55127   0.69071   0.78383   0.00000  Uiso   1.00
C415   C     0.31023   0.45039   0.93545   0.00000  Uiso   1.00
C416   C     0.28505   0.41360   0.99054   0.00000  Uiso   1.00
C417   C     0.28645   0.42349   0.06050   0.00000  Uiso   1.00
C418   C     0.26101   0.38488   0.10244   0.00000  Uiso   1.00
C419   C     0.22582   0.33490   0.19210   0.00000  Uiso   1.00
C420   C     0.26330   0.46473   0.88661   0.00000  Uiso   1.00
C421   C     0.24642   0.51760   0.86917   0.00000  Uiso   1.00
C422   C     0.20268   0.52203   0.82362   0.00000  Uiso   1.00
C423   C     0.13375   0.55142   0.75188   0.00000  Uiso   1.00
C424   C     0.34966   0.41378   0.89501   0.00000  Uiso   1.00
C425   C     0.40540   0.42383   0.88462   0.00000  Uiso   1.00
C426   C     0.43437   0.38536   0.84612   0.00000  Uiso   1.00
C427   C     0.49955   0.33566   0.78743   0.00000  Uiso   1.00
C428   C     0.26256   0.36423   0.88554   0.00000  Uiso   1.00
C429   C     0.25915   0.36681   0.96343   0.00000  Uiso   1.00
C430   C     0.23370   0.32817   0.00528   0.00000  Uiso   1.00
C431   C     0.23507   0.33800   0.07529   0.00000  Uiso   1.00
C432   C     0.23740   0.41793   0.85950   0.00000  Uiso   1.00
C433   C     0.19368   0.42228   0.81395   0.00000  Uiso   1.00
C434   C     0.17673   0.47515   0.79646   0.00000  Uiso   1.00
C435   C     0.32377   0.36698   0.86790   0.00000  Uiso   1.00
C436   C     0.35266   0.32850   0.82940   0.00000  Uiso   1.00
C437   C     0.40843   0.33848   0.81896   0.00000  Uiso   1.00
H438   H     0.33039   0.48682   0.95655   0.00000  Uiso   1.00
H439   H     0.30649   0.45972   0.08146   0.00000  Uiso   1.00
H440   H     0.26647   0.55381   0.89015   0.00000  Uiso   1.00
H441   H     0.42543   0.46005   0.90560   0.00000  Uiso   1.00
H442   H     0.26856   0.40904   0.20798   0.00000  Uiso   1.00
H443   H     0.18419   0.60744   0.80459   0.00000  Uiso   1.00
H444   H     0.51938   0.40972   0.83716   0.00000  Uiso   1.00
H445   H     0.24239   0.32779   0.86444   0.00000  Uiso   1.00
H446   H     0.21367   0.29196   0.98429   0.00000  Uiso   1.00
H447   H     0.17365   0.38606   0.79298   0.00000  Uiso   1.00
H448   H     0.33261   0.29229   0.80843   0.00000  Uiso   1.00
H449   H     0.19322   0.27288   0.12911   0.00000  Uiso   1.00
H450   H     0.10885   0.47129   0.72572   0.00000  Uiso   1.00
H451   H     0.44404   0.27357   0.75830   0.00000  Uiso   1.00
O452   O     0.21356   0.32027   0.24904   0.00000  Uiso   1.00
O453   O     0.10288   0.58057   0.71980   0.00000  Uiso   1.00
O454   O     0.54265   0.32116   0.76255   0.00000  Uiso   1.00
N455   N     0.25478   0.38191   0.17297   0.00000  Uiso   1.00
N456   N     0.17589   0.56740   0.79583   0.00000  Uiso   1.00
N457   N     0.48927   0.38256   0.82627   0.00000  Uiso   1.00
N458   N     0.21424   0.30864   0.13053   0.00000  Uiso   1.00
N459   N     0.13536   0.49414   0.75339   0.00000  Uiso   1.00
N460   N     0.44873   0.30929   0.78383   0.00000  Uiso   1.00
C461   C     0.95039   0.18977   0.93545   0.00000  Uiso   1.00
C462   C     0.91360   0.21495   0.99054   0.00000  Uiso   1.00
C463   C     0.92349   0.21355   0.06050   0.00000  Uiso   1.00
C464   C     0.88488   0.23899   0.10244   0.00000  Uiso   1.00
C465   C     0.83490   0.27418   0.19210   0.00000  Uiso   1.00
C466   C     0.96473   0.23670   0.88661   0.00000  Uiso   1.00
C467   C     0.01760   0.25358   0.86917   0.00000  Uiso   1.00
C468   C     0.02203   0.29732   0.82362   0.00000  Uiso   1.00
C469   C     0.05142   0.36625   0.75188   0.00000  Uiso   1.00
C470   C     0.91378   0.15034   0.89501   0.00000  Uiso   1.00
C471   C     0.92383   0.09460   0.88462   0.00000  Uiso   1.00
C472   C     0.88536   0.06563   0.84612   0.00000  Uiso   1.00
C473   C     0.83566   0.00045   0.78743   0.00000  Uiso   1.00
C474   C     0.86423   0.23744   0.88554   0.00000  Uiso   1.00
C475   C     0.86681   0.24085   0.96343   0.00000  Uiso   1.00
C476   C     0.82817   0.26630   0.00528   0.00000  Uiso   1.00
C477   C     0.83800   0.26493   0.07529   0.00000  Uiso   1.00
C478   C     0.91793   0.26260   0.85950   0.00000  Uiso   1.00
C479   C     0.92228   0.30632   0.81395   0.00000  Uiso   1.00
C480   C     0.97515   0.32327   0.79646   0.00000  Uiso   1.00
C481   C     0.86698   0.17623   0.86790   0.00000  Uiso   1.00
C482   C     0.82850   0.14734   0.82940   0.00000  Uiso   1.00
C483   C     0.83848   0.09157   0.81896   0.00000  Uiso   1.00
H484   H     0.98682   0.16961   0.95655   0.00000  Uiso   1.00
H485   H     0.95972   0.19351   0.08146   0.00000  Uiso   1.00
H486   H     0.05381   0.23353   0.89015   0.00000  Uiso   1.00
H487   H     0.96005   0.07457   0.90560   0.00000  Uiso   1.00
H488   H     0.90904   0.23144   0.20798   0.00000  Uiso   1.00
H489   H     0.10744   0.31581   0.80459   0.00000  Uiso   1.00
H490   H     0.90972   0.98062   0.83716   0.00000  Uiso   1.00
H491   H     0.82779   0.25761   0.86444   0.00000  Uiso   1.00
H492   H     0.79196   0.28633   0.98429   0.00000  Uiso   1.00
H493   H     0.88606   0.32635   0.79298   0.00000  Uiso   1.00
H494   H     0.79229   0.16739   0.80843   0.00000  Uiso   1.00
H495   H     0.77288   0.30678   0.12911   0.00000  Uiso   1.00
H496   H     0.97129   0.39115   0.72572   0.00000  Uiso   1.00
H497   H     0.77357   0.05596   0.75830   0.00000  Uiso   1.00
O498   O     0.82027   0.28644   0.24904   0.00000  Uiso   1.00
O499   O     0.08057   0.39712   0.71980   0.00000  Uiso   1.00
O500   O     0.82116   0.95735   0.76255   0.00000  Uiso   1.00
N501   N     0.88191   0.24522   0.17297   0.00000  Uiso   1.00
N502   N     0.06740   0.32411   0.79583   0.00000  Uiso   1.00
N503   N     0.88256   0.01073   0.82627   0.00000  Uiso   1.00
N504   N     0.80864   0.28576   0.13053   0.00000  Uiso   1.00
N505   N     0.99414   0.36464   0.75339   0.00000  Uiso   1.00
N506   N     0.80929   0.05127   0.78383   0.00000  Uiso   1.00
C507   C     0.04961   0.81023   0.93545   0.00000  Uiso   1.00
C508   C     0.08640   0.78505   0.99054   0.00000  Uiso   1.00
C509   C     0.07651   0.78645   0.06050   0.00000  Uiso   1.00
C510   C     0.11512   0.76101   0.10244   0.00000  Uiso   1.00
C511   C     0.16510   0.72582   0.19210   0.00000  Uiso   1.00
C512   C     0.03527   0.76330   0.88661   0.00000  Uiso   1.00
C513   C     0.98240   0.74642   0.86917   0.00000  Uiso   1.00
C514   C     0.97797   0.70268   0.82362   0.00000  Uiso   1.00
C515   C     0.94858   0.63375   0.75188   0.00000  Uiso   1.00
C516   C     0.08622   0.84966   0.89501   0.00000  Uiso   1.00
C517   C     0.07617   0.90540   0.88462   0.00000  Uiso   1.00
C518   C     0.11464   0.93437   0.84612   0.00000  Uiso   1.00
C519   C     0.16434   0.99955   0.78743   0.00000  Uiso   1.00
C520   C     0.13577   0.76256   0.88554   0.00000  Uiso   1.00
C521   C     0.13319   0.75915   0.96343   0.00000  Uiso   1.00
C522   C     0.17183   0.73370   0.00528   0.00000  Uiso   1.00
C523   C     0.16200   0.73507   0.07529   0.00000  Uiso   1.00
C524   C     0.08207   0.73740   0.85950   0.00000  Uiso   1.00
C525   C     0.07772   0.69368   0.81395   0.00000  Uiso   1.00
C526   C     0.02485   0.67673   0.79646   0.00000  Uiso   1.00
C527   C     0.13302   0.82377   0.86790   0.00000  Uiso   1.00
C528   C     0.17150   0.85266   0.82940   0.00000  Uiso   1.00
C529   C     0.16152   0.90843   0.81896   0.00000  Uiso   1.00
H530   H     0.01318   0.83039   0.95655   0.00000  Uiso   1.00
H531   H     0.04028   0.80649   0.08146   0.00000  Uiso   1.00
H532   H     0.94619   0.76647   0.89015   0.00000  Uiso   1.00
H533   H     0.03995   0.92543   0.90560   0.00000  Uiso   1.00
H534   H     0.09096   0.76856   0.20798   0.00000  Uiso   1.00
H535   H     0.89256   0.68419   0.80459   0.00000  Uiso   1.00
H536   H     0.09028   0.01938   0.83716   0.00000  Uiso   1.00
H537   H     0.17221   0.74239   0.86444   0.00000  Uiso   1.00
H538   H     0.20804   0.71367   0.98429   0.00000  Uiso   1.00
H539   H     0.11394   0.67365   0.79298   0.00000  Uiso   1.00
H540   H     0.20771   0.83261   0.80843   0.00000  Uiso   1.00
H541   H     0.22712   0.69322   0.12911   0.00000  Uiso   1.00
H542   H     0.02871   0.60885   0.72572   0.00000  Uiso   1.00
H543   H     0.22643   0.94404   0.75830   0.00000  Uiso   1.00
O544   O     0.17973   0.71356   0.24904   0.00000  Uiso   1.00
O545   O     0.91943   0.60288   0.71980   0.00000  Uiso   1.00
O546   O     0.17884   0.04265   0.76255   0.00000  Uiso   1.00
N547   N     0.11809   0.75478   0.17297   0.00000  Uiso   1.00
N548   N     0.93260   0.67589   0.79583   0.00000  Uiso   1.00
N549   N     0.11744   0.98927   0.82627   0.00000  Uiso   1.00
N550   N     0.19136   0.71424   0.13053   0.00000  Uiso   1.00
N551   N     0.00586   0.63536   0.75339   0.00000  Uiso   1.00
N552   N     0.19071   0.94873   0.78383   0.00000  Uiso   1.00
C553   C     0.81023   0.04961   0.56455   0.00000  Uiso   1.00
C554   C     0.78505   0.08640   0.50946   0.00000  Uiso   1.00
C555   C     0.78645   0.07651   0.43950   0.00000  Uiso   1.00
C556   C     0.76101   0.11512   0.39756   0.00000  Uiso   1.00
C557   C     0.72582   0.16510   0.30790   0.00000  Uiso   1.00
C558   C     0.76330   0.03527   0.61339   0.00000  Uiso   1.00
C559   C     0.74642   0.98240   0.63083   0.00000  Uiso   1.00
C560   C     0.70268   0.97797   0.67638   0.00000  Uiso   1.00
C561   C     0.63375   0.94858   0.74812   0.00000  Uiso   1.00
C562   C     0.84966   0.08622   0.60499   0.00000  Uiso   1.00
C563   C     0.90540   0.07617   0.61538   0.00000  Uiso   1.00
C564   C     0.93437   0.11464   0.65388   0.00000  Uiso   1.00
C565   C     0.99955   0.16434   0.71257   0.00000  Uiso   1.00
C566   C     0.76256   0.13577   0.61446   0.00000  Uiso   1.00
C567   C     0.75915   0.13319   0.53657   0.00000  Uiso   1.00
C568   C     0.73370   0.17183   0.49472   0.00000  Uiso   1.00
C569   C     0.73507   0.16200   0.42471   0.00000  Uiso   1.00
C570   C     0.73740   0.08207   0.64050   0.00000  Uiso   1.00
C571   C     0.69368   0.07772   0.68605   0.00000  Uiso   1.00
C572   C     0.67673   0.02485   0.70354   0.00000  Uiso   1.00
C573   C     0.82377   0.13302   0.63210   0.00000  Uiso   1.00
C574   C     0.85266   0.17150   0.67060   0.00000  Uiso   1.00
C575   C     0.90843   0.16152   0.68104   0.00000  Uiso   1.00
H576   H     0.83039   0.01318   0.54345   0.00000  Uiso   1.00
H577   H     0.80649   0.04028   0.41854   0.00000  Uiso   1.00
H578   H     0.76647   0.94619   0.60985   0.00000  Uiso   1.00
H579   H     0.92543   0.03995   0.59440   0.00000  Uiso   1.00
H580   H     0.76856   0.09096   0.29202   0.00000  Uiso   1.00
H581   H     0.68419   0.89256   0.69541   0.00000  Uiso   1.00
H582   H     0.01938   0.09028   0.66284   0.00000  Uiso   1.00
H583   H     0.74239   0.17221   0.63556   0.00000  Uiso   1.00
H584   H     0.71367   0.20804   0.51571   0.00000  Uiso   1.00
H585   H     0.67365   0.11394   0.70702   0.00000  Uiso   1.00
H586   H     0.83261   0.20771   0.69157   0.00000  Uiso   1.00
H587   H     0.69322   0.22712   0.37089   0.00000  Uiso   1.00
H588   H     0.60885   0.02871   0.77428   0.00000  Uiso   1.00
H589   H     0.94404   0.22643   0.74170   0.00000  Uiso   1.00
O590   O     0.71356   0.17973   0.25096   0.00000  Uiso   1.00
O591   O     0.60288   0.91943   0.78020   0.00000  Uiso   1.00
O592   O     0.04265   0.17884   0.73745   0.00000  Uiso   1.00
N593   N     0.75478   0.11809   0.32703   0.00000  Uiso   1.00
N594   N     0.67589   0.93260   0.70417   0.00000  Uiso   1.00
N595   N     0.98927   0.11744   0.67373   0.00000  Uiso   1.00
N596   N     0.71424   0.19136   0.36947   0.00000  Uiso   1.00
N597   N     0.63536   0.00586   0.74661   0.00000  Uiso   1.00
N598   N     0.94873   0.19071   0.71617   0.00000  Uiso   1.00
C599   C     0.18977   0.95039   0.56455   0.00000  Uiso   1.00
C600   C     0.21495   0.91360   0.50946   0.00000  Uiso   1.00
C601   C     0.21355   0.92349   0.43950   0.00000  Uiso   1.00
C602   C     0.23899   0.88488   0.39756   0.00000  Uiso   1.00
C603   C     0.27418   0.83490   0.30790   0.00000  Uiso   1.00
C604   C     0.23670   0.96473   0.61339   0.00000  Uiso   1.00
C605   C     0.25358   0.01760   0.63083   0.00000  Uiso   1.00
C606   C     0.29732   0.02203   0.67638   0.00000  Uiso   1.00
C607   C     0.36625   0.05142   0.74812   0.00000  Uiso   1.00
C608   C     0.15034   0.91378   0.60499   0.00000  Uiso   1.00
C609   C     0.09460   0.92383   0.61538   0.00000  Uiso   1.00
C610   C     0.06563   0.88536   0.65388   0.00000  Uiso   1.00
C611   C     0.00045   0.83566   0.71257   0.00000  Uiso   1.00
C612   C     0.23744   0.86423   0.61446   0.00000  Uiso   1.00
C613   C     0.24085   0.86681   0.53657   0.00000  Uiso   1.00
C614   C     0.26630   0.82817   0.49472   0.00000  Uiso   1.00
C615   C     0.26493   0.83800   0.42471   0.00000  Uiso   1.00
C616   C     0.26260   0.91793   0.64050   0.00000  Uiso   1.00
C617   C     0.30632   0.92228   0.68605   0.00000  Uiso   1.00
C618   C     0.32327   0.97515   0.70354   0.00000  Uiso   1.00
C619   C     0.17623   0.86698   0.63210   0.00000  Uiso   1.00
C620   C     0.14734   0.82850   0.67060   0.00000  Uiso   1.00
C621   C     0.09157   0.83848   0.68104   0.00000  Uiso   1.00
H622   H     0.16961   0.98682   0.54345   0.00000  Uiso   1.00
H623   H     0.19351   0.95972   0.41854   0.00000  Uiso   1.00
H624   H     0.23353   0.05381   0.60985   0.00000  Uiso   1.00
H625   H     0.07457   0.96005   0.59440   0.00000  Uiso   1.00
H626   H     0.23144   0.90904   0.29202   0.00000  Uiso   1.00
H627   H     0.31581   0.10744   0.69541   0.00000  Uiso   1.00
H628   H     0.98062   0.90972   0.66284   0.00000  Uiso   1.00
H629   H     0.25761   0.82779   0.63556   0.00000  Uiso   1.00
H630   H     0.28633   0.79196   0.51571   0.00000  Uiso   1.00
H631   H     0.32635   0.88606   0.70702   0.00000  Uiso   1.00
H632   H     0.16739   0.79229   0.69157   0.00000  Uiso   1.00
H633   H     0.30678   0.77288   0.37089   0.00000  Uiso   1.00
H634   H     0.39115   0.97129   0.77428   0.00000  Uiso   1.00
H635   H     0.05596   0.77357   0.74170   0.00000  Uiso   1.00
O636   O     0.28644   0.82027   0.25096   0.00000  Uiso   1.00
O637   O     0.39712   0.08057   0.78020   0.00000  Uiso   1.00
O638   O     0.95735   0.82116   0.73745   0.00000  Uiso   1.00
N639   N     0.24522   0.88191   0.32703   0.00000  Uiso   1.00
N640   N     0.32411   0.06740   0.70417   0.00000  Uiso   1.00
N641   N     0.01073   0.88256   0.67373   0.00000  Uiso   1.00
N642   N     0.28576   0.80864   0.36947   0.00000  Uiso   1.00
N643   N     0.36464   0.99414   0.74661   0.00000  Uiso   1.00
N644   N     0.05127   0.80929   0.71617   0.00000  Uiso   1.00
C645   C     0.54961   0.68977   0.56455   0.00000  Uiso   1.00
C646   C     0.58640   0.71495   0.50946   0.00000  Uiso   1.00
C647   C     0.57651   0.71355   0.43950   0.00000  Uiso   1.00
C648   C     0.61512   0.73899   0.39756   0.00000  Uiso   1.00
C649   C     0.66510   0.77418   0.30790   0.00000  Uiso   1.00
C650   C     0.53527   0.73670   0.61339   0.00000  Uiso   1.00
C651   C     0.48240   0.75358   0.63083   0.00000  Uiso   1.00
C652   C     0.47797   0.79732   0.67638   0.00000  Uiso   1.00
C653   C     0.44858   0.86625   0.74812   0.00000  Uiso   1.00
C654   C     0.58622   0.65034   0.60499   0.00000  Uiso   1.00
C655   C     0.57617   0.59460   0.61538   0.00000  Uiso   1.00
C656   C     0.61464   0.56563   0.65388   0.00000  Uiso   1.00
C657   C     0.66434   0.50045   0.71257   0.00000  Uiso   1.00
C658   C     0.63577   0.73744   0.61446   0.00000  Uiso   1.00
C659   C     0.63319   0.74085   0.53657   0.00000  Uiso   1.00
C660   C     0.67183   0.76630   0.49472   0.00000  Uiso   1.00
C661   C     0.66200   0.76493   0.42471   0.00000  Uiso   1.00
C662   C     0.58207   0.76260   0.64050   0.00000  Uiso   1.00
C663   C     0.57772   0.80632   0.68605   0.00000  Uiso   1.00
C664   C     0.52485   0.82327   0.70354   0.00000  Uiso   1.00
C665   C     0.63302   0.67623   0.63210   0.00000  Uiso   1.00
C666   C     0.67150   0.64734   0.67060   0.00000  Uiso   1.00
C667   C     0.66152   0.59157   0.68104   0.00000  Uiso   1.00
H668   H     0.51318   0.66961   0.54345   0.00000  Uiso   1.00
H669   H     0.54028   0.69351   0.41854   0.00000  Uiso   1.00
H670   H     0.44619   0.73353   0.60985   0.00000  Uiso   1.00
H671   H     0.53995   0.57457   0.59440   0.00000  Uiso   1.00
H672   H     0.59096   0.73144   0.29202   0.00000  Uiso   1.00
H673   H     0.39256   0.81581   0.69541   0.00000  Uiso   1.00
H674   H     0.59028   0.48062   0.66284   0.00000  Uiso   1.00
H675   H     0.67221   0.75761   0.63556   0.00000  Uiso   1.00
H676   H     0.70804   0.78633   0.51571   0.00000  Uiso   1.00
H677   H     0.61394   0.82635   0.70702   0.00000  Uiso   1.00
H678   H     0.70771   0.66739   0.69157   0.00000  Uiso   1.00
H679   H     0.72712   0.80678   0.37089   0.00000  Uiso   1.00
H680   H     0.52871   0.89115   0.77428   0.00000  Uiso   1.00
H681   H     0.72643   0.55596   0.74170   0.00000  Uiso   1.00
O682   O     0.67973   0.78644   0.25096   0.00000  Uiso   1.00
O683   O     0.41943   0.89712   0.78020   0.00000  Uiso   1.00
O684   O     0.67884   0.45735   0.73745   0.00000  Uiso   1.00
N685   N     0.61809   0.74522   0.32703   0.00000  Uiso   1.00
N686   N     0.43260   0.82411   0.70417   0.00000  Uiso   1.00
N687   N     0.61744   0.51073   0.67373   0.00000  Uiso   1.00
N688   N     0.69136   0.78576   0.36947   0.00000  Uiso   1.00
N689   N     0.50586   0.86464   0.74661   0.00000  Uiso   1.00
N690   N     0.69071   0.55127   0.71617   0.00000  Uiso   1.00
C691   C     0.45039   0.31023   0.56455   0.00000  Uiso   1.00
C692   C     0.41360   0.28505   0.50946   0.00000  Uiso   1.00
C693   C     0.42349   0.28645   0.43950   0.00000  Uiso   1.00
C694   C     0.38488   0.26101   0.39756   0.00000  Uiso   1.00
C695   C     0.33490   0.22582   0.30790   0.00000  Uiso   1.00
C696   C     0.46473   0.26330   0.61339   0.00000  Uiso   1.00
C697   C     0.51760   0.24642   0.63083   0.00000  Uiso   1.00
C698   C     0.52203   0.20268   0.67638   0.00000  Uiso   1.00
C699   C     0.55142   0.13375   0.74812   0.00000  Uiso   1.00
C700   C     0.41378   0.34966   0.60499   0.00000  Uiso   1.00
C701   C     0.42383   0.40540   0.61538   0.00000  Uiso   1.00
C702   C     0.38536   0.43437   0.65388   0.00000  Uiso   1.00
C703   C     0.33566   0.49955   0.71257   0.00000  Uiso   1.00
C704   C     0.36423   0.26256   0.61446   0.00000  Uiso   1.00
C705   C     0.36681   0.25915   0.53657   0.00000  Uiso   1.00
C706   C     0.32817   0.23370   0.49472   0.00000  Uiso   1.00
C707   C     0.33800   0.23507   0.42471   0.00000  Uiso   1.00
C708   C     0.41793   0.23740   0.64050   0.00000  Uiso   1.00
C709   C     0.42228   0.19368   0.68605   0.00000  Uiso   1.00
C710   C     0.47515   0.17673   0.70354   0.00000  Uiso   1.00
C711   C     0.36698   0.32377   0.63210   0.00000  Uiso   1.00
C712   C     0.32850   0.35266   0.67060   0.00000  Uiso   1.00
C713   C     0.33848   0.40843   0.68104   0.00000  Uiso   1.00
H714   H     0.48682   0.33039   0.54345   0.00000  Uiso   1.00
H715   H     0.45972   0.30649   0.41854   0.00000  Uiso   1.00
H716   H     0.55381   0.26647   0.60985   0.00000  Uiso   1.00
H717   H     0.46005   0.42543   0.59440   0.00000  Uiso   1.00
H718   H     0.40904   0.26856   0.29202   0.00000  Uiso   1.00
H719   H     0.60744   0.18419   0.69541   0.00000  Uiso   1.00
H720   H     0.40972   0.51938   0.66284   0.00000  Uiso   1.00
H721   H     0.32779   0.24239   0.63556   0.00000  Uiso   1.00
H722   H     0.29196   0.21367   0.51571   0.00000  Uiso   1.00
H723   H     0.38606   0.17365   0.70702   0.00000  Uiso   1.00
H724   H     0.29229   0.33261   0.69157   0.00000  Uiso   1.00
H725   H     0.27288   0.19322   0.37089   0.00000  Uiso   1.00
H726   H     0.47129   0.10885   0.77428   0.00000  Uiso   1.00
H727   H     0.27357   0.44404   0.74170   0.00000  Uiso   1.00
O728   O     0.32027   0.21356   0.25096   0.00000  Uiso   1.00
O729   O     0.58057   0.10288   0.78020   0.00000  Uiso   1.00
O730   O     0.32116   0.54265   0.73745   0.00000  Uiso   1.00
N731   N     0.38191   0.25478   0.32703   0.00000  Uiso   1.00
N732   N     0.56740   0.17589   0.70417   0.00000  Uiso   1.00
N733   N     0.38256   0.48927   0.67373   0.00000  Uiso   1.00
N734   N     0.30864   0.21424   0.36947   0.00000  Uiso   1.00
N735   N     0.49414   0.13536   0.74661   0.00000  Uiso   1.00
N736   N     0.30929   0.44873   0.71617   0.00000  Uiso   1.00
