data_job_03450
_audit_creation_date              2018-12-19
_audit_creation_method            'Materials Studio'
_symmetry_space_group_name_H-M    'P1'
_symmetry_Int_Tables_number       1
_symmetry_cell_setting            triclinic
loop_
_symmetry_equiv_pos_as_xyz
  x,y,z
_cell_length_a                    32.4873
_cell_length_b                    32.4873
_cell_length_c                    9.4607
_cell_angle_alpha                 90.0000
_cell_angle_beta                  90.0000
_cell_angle_gamma                 90.0000
loop_
_atom_site_label
_atom_site_type_symbol
_atom_site_fract_x
_atom_site_fract_y
_atom_site_fract_z
_atom_site_U_iso_or_equiv
_atom_site_adp_type
_atom_site_occupancy
C1     C     0.32396   0.44623   0.09423   0.00000  Uiso   1.00
C2     C     0.36914   0.43857   0.12914   0.00000  Uiso   1.00
C3     C     0.39272   0.46125   0.22348   0.00000  Uiso   1.00
C4     C     0.43346   0.44935   0.24066   0.00000  Uiso   1.00
C5     C     0.50111   0.44256   0.30614   0.00000  Uiso   1.00
C6     C     0.32195   0.45208   0.93446   0.00000  Uiso   1.00
C7     C     0.30584   0.48611   0.86512   0.00000  Uiso   1.00
C8     C     0.30685   0.48558   0.71842   0.00000  Uiso   1.00
C9     C     0.30121   0.49975   0.48165   0.00000  Uiso   1.00
C10    C     0.30164   0.40592   0.12503   0.00000  Uiso   1.00
C11    C     0.26845   0.40114   0.21591   0.00000  Uiso   1.00
C12    C     0.25235   0.36174   0.22963   0.00000  Uiso   1.00
C13    C     0.21518   0.30424   0.28877   0.00000  Uiso   1.00
C14    C     0.35439   0.38479   0.95698   0.00000  Uiso   1.00
C15    C     0.38567   0.40520   0.05458   0.00000  Uiso   1.00
C16    C     0.42638   0.39327   0.07162   0.00000  Uiso   1.00
C17    C     0.45002   0.41592   0.16598   0.00000  Uiso   1.00
C18    C     0.33848   0.41871   0.85990   0.00000  Uiso   1.00
C19    C     0.33951   0.41813   0.71326   0.00000  Uiso   1.00
C20    C     0.32341   0.45215   0.64373   0.00000  Uiso   1.00
C21    C     0.31817   0.37255   0.05048   0.00000  Uiso   1.00
C22    C     0.30212   0.33316   0.06406   0.00000  Uiso   1.00
C23    C     0.26891   0.32831   0.15494   0.00000  Uiso   1.00
H24    H     0.31109   0.47221   0.15227   0.00000  Uiso   1.00
H25    H     0.37992   0.48707   0.28115   0.00000  Uiso   1.00
H26    H     0.29305   0.51193   0.92285   0.00000  Uiso   1.00
H27    H     0.25567   0.42697   0.27359   0.00000  Uiso   1.00
H28    H     0.46352   0.48885   0.39112   0.00000  Uiso   1.00
H29    H     0.28034   0.54125   0.63562   0.00000  Uiso   1.00
H30    H     0.20151   0.36209   0.37522   0.00000  Uiso   1.00
H31    H     0.36725   0.35880   0.89893   0.00000  Uiso   1.00
H32    H     0.43917   0.36744   0.01391   0.00000  Uiso   1.00
H33    H     0.35230   0.39230   0.65561   0.00000  Uiso   1.00
H34    H     0.31492   0.30734   0.00635   0.00000  Uiso   1.00
H35    H     0.51161   0.39175   0.17422   0.00000  Uiso   1.00
H36    H     0.32843   0.44416   0.41871   0.00000  Uiso   1.00
H37    H     0.24960   0.26500   0.15832   0.00000  Uiso   1.00
O38    O     0.53386   0.44804   0.36284   0.00000  Uiso   1.00
O39    O     0.29353   0.51679   0.37166   0.00000  Uiso   1.00
O40    O     0.19011   0.28174   0.34200   0.00000  Uiso   1.00
N41    N     0.46496   0.46480   0.32431   0.00000  Uiso   1.00
N42    N     0.29371   0.51380   0.61796   0.00000  Uiso   1.00
N43    N     0.22000   0.34631   0.30940   0.00000  Uiso   1.00
N44    N     0.49084   0.41256   0.20760   0.00000  Uiso   1.00
N45    N     0.31959   0.46156   0.50125   0.00000  Uiso   1.00
N46    N     0.24588   0.29406   0.19269   0.00000  Uiso   1.00
C47    C     0.82396   0.94623   0.59423   0.00000  Uiso   1.00
C48    C     0.86914   0.93857   0.62914   0.00000  Uiso   1.00
C49    C     0.89272   0.96125   0.72348   0.00000  Uiso   1.00
C50    C     0.93346   0.94935   0.74066   0.00000  Uiso   1.00
C51    C     0.00111   0.94256   0.80614   0.00000  Uiso   1.00
C52    C     0.82195   0.95208   0.43446   0.00000  Uiso   1.00
C53    C     0.80584   0.98611   0.36512   0.00000  Uiso   1.00
C54    C     0.80685   0.98558   0.21842   0.00000  Uiso   1.00
C55    C     0.80121   0.99975   0.98165   0.00000  Uiso   1.00
C56    C     0.80164   0.90592   0.62503   0.00000  Uiso   1.00
C57    C     0.76845   0.90114   0.71591   0.00000  Uiso   1.00
C58    C     0.75235   0.86174   0.72963   0.00000  Uiso   1.00
C59    C     0.71518   0.80424   0.78877   0.00000  Uiso   1.00
C60    C     0.85439   0.88479   0.45698   0.00000  Uiso   1.00
C61    C     0.88567   0.90520   0.55458   0.00000  Uiso   1.00
C62    C     0.92638   0.89327   0.57162   0.00000  Uiso   1.00
C63    C     0.95002   0.91592   0.66598   0.00000  Uiso   1.00
C64    C     0.83848   0.91871   0.35990   0.00000  Uiso   1.00
C65    C     0.83951   0.91813   0.21326   0.00000  Uiso   1.00
C66    C     0.82341   0.95215   0.14373   0.00000  Uiso   1.00
C67    C     0.81817   0.87255   0.55048   0.00000  Uiso   1.00
C68    C     0.80212   0.83316   0.56406   0.00000  Uiso   1.00
C69    C     0.76891   0.82831   0.65494   0.00000  Uiso   1.00
H70    H     0.81109   0.97221   0.65227   0.00000  Uiso   1.00
H71    H     0.87992   0.98707   0.78115   0.00000  Uiso   1.00
H72    H     0.79305   0.01193   0.42285   0.00000  Uiso   1.00
H73    H     0.75567   0.92697   0.77359   0.00000  Uiso   1.00
H74    H     0.96352   0.98885   0.89112   0.00000  Uiso   1.00
H75    H     0.78034   0.04125   0.13562   0.00000  Uiso   1.00
H76    H     0.70151   0.86209   0.87522   0.00000  Uiso   1.00
H77    H     0.86725   0.85880   0.39893   0.00000  Uiso   1.00
H78    H     0.93917   0.86744   0.51391   0.00000  Uiso   1.00
H79    H     0.85230   0.89230   0.15561   0.00000  Uiso   1.00
H80    H     0.81492   0.80734   0.50635   0.00000  Uiso   1.00
H81    H     0.01161   0.89175   0.67422   0.00000  Uiso   1.00
H82    H     0.82843   0.94416   0.91871   0.00000  Uiso   1.00
H83    H     0.74960   0.76500   0.65832   0.00000  Uiso   1.00
O84    O     0.03386   0.94804   0.86284   0.00000  Uiso   1.00
O85    O     0.79353   0.01679   0.87166   0.00000  Uiso   1.00
O86    O     0.69011   0.78174   0.84200   0.00000  Uiso   1.00
N87    N     0.96496   0.96480   0.82431   0.00000  Uiso   1.00
N88    N     0.79371   0.01380   0.11796   0.00000  Uiso   1.00
N89    N     0.72000   0.84631   0.80940   0.00000  Uiso   1.00
N90    N     0.99084   0.91256   0.70760   0.00000  Uiso   1.00
N91    N     0.81959   0.96156   0.00125   0.00000  Uiso   1.00
N92    N     0.74588   0.79406   0.69269   0.00000  Uiso   1.00
C93    C     0.17604   0.05377   0.59423   0.00000  Uiso   1.00
C94    C     0.13086   0.06143   0.62914   0.00000  Uiso   1.00
C95    C     0.10728   0.03875   0.72348   0.00000  Uiso   1.00
C96    C     0.06654   0.05065   0.74066   0.00000  Uiso   1.00
C97    C     0.99889   0.05744   0.80614   0.00000  Uiso   1.00
C98    C     0.17805   0.04792   0.43446   0.00000  Uiso   1.00
C99    C     0.19416   0.01389   0.36512   0.00000  Uiso   1.00
C100   C     0.19315   0.01442   0.21842   0.00000  Uiso   1.00
C101   C     0.19879   0.00025   0.98165   0.00000  Uiso   1.00
C102   C     0.19836   0.09408   0.62503   0.00000  Uiso   1.00
C103   C     0.23155   0.09886   0.71591   0.00000  Uiso   1.00
C104   C     0.24765   0.13826   0.72963   0.00000  Uiso   1.00
C105   C     0.28482   0.19576   0.78877   0.00000  Uiso   1.00
C106   C     0.14561   0.11521   0.45698   0.00000  Uiso   1.00
C107   C     0.11433   0.09480   0.55458   0.00000  Uiso   1.00
C108   C     0.07362   0.10673   0.57162   0.00000  Uiso   1.00
C109   C     0.04998   0.08408   0.66598   0.00000  Uiso   1.00
C110   C     0.16152   0.08129   0.35990   0.00000  Uiso   1.00
C111   C     0.16049   0.08187   0.21326   0.00000  Uiso   1.00
C112   C     0.17659   0.04785   0.14373   0.00000  Uiso   1.00
C113   C     0.18183   0.12745   0.55048   0.00000  Uiso   1.00
C114   C     0.19788   0.16684   0.56406   0.00000  Uiso   1.00
C115   C     0.23109   0.17169   0.65494   0.00000  Uiso   1.00
H116   H     0.18891   0.02779   0.65227   0.00000  Uiso   1.00
H117   H     0.12008   0.01293   0.78115   0.00000  Uiso   1.00
H118   H     0.20695   0.98807   0.42285   0.00000  Uiso   1.00
H119   H     0.24433   0.07303   0.77359   0.00000  Uiso   1.00
H120   H     0.03648   0.01115   0.89112   0.00000  Uiso   1.00
H121   H     0.21966   0.95875   0.13562   0.00000  Uiso   1.00
H122   H     0.29849   0.13791   0.87522   0.00000  Uiso   1.00
H123   H     0.13275   0.14120   0.39893   0.00000  Uiso   1.00
H124   H     0.06083   0.13256   0.51391   0.00000  Uiso   1.00
H125   H     0.14770   0.10770   0.15561   0.00000  Uiso   1.00
H126   H     0.18508   0.19266   0.50635   0.00000  Uiso   1.00
H127   H     0.98839   0.10825   0.67422   0.00000  Uiso   1.00
H128   H     0.17157   0.05584   0.91871   0.00000  Uiso   1.00
H129   H     0.25040   0.23500   0.65832   0.00000  Uiso   1.00
O130   O     0.96614   0.05196   0.86284   0.00000  Uiso   1.00
O131   O     0.20647   0.98321   0.87166   0.00000  Uiso   1.00
O132   O     0.30989   0.21826   0.84200   0.00000  Uiso   1.00
N133   N     0.03504   0.03520   0.82431   0.00000  Uiso   1.00
N134   N     0.20629   0.98620   0.11796   0.00000  Uiso   1.00
N135   N     0.28000   0.15369   0.80940   0.00000  Uiso   1.00
N136   N     0.00916   0.08744   0.70760   0.00000  Uiso   1.00
N137   N     0.18041   0.03844   0.00125   0.00000  Uiso   1.00
N138   N     0.25412   0.20594   0.69269   0.00000  Uiso   1.00
C139   C     0.67604   0.55377   0.09423   0.00000  Uiso   1.00
C140   C     0.63086   0.56143   0.12914   0.00000  Uiso   1.00
C141   C     0.60728   0.53875   0.22348   0.00000  Uiso   1.00
C142   C     0.56654   0.55065   0.24066   0.00000  Uiso   1.00
C143   C     0.49889   0.55744   0.30614   0.00000  Uiso   1.00
C144   C     0.67805   0.54792   0.93446   0.00000  Uiso   1.00
C145   C     0.69416   0.51389   0.86512   0.00000  Uiso   1.00
C146   C     0.69315   0.51442   0.71842   0.00000  Uiso   1.00
C147   C     0.69879   0.50025   0.48165   0.00000  Uiso   1.00
C148   C     0.69836   0.59408   0.12503   0.00000  Uiso   1.00
C149   C     0.73155   0.59886   0.21591   0.00000  Uiso   1.00
C150   C     0.74765   0.63826   0.22963   0.00000  Uiso   1.00
C151   C     0.78482   0.69576   0.28877   0.00000  Uiso   1.00
C152   C     0.64561   0.61521   0.95698   0.00000  Uiso   1.00
C153   C     0.61433   0.59480   0.05458   0.00000  Uiso   1.00
C154   C     0.57362   0.60673   0.07162   0.00000  Uiso   1.00
C155   C     0.54998   0.58408   0.16598   0.00000  Uiso   1.00
C156   C     0.66152   0.58129   0.85990   0.00000  Uiso   1.00
C157   C     0.66049   0.58187   0.71326   0.00000  Uiso   1.00
C158   C     0.67659   0.54785   0.64373   0.00000  Uiso   1.00
C159   C     0.68183   0.62745   0.05048   0.00000  Uiso   1.00
C160   C     0.69788   0.66684   0.06406   0.00000  Uiso   1.00
C161   C     0.73109   0.67169   0.15494   0.00000  Uiso   1.00
H162   H     0.68891   0.52779   0.15227   0.00000  Uiso   1.00
H163   H     0.62008   0.51293   0.28115   0.00000  Uiso   1.00
H164   H     0.70695   0.48807   0.92285   0.00000  Uiso   1.00
H165   H     0.74433   0.57303   0.27359   0.00000  Uiso   1.00
H166   H     0.53648   0.51115   0.39112   0.00000  Uiso   1.00
H167   H     0.71966   0.45875   0.63562   0.00000  Uiso   1.00
H168   H     0.79849   0.63791   0.37522   0.00000  Uiso   1.00
H169   H     0.63275   0.64120   0.89893   0.00000  Uiso   1.00
H170   H     0.56083   0.63256   0.01391   0.00000  Uiso   1.00
H171   H     0.64770   0.60770   0.65561   0.00000  Uiso   1.00
H172   H     0.68508   0.69266   0.00635   0.00000  Uiso   1.00
H173   H     0.48839   0.60825   0.17422   0.00000  Uiso   1.00
H174   H     0.67157   0.55584   0.41871   0.00000  Uiso   1.00
H175   H     0.75040   0.73500   0.15832   0.00000  Uiso   1.00
O176   O     0.46614   0.55196   0.36284   0.00000  Uiso   1.00
O177   O     0.70647   0.48321   0.37166   0.00000  Uiso   1.00
O178   O     0.80989   0.71826   0.34200   0.00000  Uiso   1.00
N179   N     0.53504   0.53520   0.32431   0.00000  Uiso   1.00
N180   N     0.70629   0.48620   0.61796   0.00000  Uiso   1.00
N181   N     0.78000   0.65369   0.30940   0.00000  Uiso   1.00
N182   N     0.50916   0.58744   0.20760   0.00000  Uiso   1.00
N183   N     0.68041   0.53844   0.50125   0.00000  Uiso   1.00
N184   N     0.75412   0.70594   0.19269   0.00000  Uiso   1.00
C185   C     0.55377   0.82396   0.34423   0.00000  Uiso   1.00
C186   C     0.56143   0.86914   0.37914   0.00000  Uiso   1.00
C187   C     0.53875   0.89272   0.47348   0.00000  Uiso   1.00
C188   C     0.55065   0.93346   0.49066   0.00000  Uiso   1.00
C189   C     0.55744   0.00111   0.55614   0.00000  Uiso   1.00
C190   C     0.54792   0.82195   0.18446   0.00000  Uiso   1.00
C191   C     0.51389   0.80584   0.11512   0.00000  Uiso   1.00
C192   C     0.51442   0.80685   0.96842   0.00000  Uiso   1.00
C193   C     0.50025   0.80121   0.73165   0.00000  Uiso   1.00
C194   C     0.59408   0.80164   0.37503   0.00000  Uiso   1.00
C195   C     0.59886   0.76845   0.46591   0.00000  Uiso   1.00
C196   C     0.63826   0.75235   0.47963   0.00000  Uiso   1.00
C197   C     0.69576   0.71518   0.53877   0.00000  Uiso   1.00
C198   C     0.61521   0.85439   0.20698   0.00000  Uiso   1.00
C199   C     0.59480   0.88567   0.30458   0.00000  Uiso   1.00
C200   C     0.60673   0.92638   0.32162   0.00000  Uiso   1.00
C201   C     0.58408   0.95002   0.41598   0.00000  Uiso   1.00
C202   C     0.58129   0.83848   0.10990   0.00000  Uiso   1.00
C203   C     0.58187   0.83951   0.96326   0.00000  Uiso   1.00
C204   C     0.54785   0.82341   0.89373   0.00000  Uiso   1.00
C205   C     0.62745   0.81817   0.30048   0.00000  Uiso   1.00
C206   C     0.66684   0.80212   0.31406   0.00000  Uiso   1.00
C207   C     0.67169   0.76891   0.40494   0.00000  Uiso   1.00
H208   H     0.52779   0.81109   0.40227   0.00000  Uiso   1.00
H209   H     0.51293   0.87992   0.53115   0.00000  Uiso   1.00
H210   H     0.48807   0.79305   0.17285   0.00000  Uiso   1.00
H211   H     0.57303   0.75567   0.52359   0.00000  Uiso   1.00
H212   H     0.51115   0.96352   0.64112   0.00000  Uiso   1.00
H213   H     0.45875   0.78034   0.88562   0.00000  Uiso   1.00
H214   H     0.63791   0.70151   0.62522   0.00000  Uiso   1.00
H215   H     0.64120   0.86725   0.14893   0.00000  Uiso   1.00
H216   H     0.63256   0.93917   0.26391   0.00000  Uiso   1.00
H217   H     0.60770   0.85230   0.90561   0.00000  Uiso   1.00
H218   H     0.69266   0.81492   0.25635   0.00000  Uiso   1.00
H219   H     0.60825   0.01161   0.42422   0.00000  Uiso   1.00
H220   H     0.55584   0.82843   0.66871   0.00000  Uiso   1.00
H221   H     0.73500   0.74960   0.40832   0.00000  Uiso   1.00
O222   O     0.55196   0.03386   0.61284   0.00000  Uiso   1.00
O223   O     0.48321   0.79353   0.62166   0.00000  Uiso   1.00
O224   O     0.71826   0.69011   0.59200   0.00000  Uiso   1.00
N225   N     0.53520   0.96496   0.57431   0.00000  Uiso   1.00
N226   N     0.48620   0.79371   0.86796   0.00000  Uiso   1.00
N227   N     0.65369   0.72000   0.55940   0.00000  Uiso   1.00
N228   N     0.58744   0.99084   0.45760   0.00000  Uiso   1.00
N229   N     0.53844   0.81959   0.75125   0.00000  Uiso   1.00
N230   N     0.70594   0.74588   0.44269   0.00000  Uiso   1.00
C231   C     0.05377   0.32396   0.84423   0.00000  Uiso   1.00
C232   C     0.06143   0.36914   0.87914   0.00000  Uiso   1.00
C233   C     0.03875   0.39272   0.97348   0.00000  Uiso   1.00
C234   C     0.05065   0.43346   0.99066   0.00000  Uiso   1.00
C235   C     0.05744   0.50111   0.05614   0.00000  Uiso   1.00
C236   C     0.04792   0.32195   0.68446   0.00000  Uiso   1.00
C237   C     0.01389   0.30584   0.61512   0.00000  Uiso   1.00
C238   C     0.01442   0.30685   0.46842   0.00000  Uiso   1.00
C239   C     0.00025   0.30121   0.23165   0.00000  Uiso   1.00
C240   C     0.09408   0.30164   0.87503   0.00000  Uiso   1.00
C241   C     0.09886   0.26845   0.96591   0.00000  Uiso   1.00
C242   C     0.13826   0.25235   0.97963   0.00000  Uiso   1.00
C243   C     0.19576   0.21518   0.03877   0.00000  Uiso   1.00
C244   C     0.11521   0.35439   0.70698   0.00000  Uiso   1.00
C245   C     0.09480   0.38567   0.80458   0.00000  Uiso   1.00
C246   C     0.10673   0.42638   0.82162   0.00000  Uiso   1.00
C247   C     0.08408   0.45002   0.91598   0.00000  Uiso   1.00
C248   C     0.08129   0.33848   0.60990   0.00000  Uiso   1.00
C249   C     0.08187   0.33951   0.46326   0.00000  Uiso   1.00
C250   C     0.04785   0.32341   0.39373   0.00000  Uiso   1.00
C251   C     0.12745   0.31817   0.80048   0.00000  Uiso   1.00
C252   C     0.16684   0.30212   0.81406   0.00000  Uiso   1.00
C253   C     0.17169   0.26891   0.90494   0.00000  Uiso   1.00
H254   H     0.02779   0.31109   0.90227   0.00000  Uiso   1.00
H255   H     0.01293   0.37992   0.03115   0.00000  Uiso   1.00
H256   H     0.98807   0.29305   0.67285   0.00000  Uiso   1.00
H257   H     0.07303   0.25567   0.02359   0.00000  Uiso   1.00
H258   H     0.01115   0.46352   0.14112   0.00000  Uiso   1.00
H259   H     0.95875   0.28034   0.38562   0.00000  Uiso   1.00
H260   H     0.13791   0.20151   0.12522   0.00000  Uiso   1.00
H261   H     0.14120   0.36725   0.64893   0.00000  Uiso   1.00
H262   H     0.13256   0.43917   0.76391   0.00000  Uiso   1.00
H263   H     0.10770   0.35230   0.40561   0.00000  Uiso   1.00
H264   H     0.19266   0.31492   0.75635   0.00000  Uiso   1.00
H265   H     0.10825   0.51161   0.92422   0.00000  Uiso   1.00
H266   H     0.05584   0.32843   0.16871   0.00000  Uiso   1.00
H267   H     0.23500   0.24960   0.90832   0.00000  Uiso   1.00
O268   O     0.05196   0.53386   0.11284   0.00000  Uiso   1.00
O269   O     0.98321   0.29353   0.12166   0.00000  Uiso   1.00
O270   O     0.21826   0.19011   0.09200   0.00000  Uiso   1.00
N271   N     0.03520   0.46496   0.07431   0.00000  Uiso   1.00
N272   N     0.98620   0.29371   0.36796   0.00000  Uiso   1.00
N273   N     0.15369   0.22000   0.05940   0.00000  Uiso   1.00
N274   N     0.08744   0.49084   0.95760   0.00000  Uiso   1.00
N275   N     0.03844   0.31959   0.25125   0.00000  Uiso   1.00
N276   N     0.20594   0.24588   0.94269   0.00000  Uiso   1.00
C277   C     0.94623   0.67604   0.84423   0.00000  Uiso   1.00
C278   C     0.93857   0.63086   0.87914   0.00000  Uiso   1.00
C279   C     0.96125   0.60728   0.97348   0.00000  Uiso   1.00
C280   C     0.94935   0.56654   0.99066   0.00000  Uiso   1.00
C281   C     0.94256   0.49889   0.05614   0.00000  Uiso   1.00
C282   C     0.95208   0.67805   0.68446   0.00000  Uiso   1.00
C283   C     0.98611   0.69416   0.61512   0.00000  Uiso   1.00
C284   C     0.98558   0.69315   0.46842   0.00000  Uiso   1.00
C285   C     0.99975   0.69879   0.23165   0.00000  Uiso   1.00
C286   C     0.90592   0.69836   0.87503   0.00000  Uiso   1.00
C287   C     0.90114   0.73155   0.96591   0.00000  Uiso   1.00
C288   C     0.86174   0.74765   0.97963   0.00000  Uiso   1.00
C289   C     0.80424   0.78482   0.03877   0.00000  Uiso   1.00
C290   C     0.88479   0.64561   0.70698   0.00000  Uiso   1.00
C291   C     0.90520   0.61433   0.80458   0.00000  Uiso   1.00
C292   C     0.89327   0.57362   0.82162   0.00000  Uiso   1.00
C293   C     0.91592   0.54998   0.91598   0.00000  Uiso   1.00
C294   C     0.91871   0.66152   0.60990   0.00000  Uiso   1.00
C295   C     0.91813   0.66049   0.46326   0.00000  Uiso   1.00
C296   C     0.95215   0.67659   0.39373   0.00000  Uiso   1.00
C297   C     0.87255   0.68183   0.80048   0.00000  Uiso   1.00
C298   C     0.83316   0.69788   0.81406   0.00000  Uiso   1.00
C299   C     0.82831   0.73109   0.90494   0.00000  Uiso   1.00
H300   H     0.97221   0.68891   0.90227   0.00000  Uiso   1.00
H301   H     0.98707   0.62008   0.03115   0.00000  Uiso   1.00
H302   H     0.01193   0.70695   0.67285   0.00000  Uiso   1.00
H303   H     0.92697   0.74433   0.02359   0.00000  Uiso   1.00
H304   H     0.98885   0.53648   0.14112   0.00000  Uiso   1.00
H305   H     0.04125   0.71966   0.38562   0.00000  Uiso   1.00
H306   H     0.86209   0.79849   0.12522   0.00000  Uiso   1.00
H307   H     0.85880   0.63275   0.64893   0.00000  Uiso   1.00
H308   H     0.86744   0.56083   0.76391   0.00000  Uiso   1.00
H309   H     0.89230   0.64770   0.40561   0.00000  Uiso   1.00
H310   H     0.80734   0.68508   0.75635   0.00000  Uiso   1.00
H311   H     0.89175   0.48839   0.92422   0.00000  Uiso   1.00
H312   H     0.94416   0.67157   0.16871   0.00000  Uiso   1.00
H313   H     0.76500   0.75040   0.90832   0.00000  Uiso   1.00
O314   O     0.94804   0.46614   0.11284   0.00000  Uiso   1.00
O315   O     0.01679   0.70647   0.12166   0.00000  Uiso   1.00
O316   O     0.78174   0.80989   0.09200   0.00000  Uiso   1.00
N317   N     0.96480   0.53504   0.07431   0.00000  Uiso   1.00
N318   N     0.01380   0.70629   0.36796   0.00000  Uiso   1.00
N319   N     0.84631   0.78000   0.05940   0.00000  Uiso   1.00
N320   N     0.91256   0.50916   0.95760   0.00000  Uiso   1.00
N321   N     0.96156   0.68041   0.25125   0.00000  Uiso   1.00
N322   N     0.79406   0.75412   0.94269   0.00000  Uiso   1.00
C323   C     0.44623   0.17604   0.34423   0.00000  Uiso   1.00
C324   C     0.43857   0.13086   0.37914   0.00000  Uiso   1.00
C325   C     0.46125   0.10728   0.47348   0.00000  Uiso   1.00
C326   C     0.44935   0.06654   0.49066   0.00000  Uiso   1.00
C327   C     0.44256   0.99889   0.55614   0.00000  Uiso   1.00
C328   C     0.45208   0.17805   0.18446   0.00000  Uiso   1.00
C329   C     0.48611   0.19416   0.11512   0.00000  Uiso   1.00
C330   C     0.48558   0.19315   0.96842   0.00000  Uiso   1.00
C331   C     0.49975   0.19879   0.73165   0.00000  Uiso   1.00
C332   C     0.40592   0.19836   0.37503   0.00000  Uiso   1.00
C333   C     0.40114   0.23155   0.46591   0.00000  Uiso   1.00
C334   C     0.36174   0.24765   0.47963   0.00000  Uiso   1.00
C335   C     0.30424   0.28482   0.53877   0.00000  Uiso   1.00
C336   C     0.38479   0.14561   0.20698   0.00000  Uiso   1.00
C337   C     0.40520   0.11433   0.30458   0.00000  Uiso   1.00
C338   C     0.39327   0.07362   0.32162   0.00000  Uiso   1.00
C339   C     0.41592   0.04998   0.41598   0.00000  Uiso   1.00
C340   C     0.41871   0.16152   0.10990   0.00000  Uiso   1.00
C341   C     0.41813   0.16049   0.96326   0.00000  Uiso   1.00
C342   C     0.45215   0.17659   0.89373   0.00000  Uiso   1.00
C343   C     0.37255   0.18183   0.30048   0.00000  Uiso   1.00
C344   C     0.33316   0.19788   0.31406   0.00000  Uiso   1.00
C345   C     0.32831   0.23109   0.40494   0.00000  Uiso   1.00
H346   H     0.47221   0.18891   0.40227   0.00000  Uiso   1.00
H347   H     0.48707   0.12008   0.53115   0.00000  Uiso   1.00
H348   H     0.51193   0.20695   0.17285   0.00000  Uiso   1.00
H349   H     0.42697   0.24433   0.52359   0.00000  Uiso   1.00
H350   H     0.48885   0.03648   0.64112   0.00000  Uiso   1.00
H351   H     0.54125   0.21966   0.88562   0.00000  Uiso   1.00
H352   H     0.36209   0.29849   0.62522   0.00000  Uiso   1.00
H353   H     0.35880   0.13275   0.14893   0.00000  Uiso   1.00
H354   H     0.36744   0.06083   0.26391   0.00000  Uiso   1.00
H355   H     0.39230   0.14770   0.90561   0.00000  Uiso   1.00
H356   H     0.30734   0.18508   0.25635   0.00000  Uiso   1.00
H357   H     0.39175   0.98839   0.42422   0.00000  Uiso   1.00
H358   H     0.44416   0.17157   0.66871   0.00000  Uiso   1.00
H359   H     0.26500   0.25040   0.40832   0.00000  Uiso   1.00
O360   O     0.44804   0.96614   0.61284   0.00000  Uiso   1.00
O361   O     0.51679   0.20647   0.62166   0.00000  Uiso   1.00
O362   O     0.28174   0.30989   0.59200   0.00000  Uiso   1.00
N363   N     0.46480   0.03504   0.57431   0.00000  Uiso   1.00
N364   N     0.51380   0.20629   0.86796   0.00000  Uiso   1.00
N365   N     0.34631   0.28000   0.55940   0.00000  Uiso   1.00
N366   N     0.41256   0.00916   0.45760   0.00000  Uiso   1.00
N367   N     0.46156   0.18041   0.75125   0.00000  Uiso   1.00
N368   N     0.29406   0.25412   0.44269   0.00000  Uiso   1.00
C369   C     0.67604   0.05377   0.15577   0.00000  Uiso   1.00
C370   C     0.63086   0.06143   0.12086   0.00000  Uiso   1.00
C371   C     0.60728   0.03875   0.02652   0.00000  Uiso   1.00
C372   C     0.56654   0.05065   0.00934   0.00000  Uiso   1.00
C373   C     0.49889   0.05744   0.94386   0.00000  Uiso   1.00
C374   C     0.67805   0.04792   0.31554   0.00000  Uiso   1.00
C375   C     0.69416   0.01389   0.38488   0.00000  Uiso   1.00
C376   C     0.69315   0.01442   0.53158   0.00000  Uiso   1.00
C377   C     0.69879   0.00025   0.76835   0.00000  Uiso   1.00
C378   C     0.69836   0.09408   0.12497   0.00000  Uiso   1.00
C379   C     0.73155   0.09886   0.03409   0.00000  Uiso   1.00
C380   C     0.74765   0.13826   0.02037   0.00000  Uiso   1.00
C381   C     0.78482   0.19576   0.96123   0.00000  Uiso   1.00
C382   C     0.64561   0.11521   0.29302   0.00000  Uiso   1.00
C383   C     0.61433   0.09480   0.19542   0.00000  Uiso   1.00
C384   C     0.57362   0.10673   0.17838   0.00000  Uiso   1.00
C385   C     0.54998   0.08408   0.08402   0.00000  Uiso   1.00
C386   C     0.66152   0.08129   0.39010   0.00000  Uiso   1.00
C387   C     0.66049   0.08187   0.53674   0.00000  Uiso   1.00
C388   C     0.67659   0.04785   0.60627   0.00000  Uiso   1.00
C389   C     0.68183   0.12745   0.19952   0.00000  Uiso   1.00
C390   C     0.69788   0.16684   0.18594   0.00000  Uiso   1.00
C391   C     0.73109   0.17169   0.09506   0.00000  Uiso   1.00
H392   H     0.68891   0.02779   0.09773   0.00000  Uiso   1.00
H393   H     0.62008   0.01293   0.96885   0.00000  Uiso   1.00
H394   H     0.70695   0.98807   0.32715   0.00000  Uiso   1.00
H395   H     0.74433   0.07303   0.97641   0.00000  Uiso   1.00
H396   H     0.53648   0.01115   0.85888   0.00000  Uiso   1.00
H397   H     0.71966   0.95875   0.61438   0.00000  Uiso   1.00
H398   H     0.79849   0.13791   0.87478   0.00000  Uiso   1.00
H399   H     0.63275   0.14120   0.35107   0.00000  Uiso   1.00
H400   H     0.56083   0.13256   0.23609   0.00000  Uiso   1.00
H401   H     0.64770   0.10770   0.59439   0.00000  Uiso   1.00
H402   H     0.68508   0.19266   0.24365   0.00000  Uiso   1.00
H403   H     0.48839   0.10825   0.07578   0.00000  Uiso   1.00
H404   H     0.67157   0.05584   0.83129   0.00000  Uiso   1.00
H405   H     0.75040   0.23500   0.09168   0.00000  Uiso   1.00
O406   O     0.46614   0.05196   0.88716   0.00000  Uiso   1.00
O407   O     0.70647   0.98321   0.87834   0.00000  Uiso   1.00
O408   O     0.80989   0.21826   0.90800   0.00000  Uiso   1.00
N409   N     0.53504   0.03520   0.92569   0.00000  Uiso   1.00
N410   N     0.70629   0.98620   0.63204   0.00000  Uiso   1.00
N411   N     0.78000   0.15369   0.94060   0.00000  Uiso   1.00
N412   N     0.50916   0.08744   0.04240   0.00000  Uiso   1.00
N413   N     0.68041   0.03844   0.74875   0.00000  Uiso   1.00
N414   N     0.75412   0.20594   0.05731   0.00000  Uiso   1.00
C415   C     0.17604   0.55377   0.65577   0.00000  Uiso   1.00
C416   C     0.13086   0.56143   0.62086   0.00000  Uiso   1.00
C417   C     0.10728   0.53875   0.52652   0.00000  Uiso   1.00
C418   C     0.06654   0.55065   0.50934   0.00000  Uiso   1.00
C419   C     0.99889   0.55744   0.44386   0.00000  Uiso   1.00
C420   C     0.17805   0.54792   0.81554   0.00000  Uiso   1.00
C421   C     0.19416   0.51389   0.88488   0.00000  Uiso   1.00
C422   C     0.19315   0.51442   0.03158   0.00000  Uiso   1.00
C423   C     0.19879   0.50025   0.26835   0.00000  Uiso   1.00
C424   C     0.19836   0.59408   0.62497   0.00000  Uiso   1.00
C425   C     0.23155   0.59886   0.53409   0.00000  Uiso   1.00
C426   C     0.24765   0.63826   0.52037   0.00000  Uiso   1.00
C427   C     0.28482   0.69576   0.46123   0.00000  Uiso   1.00
C428   C     0.14561   0.61521   0.79302   0.00000  Uiso   1.00
C429   C     0.11433   0.59480   0.69542   0.00000  Uiso   1.00
C430   C     0.07362   0.60673   0.67838   0.00000  Uiso   1.00
C431   C     0.04998   0.58408   0.58402   0.00000  Uiso   1.00
C432   C     0.16152   0.58129   0.89010   0.00000  Uiso   1.00
C433   C     0.16049   0.58187   0.03674   0.00000  Uiso   1.00
C434   C     0.17659   0.54785   0.10627   0.00000  Uiso   1.00
C435   C     0.18183   0.62745   0.69952   0.00000  Uiso   1.00
C436   C     0.19788   0.66684   0.68594   0.00000  Uiso   1.00
C437   C     0.23109   0.67169   0.59506   0.00000  Uiso   1.00
H438   H     0.18891   0.52779   0.59773   0.00000  Uiso   1.00
H439   H     0.12008   0.51293   0.46885   0.00000  Uiso   1.00
H440   H     0.20695   0.48807   0.82715   0.00000  Uiso   1.00
H441   H     0.24433   0.57303   0.47641   0.00000  Uiso   1.00
H442   H     0.03648   0.51115   0.35888   0.00000  Uiso   1.00
H443   H     0.21966   0.45875   0.11438   0.00000  Uiso   1.00
H444   H     0.29849   0.63791   0.37478   0.00000  Uiso   1.00
H445   H     0.13275   0.64120   0.85107   0.00000  Uiso   1.00
H446   H     0.06083   0.63256   0.73609   0.00000  Uiso   1.00
H447   H     0.14770   0.60770   0.09439   0.00000  Uiso   1.00
H448   H     0.18508   0.69266   0.74365   0.00000  Uiso   1.00
H449   H     0.98839   0.60825   0.57578   0.00000  Uiso   1.00
H450   H     0.17157   0.55584   0.33129   0.00000  Uiso   1.00
H451   H     0.25040   0.73500   0.59168   0.00000  Uiso   1.00
O452   O     0.96614   0.55196   0.38716   0.00000  Uiso   1.00
O453   O     0.20647   0.48321   0.37834   0.00000  Uiso   1.00
O454   O     0.30989   0.71826   0.40800   0.00000  Uiso   1.00
N455   N     0.03504   0.53520   0.42569   0.00000  Uiso   1.00
N456   N     0.20629   0.48620   0.13204   0.00000  Uiso   1.00
N457   N     0.28000   0.65369   0.44060   0.00000  Uiso   1.00
N458   N     0.00916   0.58744   0.54240   0.00000  Uiso   1.00
N459   N     0.18041   0.53844   0.24875   0.00000  Uiso   1.00
N460   N     0.25412   0.70594   0.55731   0.00000  Uiso   1.00
C461   C     0.82396   0.44623   0.65577   0.00000  Uiso   1.00
C462   C     0.86914   0.43857   0.62086   0.00000  Uiso   1.00
C463   C     0.89272   0.46125   0.52652   0.00000  Uiso   1.00
C464   C     0.93346   0.44935   0.50934   0.00000  Uiso   1.00
C465   C     0.00111   0.44256   0.44386   0.00000  Uiso   1.00
C466   C     0.82195   0.45208   0.81554   0.00000  Uiso   1.00
C467   C     0.80584   0.48611   0.88488   0.00000  Uiso   1.00
C468   C     0.80685   0.48558   0.03158   0.00000  Uiso   1.00
C469   C     0.80121   0.49975   0.26835   0.00000  Uiso   1.00
C470   C     0.80164   0.40592   0.62497   0.00000  Uiso   1.00
C471   C     0.76845   0.40114   0.53409   0.00000  Uiso   1.00
C472   C     0.75235   0.36174   0.52037   0.00000  Uiso   1.00
C473   C     0.71518   0.30424   0.46123   0.00000  Uiso   1.00
C474   C     0.85439   0.38479   0.79302   0.00000  Uiso   1.00
C475   C     0.88567   0.40520   0.69542   0.00000  Uiso   1.00
C476   C     0.92638   0.39327   0.67838   0.00000  Uiso   1.00
C477   C     0.95002   0.41592   0.58402   0.00000  Uiso   1.00
C478   C     0.83848   0.41871   0.89010   0.00000  Uiso   1.00
C479   C     0.83951   0.41813   0.03674   0.00000  Uiso   1.00
C480   C     0.82341   0.45215   0.10627   0.00000  Uiso   1.00
C481   C     0.81817   0.37255   0.69952   0.00000  Uiso   1.00
C482   C     0.80212   0.33316   0.68594   0.00000  Uiso   1.00
C483   C     0.76891   0.32831   0.59506   0.00000  Uiso   1.00
H484   H     0.81109   0.47221   0.59773   0.00000  Uiso   1.00
H485   H     0.87992   0.48707   0.46885   0.00000  Uiso   1.00
H486   H     0.79305   0.51193   0.82715   0.00000  Uiso   1.00
H487   H     0.75567   0.42697   0.47641   0.00000  Uiso   1.00
H488   H     0.96352   0.48885   0.35888   0.00000  Uiso   1.00
H489   H     0.78034   0.54125   0.11438   0.00000  Uiso   1.00
H490   H     0.70151   0.36209   0.37478   0.00000  Uiso   1.00
H491   H     0.86725   0.35880   0.85107   0.00000  Uiso   1.00
H492   H     0.93917   0.36744   0.73609   0.00000  Uiso   1.00
H493   H     0.85230   0.39230   0.09439   0.00000  Uiso   1.00
H494   H     0.81492   0.30734   0.74365   0.00000  Uiso   1.00
H495   H     0.01161   0.39175   0.57578   0.00000  Uiso   1.00
H496   H     0.82843   0.44416   0.33129   0.00000  Uiso   1.00
H497   H     0.74960   0.26500   0.59168   0.00000  Uiso   1.00
O498   O     0.03386   0.44804   0.38716   0.00000  Uiso   1.00
O499   O     0.79353   0.51679   0.37834   0.00000  Uiso   1.00
O500   O     0.69011   0.28174   0.40800   0.00000  Uiso   1.00
N501   N     0.96496   0.46480   0.42569   0.00000  Uiso   1.00
N502   N     0.79371   0.51380   0.13204   0.00000  Uiso   1.00
N503   N     0.72000   0.34631   0.44060   0.00000  Uiso   1.00
N504   N     0.99084   0.41256   0.54240   0.00000  Uiso   1.00
N505   N     0.81959   0.46156   0.24875   0.00000  Uiso   1.00
N506   N     0.74588   0.29406   0.55731   0.00000  Uiso   1.00
C507   C     0.32396   0.94623   0.15577   0.00000  Uiso   1.00
C508   C     0.36914   0.93857   0.12086   0.00000  Uiso   1.00
C509   C     0.39272   0.96125   0.02652   0.00000  Uiso   1.00
C510   C     0.43346   0.94935   0.00934   0.00000  Uiso   1.00
C511   C     0.50111   0.94256   0.94386   0.00000  Uiso   1.00
C512   C     0.32195   0.95208   0.31554   0.00000  Uiso   1.00
C513   C     0.30584   0.98611   0.38488   0.00000  Uiso   1.00
C514   C     0.30685   0.98558   0.53158   0.00000  Uiso   1.00
C515   C     0.30121   0.99975   0.76835   0.00000  Uiso   1.00
C516   C     0.30164   0.90592   0.12497   0.00000  Uiso   1.00
C517   C     0.26845   0.90114   0.03409   0.00000  Uiso   1.00
C518   C     0.25235   0.86174   0.02037   0.00000  Uiso   1.00
C519   C     0.21518   0.80424   0.96123   0.00000  Uiso   1.00
C520   C     0.35439   0.88479   0.29302   0.00000  Uiso   1.00
C521   C     0.38567   0.90520   0.19542   0.00000  Uiso   1.00
C522   C     0.42638   0.89327   0.17838   0.00000  Uiso   1.00
C523   C     0.45002   0.91592   0.08402   0.00000  Uiso   1.00
C524   C     0.33848   0.91871   0.39010   0.00000  Uiso   1.00
C525   C     0.33951   0.91813   0.53674   0.00000  Uiso   1.00
C526   C     0.32341   0.95215   0.60627   0.00000  Uiso   1.00
C527   C     0.31817   0.87255   0.19952   0.00000  Uiso   1.00
C528   C     0.30212   0.83316   0.18594   0.00000  Uiso   1.00
C529   C     0.26891   0.82831   0.09506   0.00000  Uiso   1.00
H530   H     0.31109   0.97221   0.09773   0.00000  Uiso   1.00
H531   H     0.37992   0.98707   0.96885   0.00000  Uiso   1.00
H532   H     0.29305   0.01193   0.32715   0.00000  Uiso   1.00
H533   H     0.25567   0.92697   0.97641   0.00000  Uiso   1.00
H534   H     0.46352   0.98885   0.85888   0.00000  Uiso   1.00
H535   H     0.28034   0.04125   0.61438   0.00000  Uiso   1.00
H536   H     0.20151   0.86209   0.87478   0.00000  Uiso   1.00
H537   H     0.36725   0.85880   0.35107   0.00000  Uiso   1.00
H538   H     0.43917   0.86744   0.23609   0.00000  Uiso   1.00
H539   H     0.35230   0.89230   0.59439   0.00000  Uiso   1.00
H540   H     0.31492   0.80734   0.24365   0.00000  Uiso   1.00
H541   H     0.51161   0.89175   0.07578   0.00000  Uiso   1.00
H542   H     0.32843   0.94416   0.83129   0.00000  Uiso   1.00
H543   H     0.24960   0.76500   0.09168   0.00000  Uiso   1.00
O544   O     0.53386   0.94804   0.88716   0.00000  Uiso   1.00
O545   O     0.29353   0.01679   0.87834   0.00000  Uiso   1.00
O546   O     0.19011   0.78174   0.90800   0.00000  Uiso   1.00
N547   N     0.46496   0.96480   0.92569   0.00000  Uiso   1.00
N548   N     0.29371   0.01380   0.63204   0.00000  Uiso   1.00
N549   N     0.22000   0.84631   0.94060   0.00000  Uiso   1.00
N550   N     0.49084   0.91256   0.04240   0.00000  Uiso   1.00
N551   N     0.31959   0.96156   0.74875   0.00000  Uiso   1.00
N552   N     0.24588   0.79406   0.05731   0.00000  Uiso   1.00
C553   C     0.44623   0.67604   0.90577   0.00000  Uiso   1.00
C554   C     0.43857   0.63086   0.87086   0.00000  Uiso   1.00
C555   C     0.46125   0.60728   0.77652   0.00000  Uiso   1.00
C556   C     0.44935   0.56654   0.75934   0.00000  Uiso   1.00
C557   C     0.44256   0.49889   0.69386   0.00000  Uiso   1.00
C558   C     0.45208   0.67805   0.06554   0.00000  Uiso   1.00
C559   C     0.48611   0.69416   0.13488   0.00000  Uiso   1.00
C560   C     0.48558   0.69315   0.28158   0.00000  Uiso   1.00
C561   C     0.49975   0.69879   0.51835   0.00000  Uiso   1.00
C562   C     0.40592   0.69836   0.87497   0.00000  Uiso   1.00
C563   C     0.40114   0.73155   0.78409   0.00000  Uiso   1.00
C564   C     0.36174   0.74765   0.77037   0.00000  Uiso   1.00
C565   C     0.30424   0.78482   0.71123   0.00000  Uiso   1.00
C566   C     0.38479   0.64561   0.04302   0.00000  Uiso   1.00
C567   C     0.40520   0.61433   0.94542   0.00000  Uiso   1.00
C568   C     0.39327   0.57362   0.92838   0.00000  Uiso   1.00
C569   C     0.41592   0.54998   0.83402   0.00000  Uiso   1.00
C570   C     0.41871   0.66152   0.14010   0.00000  Uiso   1.00
C571   C     0.41813   0.66049   0.28674   0.00000  Uiso   1.00
C572   C     0.45215   0.67659   0.35627   0.00000  Uiso   1.00
C573   C     0.37255   0.68183   0.94952   0.00000  Uiso   1.00
C574   C     0.33316   0.69788   0.93594   0.00000  Uiso   1.00
C575   C     0.32831   0.73109   0.84506   0.00000  Uiso   1.00
H576   H     0.47221   0.68891   0.84773   0.00000  Uiso   1.00
H577   H     0.48707   0.62008   0.71885   0.00000  Uiso   1.00
H578   H     0.51193   0.70695   0.07715   0.00000  Uiso   1.00
H579   H     0.42697   0.74433   0.72641   0.00000  Uiso   1.00
H580   H     0.48885   0.53648   0.60888   0.00000  Uiso   1.00
H581   H     0.54125   0.71966   0.36438   0.00000  Uiso   1.00
H582   H     0.36209   0.79849   0.62478   0.00000  Uiso   1.00
H583   H     0.35880   0.63275   0.10107   0.00000  Uiso   1.00
H584   H     0.36744   0.56083   0.98609   0.00000  Uiso   1.00
H585   H     0.39230   0.64770   0.34439   0.00000  Uiso   1.00
H586   H     0.30734   0.68508   0.99365   0.00000  Uiso   1.00
H587   H     0.39175   0.48839   0.82578   0.00000  Uiso   1.00
H588   H     0.44416   0.67157   0.58129   0.00000  Uiso   1.00
H589   H     0.26500   0.75040   0.84168   0.00000  Uiso   1.00
O590   O     0.44804   0.46614   0.63716   0.00000  Uiso   1.00
O591   O     0.51679   0.70647   0.62834   0.00000  Uiso   1.00
O592   O     0.28174   0.80989   0.65800   0.00000  Uiso   1.00
N593   N     0.46480   0.53504   0.67569   0.00000  Uiso   1.00
N594   N     0.51380   0.70629   0.38204   0.00000  Uiso   1.00
N595   N     0.34631   0.78000   0.69060   0.00000  Uiso   1.00
N596   N     0.41256   0.50916   0.79240   0.00000  Uiso   1.00
N597   N     0.46156   0.68041   0.49875   0.00000  Uiso   1.00
N598   N     0.29406   0.75412   0.80731   0.00000  Uiso   1.00
C599   C     0.94623   0.17604   0.40577   0.00000  Uiso   1.00
C600   C     0.93857   0.13086   0.37086   0.00000  Uiso   1.00
C601   C     0.96125   0.10728   0.27652   0.00000  Uiso   1.00
C602   C     0.94935   0.06654   0.25934   0.00000  Uiso   1.00
C603   C     0.94256   0.99889   0.19386   0.00000  Uiso   1.00
C604   C     0.95208   0.17805   0.56554   0.00000  Uiso   1.00
C605   C     0.98611   0.19416   0.63488   0.00000  Uiso   1.00
C606   C     0.98558   0.19315   0.78158   0.00000  Uiso   1.00
C607   C     0.99975   0.19879   0.01835   0.00000  Uiso   1.00
C608   C     0.90592   0.19836   0.37497   0.00000  Uiso   1.00
C609   C     0.90114   0.23155   0.28409   0.00000  Uiso   1.00
C610   C     0.86174   0.24765   0.27037   0.00000  Uiso   1.00
C611   C     0.80424   0.28482   0.21123   0.00000  Uiso   1.00
C612   C     0.88479   0.14561   0.54302   0.00000  Uiso   1.00
C613   C     0.90520   0.11433   0.44542   0.00000  Uiso   1.00
C614   C     0.89327   0.07362   0.42838   0.00000  Uiso   1.00
C615   C     0.91592   0.04998   0.33402   0.00000  Uiso   1.00
C616   C     0.91871   0.16152   0.64010   0.00000  Uiso   1.00
C617   C     0.91813   0.16049   0.78674   0.00000  Uiso   1.00
C618   C     0.95215   0.17659   0.85627   0.00000  Uiso   1.00
C619   C     0.87255   0.18183   0.44952   0.00000  Uiso   1.00
C620   C     0.83316   0.19788   0.43594   0.00000  Uiso   1.00
C621   C     0.82831   0.23109   0.34506   0.00000  Uiso   1.00
H622   H     0.97221   0.18891   0.34773   0.00000  Uiso   1.00
H623   H     0.98707   0.12008   0.21885   0.00000  Uiso   1.00
H624   H     0.01193   0.20695   0.57715   0.00000  Uiso   1.00
H625   H     0.92697   0.24433   0.22641   0.00000  Uiso   1.00
H626   H     0.98885   0.03648   0.10888   0.00000  Uiso   1.00
H627   H     0.04125   0.21966   0.86438   0.00000  Uiso   1.00
H628   H     0.86209   0.29849   0.12478   0.00000  Uiso   1.00
H629   H     0.85880   0.13275   0.60107   0.00000  Uiso   1.00
H630   H     0.86744   0.06083   0.48609   0.00000  Uiso   1.00
H631   H     0.89230   0.14770   0.84439   0.00000  Uiso   1.00
H632   H     0.80734   0.18508   0.49365   0.00000  Uiso   1.00
H633   H     0.89175   0.98839   0.32578   0.00000  Uiso   1.00
H634   H     0.94416   0.17157   0.08129   0.00000  Uiso   1.00
H635   H     0.76500   0.25040   0.34168   0.00000  Uiso   1.00
O636   O     0.94804   0.96614   0.13716   0.00000  Uiso   1.00
O637   O     0.01679   0.20647   0.12834   0.00000  Uiso   1.00
O638   O     0.78174   0.30989   0.15800   0.00000  Uiso   1.00
N639   N     0.96480   0.03504   0.17569   0.00000  Uiso   1.00
N640   N     0.01380   0.20629   0.88204   0.00000  Uiso   1.00
N641   N     0.84631   0.28000   0.19060   0.00000  Uiso   1.00
N642   N     0.91256   0.00916   0.29240   0.00000  Uiso   1.00
N643   N     0.96156   0.18041   0.99875   0.00000  Uiso   1.00
N644   N     0.79406   0.25412   0.30731   0.00000  Uiso   1.00
C645   C     0.05377   0.82396   0.40577   0.00000  Uiso   1.00
C646   C     0.06143   0.86914   0.37086   0.00000  Uiso   1.00
C647   C     0.03875   0.89272   0.27652   0.00000  Uiso   1.00
C648   C     0.05065   0.93346   0.25934   0.00000  Uiso   1.00
C649   C     0.05744   0.00111   0.19386   0.00000  Uiso   1.00
C650   C     0.04792   0.82195   0.56554   0.00000  Uiso   1.00
C651   C     0.01389   0.80584   0.63488   0.00000  Uiso   1.00
C652   C     0.01442   0.80685   0.78158   0.00000  Uiso   1.00
C653   C     0.00025   0.80121   0.01835   0.00000  Uiso   1.00
C654   C     0.09408   0.80164   0.37497   0.00000  Uiso   1.00
C655   C     0.09886   0.76845   0.28409   0.00000  Uiso   1.00
C656   C     0.13826   0.75235   0.27037   0.00000  Uiso   1.00
C657   C     0.19576   0.71518   0.21123   0.00000  Uiso   1.00
C658   C     0.11521   0.85439   0.54302   0.00000  Uiso   1.00
C659   C     0.09480   0.88567   0.44542   0.00000  Uiso   1.00
C660   C     0.10673   0.92638   0.42838   0.00000  Uiso   1.00
C661   C     0.08408   0.95002   0.33402   0.00000  Uiso   1.00
C662   C     0.08129   0.83848   0.64010   0.00000  Uiso   1.00
C663   C     0.08187   0.83951   0.78674   0.00000  Uiso   1.00
C664   C     0.04785   0.82341   0.85627   0.00000  Uiso   1.00
C665   C     0.12745   0.81817   0.44952   0.00000  Uiso   1.00
C666   C     0.16684   0.80212   0.43594   0.00000  Uiso   1.00
C667   C     0.17169   0.76891   0.34506   0.00000  Uiso   1.00
H668   H     0.02779   0.81109   0.34773   0.00000  Uiso   1.00
H669   H     0.01293   0.87992   0.21885   0.00000  Uiso   1.00
H670   H     0.98807   0.79305   0.57715   0.00000  Uiso   1.00
H671   H     0.07303   0.75567   0.22641   0.00000  Uiso   1.00
H672   H     0.01115   0.96352   0.10888   0.00000  Uiso   1.00
H673   H     0.95875   0.78034   0.86438   0.00000  Uiso   1.00
H674   H     0.13791   0.70151   0.12478   0.00000  Uiso   1.00
H675   H     0.14120   0.86725   0.60107   0.00000  Uiso   1.00
H676   H     0.13256   0.93917   0.48609   0.00000  Uiso   1.00
H677   H     0.10770   0.85230   0.84439   0.00000  Uiso   1.00
H678   H     0.19266   0.81492   0.49365   0.00000  Uiso   1.00
H679   H     0.10825   0.01161   0.32578   0.00000  Uiso   1.00
H680   H     0.05584   0.82843   0.08129   0.00000  Uiso   1.00
H681   H     0.23500   0.74960   0.34168   0.00000  Uiso   1.00
O682   O     0.05196   0.03386   0.13716   0.00000  Uiso   1.00
O683   O     0.98321   0.79353   0.12834   0.00000  Uiso   1.00
O684   O     0.21826   0.69011   0.15800   0.00000  Uiso   1.00
N685   N     0.03520   0.96496   0.17569   0.00000  Uiso   1.00
N686   N     0.98620   0.79371   0.88204   0.00000  Uiso   1.00
N687   N     0.15369   0.72000   0.19060   0.00000  Uiso   1.00
N688   N     0.08744   0.99084   0.29240   0.00000  Uiso   1.00
N689   N     0.03844   0.81959   0.99875   0.00000  Uiso   1.00
N690   N     0.20594   0.74588   0.30731   0.00000  Uiso   1.00
C691   C     0.55377   0.32396   0.90577   0.00000  Uiso   1.00
C692   C     0.56143   0.36914   0.87086   0.00000  Uiso   1.00
C693   C     0.53875   0.39272   0.77652   0.00000  Uiso   1.00
C694   C     0.55065   0.43346   0.75934   0.00000  Uiso   1.00
C695   C     0.55744   0.50111   0.69386   0.00000  Uiso   1.00
C696   C     0.54792   0.32195   0.06554   0.00000  Uiso   1.00
C697   C     0.51389   0.30584   0.13488   0.00000  Uiso   1.00
C698   C     0.51442   0.30685   0.28158   0.00000  Uiso   1.00
C699   C     0.50025   0.30121   0.51835   0.00000  Uiso   1.00
C700   C     0.59408   0.30164   0.87497   0.00000  Uiso   1.00
C701   C     0.59886   0.26845   0.78409   0.00000  Uiso   1.00
C702   C     0.63826   0.25235   0.77037   0.00000  Uiso   1.00
C703   C     0.69576   0.21518   0.71123   0.00000  Uiso   1.00
C704   C     0.61521   0.35439   0.04302   0.00000  Uiso   1.00
C705   C     0.59480   0.38567   0.94542   0.00000  Uiso   1.00
C706   C     0.60673   0.42638   0.92838   0.00000  Uiso   1.00
C707   C     0.58408   0.45002   0.83402   0.00000  Uiso   1.00
C708   C     0.58129   0.33848   0.14010   0.00000  Uiso   1.00
C709   C     0.58187   0.33951   0.28674   0.00000  Uiso   1.00
C710   C     0.54785   0.32341   0.35627   0.00000  Uiso   1.00
C711   C     0.62745   0.31817   0.94952   0.00000  Uiso   1.00
C712   C     0.66684   0.30212   0.93594   0.00000  Uiso   1.00
C713   C     0.67169   0.26891   0.84506   0.00000  Uiso   1.00
H714   H     0.52779   0.31109   0.84773   0.00000  Uiso   1.00
H715   H     0.51293   0.37992   0.71885   0.00000  Uiso   1.00
H716   H     0.48807   0.29305   0.07715   0.00000  Uiso   1.00
H717   H     0.57303   0.25567   0.72641   0.00000  Uiso   1.00
H718   H     0.51115   0.46352   0.60888   0.00000  Uiso   1.00
H719   H     0.45875   0.28034   0.36438   0.00000  Uiso   1.00
H720   H     0.63791   0.20151   0.62478   0.00000  Uiso   1.00
H721   H     0.64120   0.36725   0.10107   0.00000  Uiso   1.00
H722   H     0.63256   0.43917   0.98609   0.00000  Uiso   1.00
H723   H     0.60770   0.35230   0.34439   0.00000  Uiso   1.00
H724   H     0.69266   0.31492   0.99365   0.00000  Uiso   1.00
H725   H     0.60825   0.51161   0.82578   0.00000  Uiso   1.00
H726   H     0.55584   0.32843   0.58129   0.00000  Uiso   1.00
H727   H     0.73500   0.24960   0.84168   0.00000  Uiso   1.00
O728   O     0.55196   0.53386   0.63716   0.00000  Uiso   1.00
O729   O     0.48321   0.29353   0.62834   0.00000  Uiso   1.00
O730   O     0.71826   0.19011   0.65800   0.00000  Uiso   1.00
N731   N     0.53520   0.46496   0.67569   0.00000  Uiso   1.00
N732   N     0.48620   0.29371   0.38204   0.00000  Uiso   1.00
N733   N     0.65369   0.22000   0.69060   0.00000  Uiso   1.00
N734   N     0.58744   0.49084   0.79240   0.00000  Uiso   1.00
N735   N     0.53844   0.31959   0.49875   0.00000  Uiso   1.00
N736   N     0.70594   0.24588   0.80731   0.00000  Uiso   1.00
