data_job_03813
_audit_creation_date              2018-12-19
_audit_creation_method            'Materials Studio'
_symmetry_space_group_name_H-M    'P1'
_symmetry_Int_Tables_number       1
_symmetry_cell_setting            triclinic
loop_
_symmetry_equiv_pos_as_xyz
  x,y,z
_cell_length_a                    31.4616
_cell_length_b                    31.4616
_cell_length_c                    13.0381
_cell_angle_alpha                 90.0000
_cell_angle_beta                  90.0000
_cell_angle_gamma                 90.0000
loop_
_atom_site_label
_atom_site_type_symbol
_atom_site_fract_x
_atom_site_fract_y
_atom_site_fract_z
_atom_site_U_iso_or_equiv
_atom_site_adp_type
_atom_site_occupancy
C1     C     0.10897   0.38966   0.38658   0.00000  Uiso   1.00
C2     C     0.10402   0.35762   0.47354   0.00000  Uiso   1.00
C3     C     0.06600   0.34003   0.50683   0.00000  Uiso   1.00
C4     C     0.06818   0.31132   0.58752   0.00000  Uiso   1.00
C5     C     0.05459   0.26323   0.71564   0.00000  Uiso   1.00
C6     C     0.13165   0.42797   0.43282   0.00000  Uiso   1.00
C7     C     0.11686   0.46952   0.43185   0.00000  Uiso   1.00
C8     C     0.14230   0.50002   0.47824   0.00000  Uiso   1.00
C9     C     0.17162   0.56115   0.54306   0.00000  Uiso   1.00
C10    C     0.14023   0.36987   0.31103   0.00000  Uiso   1.00
C11    C     0.13265   0.36259   0.20765   0.00000  Uiso   1.00
C12    C     0.16533   0.34419   0.15150   0.00000  Uiso   1.00
C13    C     0.20796   0.31510   0.02722   0.00000  Uiso   1.00
C14    C     0.18047   0.36994   0.47068   0.00000  Uiso   1.00
C15    C     0.14286   0.34692   0.51922   0.00000  Uiso   1.00
C16    C     0.14510   0.31822   0.59988   0.00000  Uiso   1.00
C17    C     0.10709   0.30059   0.63328   0.00000  Uiso   1.00
C18    C     0.17049   0.41726   0.47850   0.00000  Uiso   1.00
C19    C     0.19596   0.44771   0.52490   0.00000  Uiso   1.00
C20    C     0.18121   0.48930   0.52401   0.00000  Uiso   1.00
C21    C     0.17907   0.35916   0.35671   0.00000  Uiso   1.00
C22    C     0.21176   0.34077   0.30070   0.00000  Uiso   1.00
C23    C     0.20423   0.33346   0.19726   0.00000  Uiso   1.00
H24    H     0.07873   0.39800   0.35102   0.00000  Uiso   1.00
H25    H     0.03595   0.34833   0.47147   0.00000  Uiso   1.00
H26    H     0.08680   0.47780   0.39649   0.00000  Uiso   1.00
H27    H     0.10260   0.37088   0.17233   0.00000  Uiso   1.00
H28    H     0.00564   0.28856   0.62518   0.00000  Uiso   1.00
H29    H     0.11287   0.56155   0.46704   0.00000  Uiso   1.00
H30    H     0.14618   0.33609   0.99436   0.00000  Uiso   1.00
H31    H     0.21071   0.36160   0.50625   0.00000  Uiso   1.00
H32    H     0.17516   0.30994   0.63522   0.00000  Uiso   1.00
H33    H     0.22602   0.43941   0.56023   0.00000  Uiso   1.00
H34    H     0.24181   0.33249   0.33608   0.00000  Uiso   1.00
H35    H     0.11863   0.25740   0.75809   0.00000  Uiso   1.00
H36    H     0.22586   0.53039   0.59994   0.00000  Uiso   1.00
H37    H     0.25917   0.30493   0.12727   0.00000  Uiso   1.00
O38    O     0.03637   0.23966   0.77369   0.00000  Uiso   1.00
O39    O     0.17706   0.59782   0.56620   0.00000  Uiso   1.00
O40    O     0.22075   0.30201   0.94606   0.00000  Uiso   1.00
N41    N     0.03711   0.28831   0.63875   0.00000  Uiso   1.00
N42    N     0.13736   0.54354   0.49091   0.00000  Uiso   1.00
N43    N     0.16850   0.33276   0.04899   0.00000  Uiso   1.00
N44    N     0.09791   0.27154   0.71026   0.00000  Uiso   1.00
N45    N     0.19816   0.52677   0.56243   0.00000  Uiso   1.00
N46    N     0.22930   0.31599   0.12050   0.00000  Uiso   1.00
C47    C     0.60897   0.88966   0.88658   0.00000  Uiso   1.00
C48    C     0.60402   0.85762   0.97354   0.00000  Uiso   1.00
C49    C     0.56600   0.84003   0.00683   0.00000  Uiso   1.00
C50    C     0.56818   0.81132   0.08752   0.00000  Uiso   1.00
C51    C     0.55459   0.76323   0.21564   0.00000  Uiso   1.00
C52    C     0.63165   0.92797   0.93282   0.00000  Uiso   1.00
C53    C     0.61686   0.96952   0.93185   0.00000  Uiso   1.00
C54    C     0.64230   0.00002   0.97824   0.00000  Uiso   1.00
C55    C     0.67162   0.06115   0.04306   0.00000  Uiso   1.00
C56    C     0.64023   0.86987   0.81103   0.00000  Uiso   1.00
C57    C     0.63265   0.86259   0.70765   0.00000  Uiso   1.00
C58    C     0.66533   0.84419   0.65150   0.00000  Uiso   1.00
C59    C     0.70796   0.81510   0.52722   0.00000  Uiso   1.00
C60    C     0.68047   0.86994   0.97068   0.00000  Uiso   1.00
C61    C     0.64286   0.84692   0.01922   0.00000  Uiso   1.00
C62    C     0.64510   0.81822   0.09988   0.00000  Uiso   1.00
C63    C     0.60709   0.80059   0.13328   0.00000  Uiso   1.00
C64    C     0.67049   0.91726   0.97850   0.00000  Uiso   1.00
C65    C     0.69596   0.94771   0.02490   0.00000  Uiso   1.00
C66    C     0.68121   0.98930   0.02401   0.00000  Uiso   1.00
C67    C     0.67907   0.85916   0.85671   0.00000  Uiso   1.00
C68    C     0.71176   0.84077   0.80070   0.00000  Uiso   1.00
C69    C     0.70423   0.83346   0.69726   0.00000  Uiso   1.00
H70    H     0.57873   0.89800   0.85102   0.00000  Uiso   1.00
H71    H     0.53595   0.84833   0.97147   0.00000  Uiso   1.00
H72    H     0.58680   0.97780   0.89649   0.00000  Uiso   1.00
H73    H     0.60260   0.87088   0.67233   0.00000  Uiso   1.00
H74    H     0.50564   0.78856   0.12518   0.00000  Uiso   1.00
H75    H     0.61287   0.06155   0.96704   0.00000  Uiso   1.00
H76    H     0.64618   0.83609   0.49436   0.00000  Uiso   1.00
H77    H     0.71071   0.86160   0.00625   0.00000  Uiso   1.00
H78    H     0.67516   0.80994   0.13522   0.00000  Uiso   1.00
H79    H     0.72602   0.93941   0.06023   0.00000  Uiso   1.00
H80    H     0.74181   0.83249   0.83608   0.00000  Uiso   1.00
H81    H     0.61863   0.75740   0.25809   0.00000  Uiso   1.00
H82    H     0.72586   0.03039   0.09994   0.00000  Uiso   1.00
H83    H     0.75917   0.80493   0.62727   0.00000  Uiso   1.00
O84    O     0.53637   0.73966   0.27369   0.00000  Uiso   1.00
O85    O     0.67706   0.09782   0.06620   0.00000  Uiso   1.00
O86    O     0.72075   0.80201   0.44606   0.00000  Uiso   1.00
N87    N     0.53711   0.78831   0.13875   0.00000  Uiso   1.00
N88    N     0.63736   0.04354   0.99091   0.00000  Uiso   1.00
N89    N     0.66850   0.83276   0.54899   0.00000  Uiso   1.00
N90    N     0.59791   0.77154   0.21026   0.00000  Uiso   1.00
N91    N     0.69816   0.02677   0.06243   0.00000  Uiso   1.00
N92    N     0.72930   0.81599   0.62050   0.00000  Uiso   1.00
C93    C     0.39103   0.11034   0.88658   0.00000  Uiso   1.00
C94    C     0.39598   0.14238   0.97354   0.00000  Uiso   1.00
C95    C     0.43400   0.15997   0.00683   0.00000  Uiso   1.00
C96    C     0.43182   0.18868   0.08752   0.00000  Uiso   1.00
C97    C     0.44541   0.23677   0.21564   0.00000  Uiso   1.00
C98    C     0.36835   0.07203   0.93282   0.00000  Uiso   1.00
C99    C     0.38314   0.03048   0.93185   0.00000  Uiso   1.00
C100   C     0.35770   0.99998   0.97824   0.00000  Uiso   1.00
C101   C     0.32838   0.93885   0.04306   0.00000  Uiso   1.00
C102   C     0.35977   0.13013   0.81103   0.00000  Uiso   1.00
C103   C     0.36735   0.13741   0.70765   0.00000  Uiso   1.00
C104   C     0.33467   0.15581   0.65150   0.00000  Uiso   1.00
C105   C     0.29204   0.18490   0.52722   0.00000  Uiso   1.00
C106   C     0.31953   0.13006   0.97068   0.00000  Uiso   1.00
C107   C     0.35714   0.15308   0.01922   0.00000  Uiso   1.00
C108   C     0.35490   0.18178   0.09988   0.00000  Uiso   1.00
C109   C     0.39291   0.19941   0.13328   0.00000  Uiso   1.00
C110   C     0.32951   0.08274   0.97850   0.00000  Uiso   1.00
C111   C     0.30404   0.05229   0.02490   0.00000  Uiso   1.00
C112   C     0.31879   0.01070   0.02401   0.00000  Uiso   1.00
C113   C     0.32093   0.14084   0.85671   0.00000  Uiso   1.00
C114   C     0.28824   0.15923   0.80070   0.00000  Uiso   1.00
C115   C     0.29577   0.16654   0.69726   0.00000  Uiso   1.00
H116   H     0.42127   0.10200   0.85102   0.00000  Uiso   1.00
H117   H     0.46405   0.15167   0.97147   0.00000  Uiso   1.00
H118   H     0.41320   0.02220   0.89649   0.00000  Uiso   1.00
H119   H     0.39740   0.12912   0.67233   0.00000  Uiso   1.00
H120   H     0.49436   0.21144   0.12518   0.00000  Uiso   1.00
H121   H     0.38713   0.93845   0.96704   0.00000  Uiso   1.00
H122   H     0.35382   0.16391   0.49436   0.00000  Uiso   1.00
H123   H     0.28929   0.13840   0.00625   0.00000  Uiso   1.00
H124   H     0.32484   0.19006   0.13522   0.00000  Uiso   1.00
H125   H     0.27398   0.06059   0.06023   0.00000  Uiso   1.00
H126   H     0.25819   0.16751   0.83608   0.00000  Uiso   1.00
H127   H     0.38137   0.24260   0.25809   0.00000  Uiso   1.00
H128   H     0.27414   0.96961   0.09994   0.00000  Uiso   1.00
H129   H     0.24083   0.19507   0.62727   0.00000  Uiso   1.00
O130   O     0.46363   0.26034   0.27369   0.00000  Uiso   1.00
O131   O     0.32294   0.90218   0.06620   0.00000  Uiso   1.00
O132   O     0.27925   0.19799   0.44606   0.00000  Uiso   1.00
N133   N     0.46289   0.21169   0.13875   0.00000  Uiso   1.00
N134   N     0.36264   0.95646   0.99091   0.00000  Uiso   1.00
N135   N     0.33150   0.16724   0.54899   0.00000  Uiso   1.00
N136   N     0.40209   0.22846   0.21026   0.00000  Uiso   1.00
N137   N     0.30184   0.97323   0.06243   0.00000  Uiso   1.00
N138   N     0.27070   0.18401   0.62050   0.00000  Uiso   1.00
C139   C     0.89103   0.61034   0.38658   0.00000  Uiso   1.00
C140   C     0.89598   0.64238   0.47354   0.00000  Uiso   1.00
C141   C     0.93400   0.65997   0.50683   0.00000  Uiso   1.00
C142   C     0.93182   0.68868   0.58752   0.00000  Uiso   1.00
C143   C     0.94541   0.73677   0.71564   0.00000  Uiso   1.00
C144   C     0.86835   0.57203   0.43282   0.00000  Uiso   1.00
C145   C     0.88314   0.53048   0.43185   0.00000  Uiso   1.00
C146   C     0.85770   0.49998   0.47824   0.00000  Uiso   1.00
C147   C     0.82838   0.43885   0.54306   0.00000  Uiso   1.00
C148   C     0.85977   0.63013   0.31103   0.00000  Uiso   1.00
C149   C     0.86735   0.63741   0.20765   0.00000  Uiso   1.00
C150   C     0.83467   0.65581   0.15150   0.00000  Uiso   1.00
C151   C     0.79204   0.68490   0.02722   0.00000  Uiso   1.00
C152   C     0.81953   0.63006   0.47068   0.00000  Uiso   1.00
C153   C     0.85714   0.65308   0.51922   0.00000  Uiso   1.00
C154   C     0.85490   0.68178   0.59988   0.00000  Uiso   1.00
C155   C     0.89291   0.69941   0.63328   0.00000  Uiso   1.00
C156   C     0.82951   0.58274   0.47850   0.00000  Uiso   1.00
C157   C     0.80404   0.55229   0.52490   0.00000  Uiso   1.00
C158   C     0.81879   0.51070   0.52401   0.00000  Uiso   1.00
C159   C     0.82093   0.64084   0.35671   0.00000  Uiso   1.00
C160   C     0.78824   0.65923   0.30070   0.00000  Uiso   1.00
C161   C     0.79577   0.66654   0.19726   0.00000  Uiso   1.00
H162   H     0.92127   0.60200   0.35102   0.00000  Uiso   1.00
H163   H     0.96405   0.65167   0.47147   0.00000  Uiso   1.00
H164   H     0.91320   0.52220   0.39649   0.00000  Uiso   1.00
H165   H     0.89740   0.62912   0.17233   0.00000  Uiso   1.00
H166   H     0.99436   0.71144   0.62518   0.00000  Uiso   1.00
H167   H     0.88713   0.43845   0.46704   0.00000  Uiso   1.00
H168   H     0.85382   0.66391   0.99436   0.00000  Uiso   1.00
H169   H     0.78929   0.63840   0.50625   0.00000  Uiso   1.00
H170   H     0.82484   0.69006   0.63522   0.00000  Uiso   1.00
H171   H     0.77398   0.56059   0.56023   0.00000  Uiso   1.00
H172   H     0.75819   0.66751   0.33608   0.00000  Uiso   1.00
H173   H     0.88137   0.74260   0.75809   0.00000  Uiso   1.00
H174   H     0.77414   0.46961   0.59994   0.00000  Uiso   1.00
H175   H     0.74083   0.69507   0.12727   0.00000  Uiso   1.00
O176   O     0.96363   0.76034   0.77369   0.00000  Uiso   1.00
O177   O     0.82294   0.40218   0.56620   0.00000  Uiso   1.00
O178   O     0.77925   0.69799   0.94606   0.00000  Uiso   1.00
N179   N     0.96289   0.71169   0.63875   0.00000  Uiso   1.00
N180   N     0.86264   0.45646   0.49091   0.00000  Uiso   1.00
N181   N     0.83150   0.66724   0.04899   0.00000  Uiso   1.00
N182   N     0.90209   0.72846   0.71026   0.00000  Uiso   1.00
N183   N     0.80184   0.47323   0.56243   0.00000  Uiso   1.00
N184   N     0.77070   0.68401   0.12050   0.00000  Uiso   1.00
C185   C     0.61034   0.60897   0.63658   0.00000  Uiso   1.00
C186   C     0.64238   0.60402   0.72354   0.00000  Uiso   1.00
C187   C     0.65997   0.56600   0.75683   0.00000  Uiso   1.00
C188   C     0.68868   0.56818   0.83752   0.00000  Uiso   1.00
C189   C     0.73677   0.55459   0.96564   0.00000  Uiso   1.00
C190   C     0.57203   0.63165   0.68282   0.00000  Uiso   1.00
C191   C     0.53048   0.61686   0.68185   0.00000  Uiso   1.00
C192   C     0.49998   0.64230   0.72824   0.00000  Uiso   1.00
C193   C     0.43885   0.67162   0.79306   0.00000  Uiso   1.00
C194   C     0.63013   0.64023   0.56103   0.00000  Uiso   1.00
C195   C     0.63741   0.63265   0.45765   0.00000  Uiso   1.00
C196   C     0.65581   0.66533   0.40150   0.00000  Uiso   1.00
C197   C     0.68490   0.70796   0.27722   0.00000  Uiso   1.00
C198   C     0.63006   0.68047   0.72068   0.00000  Uiso   1.00
C199   C     0.65308   0.64286   0.76922   0.00000  Uiso   1.00
C200   C     0.68178   0.64510   0.84988   0.00000  Uiso   1.00
C201   C     0.69941   0.60709   0.88328   0.00000  Uiso   1.00
C202   C     0.58274   0.67049   0.72850   0.00000  Uiso   1.00
C203   C     0.55229   0.69596   0.77490   0.00000  Uiso   1.00
C204   C     0.51070   0.68121   0.77401   0.00000  Uiso   1.00
C205   C     0.64084   0.67907   0.60671   0.00000  Uiso   1.00
C206   C     0.65923   0.71176   0.55070   0.00000  Uiso   1.00
C207   C     0.66654   0.70423   0.44726   0.00000  Uiso   1.00
H208   H     0.60200   0.57873   0.60102   0.00000  Uiso   1.00
H209   H     0.65167   0.53595   0.72147   0.00000  Uiso   1.00
H210   H     0.52220   0.58680   0.64649   0.00000  Uiso   1.00
H211   H     0.62912   0.60260   0.42233   0.00000  Uiso   1.00
H212   H     0.71144   0.50564   0.87518   0.00000  Uiso   1.00
H213   H     0.43845   0.61287   0.71704   0.00000  Uiso   1.00
H214   H     0.66391   0.64618   0.24436   0.00000  Uiso   1.00
H215   H     0.63840   0.71071   0.75625   0.00000  Uiso   1.00
H216   H     0.69006   0.67516   0.88522   0.00000  Uiso   1.00
H217   H     0.56059   0.72602   0.81023   0.00000  Uiso   1.00
H218   H     0.66751   0.74181   0.58608   0.00000  Uiso   1.00
H219   H     0.74260   0.61863   0.00809   0.00000  Uiso   1.00
H220   H     0.46961   0.72586   0.84994   0.00000  Uiso   1.00
H221   H     0.69507   0.75917   0.37727   0.00000  Uiso   1.00
O222   O     0.76034   0.53637   0.02369   0.00000  Uiso   1.00
O223   O     0.40218   0.67706   0.81620   0.00000  Uiso   1.00
O224   O     0.69799   0.72075   0.19606   0.00000  Uiso   1.00
N225   N     0.71169   0.53711   0.88875   0.00000  Uiso   1.00
N226   N     0.45646   0.63736   0.74091   0.00000  Uiso   1.00
N227   N     0.66724   0.66850   0.29899   0.00000  Uiso   1.00
N228   N     0.72846   0.59791   0.96026   0.00000  Uiso   1.00
N229   N     0.47323   0.69816   0.81243   0.00000  Uiso   1.00
N230   N     0.68401   0.72930   0.37050   0.00000  Uiso   1.00
C231   C     0.11034   0.10897   0.13658   0.00000  Uiso   1.00
C232   C     0.14238   0.10402   0.22354   0.00000  Uiso   1.00
C233   C     0.15997   0.06600   0.25683   0.00000  Uiso   1.00
C234   C     0.18868   0.06818   0.33752   0.00000  Uiso   1.00
C235   C     0.23677   0.05459   0.46564   0.00000  Uiso   1.00
C236   C     0.07203   0.13165   0.18282   0.00000  Uiso   1.00
C237   C     0.03048   0.11686   0.18185   0.00000  Uiso   1.00
C238   C     0.99998   0.14230   0.22824   0.00000  Uiso   1.00
C239   C     0.93885   0.17162   0.29306   0.00000  Uiso   1.00
C240   C     0.13013   0.14023   0.06103   0.00000  Uiso   1.00
C241   C     0.13741   0.13265   0.95765   0.00000  Uiso   1.00
C242   C     0.15581   0.16533   0.90150   0.00000  Uiso   1.00
C243   C     0.18490   0.20796   0.77722   0.00000  Uiso   1.00
C244   C     0.13006   0.18047   0.22068   0.00000  Uiso   1.00
C245   C     0.15308   0.14286   0.26922   0.00000  Uiso   1.00
C246   C     0.18178   0.14510   0.34988   0.00000  Uiso   1.00
C247   C     0.19941   0.10709   0.38328   0.00000  Uiso   1.00
C248   C     0.08274   0.17049   0.22850   0.00000  Uiso   1.00
C249   C     0.05229   0.19596   0.27490   0.00000  Uiso   1.00
C250   C     0.01070   0.18121   0.27401   0.00000  Uiso   1.00
C251   C     0.14084   0.17907   0.10671   0.00000  Uiso   1.00
C252   C     0.15923   0.21176   0.05070   0.00000  Uiso   1.00
C253   C     0.16654   0.20423   0.94726   0.00000  Uiso   1.00
H254   H     0.10200   0.07873   0.10102   0.00000  Uiso   1.00
H255   H     0.15167   0.03595   0.22147   0.00000  Uiso   1.00
H256   H     0.02220   0.08680   0.14649   0.00000  Uiso   1.00
H257   H     0.12912   0.10260   0.92233   0.00000  Uiso   1.00
H258   H     0.21144   0.00564   0.37518   0.00000  Uiso   1.00
H259   H     0.93845   0.11287   0.21704   0.00000  Uiso   1.00
H260   H     0.16391   0.14618   0.74436   0.00000  Uiso   1.00
H261   H     0.13840   0.21071   0.25625   0.00000  Uiso   1.00
H262   H     0.19006   0.17516   0.38522   0.00000  Uiso   1.00
H263   H     0.06059   0.22602   0.31023   0.00000  Uiso   1.00
H264   H     0.16751   0.24181   0.08608   0.00000  Uiso   1.00
H265   H     0.24260   0.11863   0.50809   0.00000  Uiso   1.00
H266   H     0.96961   0.22586   0.34994   0.00000  Uiso   1.00
H267   H     0.19507   0.25917   0.87727   0.00000  Uiso   1.00
O268   O     0.26034   0.03637   0.52369   0.00000  Uiso   1.00
O269   O     0.90218   0.17706   0.31620   0.00000  Uiso   1.00
O270   O     0.19799   0.22075   0.69606   0.00000  Uiso   1.00
N271   N     0.21169   0.03711   0.38875   0.00000  Uiso   1.00
N272   N     0.95646   0.13736   0.24091   0.00000  Uiso   1.00
N273   N     0.16724   0.16850   0.79899   0.00000  Uiso   1.00
N274   N     0.22846   0.09791   0.46026   0.00000  Uiso   1.00
N275   N     0.97323   0.19816   0.31243   0.00000  Uiso   1.00
N276   N     0.18401   0.22930   0.87050   0.00000  Uiso   1.00
C277   C     0.88966   0.89103   0.13658   0.00000  Uiso   1.00
C278   C     0.85762   0.89598   0.22354   0.00000  Uiso   1.00
C279   C     0.84003   0.93400   0.25683   0.00000  Uiso   1.00
C280   C     0.81132   0.93182   0.33752   0.00000  Uiso   1.00
C281   C     0.76323   0.94541   0.46564   0.00000  Uiso   1.00
C282   C     0.92797   0.86835   0.18282   0.00000  Uiso   1.00
C283   C     0.96952   0.88314   0.18185   0.00000  Uiso   1.00
C284   C     0.00002   0.85770   0.22824   0.00000  Uiso   1.00
C285   C     0.06115   0.82838   0.29306   0.00000  Uiso   1.00
C286   C     0.86987   0.85977   0.06103   0.00000  Uiso   1.00
C287   C     0.86259   0.86735   0.95765   0.00000  Uiso   1.00
C288   C     0.84419   0.83467   0.90150   0.00000  Uiso   1.00
C289   C     0.81510   0.79204   0.77722   0.00000  Uiso   1.00
C290   C     0.86994   0.81953   0.22068   0.00000  Uiso   1.00
C291   C     0.84692   0.85714   0.26922   0.00000  Uiso   1.00
C292   C     0.81822   0.85490   0.34988   0.00000  Uiso   1.00
C293   C     0.80059   0.89291   0.38328   0.00000  Uiso   1.00
C294   C     0.91726   0.82951   0.22850   0.00000  Uiso   1.00
C295   C     0.94771   0.80404   0.27490   0.00000  Uiso   1.00
C296   C     0.98930   0.81879   0.27401   0.00000  Uiso   1.00
C297   C     0.85916   0.82093   0.10671   0.00000  Uiso   1.00
C298   C     0.84077   0.78824   0.05070   0.00000  Uiso   1.00
C299   C     0.83346   0.79577   0.94726   0.00000  Uiso   1.00
H300   H     0.89800   0.92127   0.10102   0.00000  Uiso   1.00
H301   H     0.84833   0.96405   0.22147   0.00000  Uiso   1.00
H302   H     0.97780   0.91320   0.14649   0.00000  Uiso   1.00
H303   H     0.87088   0.89740   0.92233   0.00000  Uiso   1.00
H304   H     0.78856   0.99436   0.37518   0.00000  Uiso   1.00
H305   H     0.06155   0.88713   0.21704   0.00000  Uiso   1.00
H306   H     0.83609   0.85382   0.74436   0.00000  Uiso   1.00
H307   H     0.86160   0.78929   0.25625   0.00000  Uiso   1.00
H308   H     0.80994   0.82484   0.38522   0.00000  Uiso   1.00
H309   H     0.93941   0.77398   0.31023   0.00000  Uiso   1.00
H310   H     0.83249   0.75819   0.08608   0.00000  Uiso   1.00
H311   H     0.75740   0.88137   0.50809   0.00000  Uiso   1.00
H312   H     0.03039   0.77414   0.34994   0.00000  Uiso   1.00
H313   H     0.80493   0.74083   0.87727   0.00000  Uiso   1.00
O314   O     0.73966   0.96363   0.52369   0.00000  Uiso   1.00
O315   O     0.09782   0.82294   0.31620   0.00000  Uiso   1.00
O316   O     0.80201   0.77925   0.69606   0.00000  Uiso   1.00
N317   N     0.78831   0.96289   0.38875   0.00000  Uiso   1.00
N318   N     0.04354   0.86264   0.24091   0.00000  Uiso   1.00
N319   N     0.83276   0.83150   0.79899   0.00000  Uiso   1.00
N320   N     0.77154   0.90209   0.46026   0.00000  Uiso   1.00
N321   N     0.02677   0.80184   0.31243   0.00000  Uiso   1.00
N322   N     0.81599   0.77070   0.87050   0.00000  Uiso   1.00
C323   C     0.38966   0.39103   0.63658   0.00000  Uiso   1.00
C324   C     0.35762   0.39598   0.72354   0.00000  Uiso   1.00
C325   C     0.34003   0.43400   0.75683   0.00000  Uiso   1.00
C326   C     0.31132   0.43182   0.83752   0.00000  Uiso   1.00
C327   C     0.26323   0.44541   0.96564   0.00000  Uiso   1.00
C328   C     0.42797   0.36835   0.68282   0.00000  Uiso   1.00
C329   C     0.46952   0.38314   0.68185   0.00000  Uiso   1.00
C330   C     0.50002   0.35770   0.72824   0.00000  Uiso   1.00
C331   C     0.56115   0.32838   0.79306   0.00000  Uiso   1.00
C332   C     0.36987   0.35977   0.56103   0.00000  Uiso   1.00
C333   C     0.36259   0.36735   0.45765   0.00000  Uiso   1.00
C334   C     0.34419   0.33467   0.40150   0.00000  Uiso   1.00
C335   C     0.31510   0.29204   0.27722   0.00000  Uiso   1.00
C336   C     0.36994   0.31953   0.72068   0.00000  Uiso   1.00
C337   C     0.34692   0.35714   0.76922   0.00000  Uiso   1.00
C338   C     0.31822   0.35490   0.84988   0.00000  Uiso   1.00
C339   C     0.30059   0.39291   0.88328   0.00000  Uiso   1.00
C340   C     0.41726   0.32951   0.72850   0.00000  Uiso   1.00
C341   C     0.44771   0.30404   0.77490   0.00000  Uiso   1.00
C342   C     0.48930   0.31879   0.77401   0.00000  Uiso   1.00
C343   C     0.35916   0.32093   0.60671   0.00000  Uiso   1.00
C344   C     0.34077   0.28824   0.55070   0.00000  Uiso   1.00
C345   C     0.33346   0.29577   0.44726   0.00000  Uiso   1.00
H346   H     0.39800   0.42127   0.60102   0.00000  Uiso   1.00
H347   H     0.34833   0.46405   0.72147   0.00000  Uiso   1.00
H348   H     0.47780   0.41320   0.64649   0.00000  Uiso   1.00
H349   H     0.37088   0.39740   0.42233   0.00000  Uiso   1.00
H350   H     0.28856   0.49436   0.87518   0.00000  Uiso   1.00
H351   H     0.56155   0.38713   0.71704   0.00000  Uiso   1.00
H352   H     0.33609   0.35382   0.24436   0.00000  Uiso   1.00
H353   H     0.36160   0.28929   0.75625   0.00000  Uiso   1.00
H354   H     0.30994   0.32484   0.88522   0.00000  Uiso   1.00
H355   H     0.43941   0.27398   0.81023   0.00000  Uiso   1.00
H356   H     0.33249   0.25819   0.58608   0.00000  Uiso   1.00
H357   H     0.25740   0.38137   0.00809   0.00000  Uiso   1.00
H358   H     0.53039   0.27414   0.84994   0.00000  Uiso   1.00
H359   H     0.30493   0.24083   0.37727   0.00000  Uiso   1.00
O360   O     0.23966   0.46363   0.02369   0.00000  Uiso   1.00
O361   O     0.59782   0.32294   0.81620   0.00000  Uiso   1.00
O362   O     0.30201   0.27925   0.19606   0.00000  Uiso   1.00
N363   N     0.28831   0.46289   0.88875   0.00000  Uiso   1.00
N364   N     0.54354   0.36264   0.74091   0.00000  Uiso   1.00
N365   N     0.33276   0.33150   0.29899   0.00000  Uiso   1.00
N366   N     0.27154   0.40209   0.96026   0.00000  Uiso   1.00
N367   N     0.52677   0.30184   0.81243   0.00000  Uiso   1.00
N368   N     0.31599   0.27070   0.37050   0.00000  Uiso   1.00
C369   C     0.89103   0.11034   0.86342   0.00000  Uiso   1.00
C370   C     0.89598   0.14238   0.77646   0.00000  Uiso   1.00
C371   C     0.93400   0.15997   0.74317   0.00000  Uiso   1.00
C372   C     0.93182   0.18868   0.66248   0.00000  Uiso   1.00
C373   C     0.94541   0.23677   0.53436   0.00000  Uiso   1.00
C374   C     0.86835   0.07203   0.81718   0.00000  Uiso   1.00
C375   C     0.88314   0.03048   0.81815   0.00000  Uiso   1.00
C376   C     0.85770   0.99998   0.77176   0.00000  Uiso   1.00
C377   C     0.82838   0.93885   0.70694   0.00000  Uiso   1.00
C378   C     0.85977   0.13013   0.93897   0.00000  Uiso   1.00
C379   C     0.86735   0.13741   0.04235   0.00000  Uiso   1.00
C380   C     0.83467   0.15581   0.09850   0.00000  Uiso   1.00
C381   C     0.79204   0.18490   0.22278   0.00000  Uiso   1.00
C382   C     0.81953   0.13006   0.77932   0.00000  Uiso   1.00
C383   C     0.85714   0.15308   0.73078   0.00000  Uiso   1.00
C384   C     0.85490   0.18178   0.65012   0.00000  Uiso   1.00
C385   C     0.89291   0.19941   0.61672   0.00000  Uiso   1.00
C386   C     0.82951   0.08274   0.77150   0.00000  Uiso   1.00
C387   C     0.80404   0.05229   0.72510   0.00000  Uiso   1.00
C388   C     0.81879   0.01070   0.72599   0.00000  Uiso   1.00
C389   C     0.82093   0.14084   0.89329   0.00000  Uiso   1.00
C390   C     0.78824   0.15923   0.94930   0.00000  Uiso   1.00
C391   C     0.79577   0.16654   0.05274   0.00000  Uiso   1.00
H392   H     0.92127   0.10200   0.89898   0.00000  Uiso   1.00
H393   H     0.96405   0.15167   0.77853   0.00000  Uiso   1.00
H394   H     0.91320   0.02220   0.85351   0.00000  Uiso   1.00
H395   H     0.89740   0.12912   0.07767   0.00000  Uiso   1.00
H396   H     0.99436   0.21144   0.62482   0.00000  Uiso   1.00
H397   H     0.88713   0.93845   0.78296   0.00000  Uiso   1.00
H398   H     0.85382   0.16391   0.25564   0.00000  Uiso   1.00
H399   H     0.78929   0.13840   0.74375   0.00000  Uiso   1.00
H400   H     0.82484   0.19006   0.61478   0.00000  Uiso   1.00
H401   H     0.77398   0.06059   0.68977   0.00000  Uiso   1.00
H402   H     0.75819   0.16751   0.91392   0.00000  Uiso   1.00
H403   H     0.88137   0.24260   0.49191   0.00000  Uiso   1.00
H404   H     0.77414   0.96961   0.65006   0.00000  Uiso   1.00
H405   H     0.74083   0.19507   0.12273   0.00000  Uiso   1.00
O406   O     0.96363   0.26034   0.47631   0.00000  Uiso   1.00
O407   O     0.82294   0.90218   0.68380   0.00000  Uiso   1.00
O408   O     0.77925   0.19799   0.30394   0.00000  Uiso   1.00
N409   N     0.96289   0.21169   0.61125   0.00000  Uiso   1.00
N410   N     0.86264   0.95646   0.75909   0.00000  Uiso   1.00
N411   N     0.83150   0.16724   0.20101   0.00000  Uiso   1.00
N412   N     0.90209   0.22846   0.53974   0.00000  Uiso   1.00
N413   N     0.80184   0.97323   0.68757   0.00000  Uiso   1.00
N414   N     0.77070   0.18401   0.12950   0.00000  Uiso   1.00
C415   C     0.39103   0.61034   0.36342   0.00000  Uiso   1.00
C416   C     0.39598   0.64238   0.27646   0.00000  Uiso   1.00
C417   C     0.43400   0.65997   0.24317   0.00000  Uiso   1.00
C418   C     0.43182   0.68868   0.16248   0.00000  Uiso   1.00
C419   C     0.44541   0.73677   0.03436   0.00000  Uiso   1.00
C420   C     0.36835   0.57203   0.31718   0.00000  Uiso   1.00
C421   C     0.38314   0.53048   0.31815   0.00000  Uiso   1.00
C422   C     0.35770   0.49998   0.27176   0.00000  Uiso   1.00
C423   C     0.32838   0.43885   0.20694   0.00000  Uiso   1.00
C424   C     0.35977   0.63013   0.43897   0.00000  Uiso   1.00
C425   C     0.36735   0.63741   0.54235   0.00000  Uiso   1.00
C426   C     0.33467   0.65581   0.59850   0.00000  Uiso   1.00
C427   C     0.29204   0.68490   0.72278   0.00000  Uiso   1.00
C428   C     0.31953   0.63006   0.27932   0.00000  Uiso   1.00
C429   C     0.35714   0.65308   0.23078   0.00000  Uiso   1.00
C430   C     0.35490   0.68178   0.15012   0.00000  Uiso   1.00
C431   C     0.39291   0.69941   0.11672   0.00000  Uiso   1.00
C432   C     0.32951   0.58274   0.27150   0.00000  Uiso   1.00
C433   C     0.30404   0.55229   0.22510   0.00000  Uiso   1.00
C434   C     0.31879   0.51070   0.22599   0.00000  Uiso   1.00
C435   C     0.32093   0.64084   0.39329   0.00000  Uiso   1.00
C436   C     0.28824   0.65923   0.44930   0.00000  Uiso   1.00
C437   C     0.29577   0.66654   0.55274   0.00000  Uiso   1.00
H438   H     0.42127   0.60200   0.39898   0.00000  Uiso   1.00
H439   H     0.46405   0.65167   0.27853   0.00000  Uiso   1.00
H440   H     0.41320   0.52220   0.35351   0.00000  Uiso   1.00
H441   H     0.39740   0.62912   0.57767   0.00000  Uiso   1.00
H442   H     0.49436   0.71144   0.12482   0.00000  Uiso   1.00
H443   H     0.38713   0.43845   0.28296   0.00000  Uiso   1.00
H444   H     0.35382   0.66391   0.75564   0.00000  Uiso   1.00
H445   H     0.28929   0.63840   0.24375   0.00000  Uiso   1.00
H446   H     0.32484   0.69006   0.11478   0.00000  Uiso   1.00
H447   H     0.27398   0.56059   0.18977   0.00000  Uiso   1.00
H448   H     0.25819   0.66751   0.41392   0.00000  Uiso   1.00
H449   H     0.38137   0.74260   0.99191   0.00000  Uiso   1.00
H450   H     0.27414   0.46961   0.15006   0.00000  Uiso   1.00
H451   H     0.24083   0.69507   0.62273   0.00000  Uiso   1.00
O452   O     0.46363   0.76034   0.97631   0.00000  Uiso   1.00
O453   O     0.32294   0.40218   0.18380   0.00000  Uiso   1.00
O454   O     0.27925   0.69799   0.80394   0.00000  Uiso   1.00
N455   N     0.46289   0.71169   0.11125   0.00000  Uiso   1.00
N456   N     0.36264   0.45646   0.25909   0.00000  Uiso   1.00
N457   N     0.33150   0.66724   0.70101   0.00000  Uiso   1.00
N458   N     0.40209   0.72846   0.03974   0.00000  Uiso   1.00
N459   N     0.30184   0.47323   0.18757   0.00000  Uiso   1.00
N460   N     0.27070   0.68401   0.62950   0.00000  Uiso   1.00
C461   C     0.60897   0.38966   0.36342   0.00000  Uiso   1.00
C462   C     0.60402   0.35762   0.27646   0.00000  Uiso   1.00
C463   C     0.56600   0.34003   0.24317   0.00000  Uiso   1.00
C464   C     0.56818   0.31132   0.16248   0.00000  Uiso   1.00
C465   C     0.55459   0.26323   0.03436   0.00000  Uiso   1.00
C466   C     0.63165   0.42797   0.31718   0.00000  Uiso   1.00
C467   C     0.61686   0.46952   0.31815   0.00000  Uiso   1.00
C468   C     0.64230   0.50002   0.27176   0.00000  Uiso   1.00
C469   C     0.67162   0.56115   0.20694   0.00000  Uiso   1.00
C470   C     0.64023   0.36987   0.43897   0.00000  Uiso   1.00
C471   C     0.63265   0.36259   0.54235   0.00000  Uiso   1.00
C472   C     0.66533   0.34419   0.59850   0.00000  Uiso   1.00
C473   C     0.70796   0.31510   0.72278   0.00000  Uiso   1.00
C474   C     0.68047   0.36994   0.27932   0.00000  Uiso   1.00
C475   C     0.64286   0.34692   0.23078   0.00000  Uiso   1.00
C476   C     0.64510   0.31822   0.15012   0.00000  Uiso   1.00
C477   C     0.60709   0.30059   0.11672   0.00000  Uiso   1.00
C478   C     0.67049   0.41726   0.27150   0.00000  Uiso   1.00
C479   C     0.69596   0.44771   0.22510   0.00000  Uiso   1.00
C480   C     0.68121   0.48930   0.22599   0.00000  Uiso   1.00
C481   C     0.67907   0.35916   0.39329   0.00000  Uiso   1.00
C482   C     0.71176   0.34077   0.44930   0.00000  Uiso   1.00
C483   C     0.70423   0.33346   0.55274   0.00000  Uiso   1.00
H484   H     0.57873   0.39800   0.39898   0.00000  Uiso   1.00
H485   H     0.53595   0.34833   0.27853   0.00000  Uiso   1.00
H486   H     0.58680   0.47780   0.35351   0.00000  Uiso   1.00
H487   H     0.60260   0.37088   0.57767   0.00000  Uiso   1.00
H488   H     0.50564   0.28856   0.12482   0.00000  Uiso   1.00
H489   H     0.61287   0.56155   0.28296   0.00000  Uiso   1.00
H490   H     0.64618   0.33609   0.75564   0.00000  Uiso   1.00
H491   H     0.71071   0.36160   0.24375   0.00000  Uiso   1.00
H492   H     0.67516   0.30994   0.11478   0.00000  Uiso   1.00
H493   H     0.72602   0.43941   0.18977   0.00000  Uiso   1.00
H494   H     0.74181   0.33249   0.41392   0.00000  Uiso   1.00
H495   H     0.61863   0.25740   0.99191   0.00000  Uiso   1.00
H496   H     0.72586   0.53039   0.15006   0.00000  Uiso   1.00
H497   H     0.75917   0.30493   0.62273   0.00000  Uiso   1.00
O498   O     0.53637   0.23966   0.97631   0.00000  Uiso   1.00
O499   O     0.67706   0.59782   0.18380   0.00000  Uiso   1.00
O500   O     0.72075   0.30201   0.80394   0.00000  Uiso   1.00
N501   N     0.53711   0.28831   0.11125   0.00000  Uiso   1.00
N502   N     0.63736   0.54354   0.25909   0.00000  Uiso   1.00
N503   N     0.66850   0.33276   0.70101   0.00000  Uiso   1.00
N504   N     0.59791   0.27154   0.03974   0.00000  Uiso   1.00
N505   N     0.69816   0.52677   0.18757   0.00000  Uiso   1.00
N506   N     0.72930   0.31599   0.62950   0.00000  Uiso   1.00
C507   C     0.10897   0.88966   0.86342   0.00000  Uiso   1.00
C508   C     0.10402   0.85762   0.77646   0.00000  Uiso   1.00
C509   C     0.06600   0.84003   0.74317   0.00000  Uiso   1.00
C510   C     0.06818   0.81132   0.66248   0.00000  Uiso   1.00
C511   C     0.05459   0.76323   0.53436   0.00000  Uiso   1.00
C512   C     0.13165   0.92797   0.81718   0.00000  Uiso   1.00
C513   C     0.11686   0.96952   0.81815   0.00000  Uiso   1.00
C514   C     0.14230   0.00002   0.77176   0.00000  Uiso   1.00
C515   C     0.17162   0.06115   0.70694   0.00000  Uiso   1.00
C516   C     0.14023   0.86987   0.93897   0.00000  Uiso   1.00
C517   C     0.13265   0.86259   0.04235   0.00000  Uiso   1.00
C518   C     0.16533   0.84419   0.09850   0.00000  Uiso   1.00
C519   C     0.20796   0.81510   0.22278   0.00000  Uiso   1.00
C520   C     0.18047   0.86994   0.77932   0.00000  Uiso   1.00
C521   C     0.14286   0.84692   0.73078   0.00000  Uiso   1.00
C522   C     0.14510   0.81822   0.65012   0.00000  Uiso   1.00
C523   C     0.10709   0.80059   0.61672   0.00000  Uiso   1.00
C524   C     0.17049   0.91726   0.77150   0.00000  Uiso   1.00
C525   C     0.19596   0.94771   0.72510   0.00000  Uiso   1.00
C526   C     0.18121   0.98930   0.72599   0.00000  Uiso   1.00
C527   C     0.17907   0.85916   0.89329   0.00000  Uiso   1.00
C528   C     0.21176   0.84077   0.94930   0.00000  Uiso   1.00
C529   C     0.20423   0.83346   0.05274   0.00000  Uiso   1.00
H530   H     0.07873   0.89800   0.89898   0.00000  Uiso   1.00
H531   H     0.03595   0.84833   0.77853   0.00000  Uiso   1.00
H532   H     0.08680   0.97780   0.85351   0.00000  Uiso   1.00
H533   H     0.10260   0.87088   0.07767   0.00000  Uiso   1.00
H534   H     0.00564   0.78856   0.62482   0.00000  Uiso   1.00
H535   H     0.11287   0.06155   0.78296   0.00000  Uiso   1.00
H536   H     0.14618   0.83609   0.25564   0.00000  Uiso   1.00
H537   H     0.21071   0.86160   0.74375   0.00000  Uiso   1.00
H538   H     0.17516   0.80994   0.61478   0.00000  Uiso   1.00
H539   H     0.22602   0.93941   0.68977   0.00000  Uiso   1.00
H540   H     0.24181   0.83249   0.91392   0.00000  Uiso   1.00
H541   H     0.11863   0.75740   0.49191   0.00000  Uiso   1.00
H542   H     0.22586   0.03039   0.65006   0.00000  Uiso   1.00
H543   H     0.25917   0.80493   0.12273   0.00000  Uiso   1.00
O544   O     0.03637   0.73966   0.47631   0.00000  Uiso   1.00
O545   O     0.17706   0.09782   0.68380   0.00000  Uiso   1.00
O546   O     0.22075   0.80201   0.30394   0.00000  Uiso   1.00
N547   N     0.03711   0.78831   0.61125   0.00000  Uiso   1.00
N548   N     0.13736   0.04354   0.75909   0.00000  Uiso   1.00
N549   N     0.16850   0.83276   0.20101   0.00000  Uiso   1.00
N550   N     0.09791   0.77154   0.53974   0.00000  Uiso   1.00
N551   N     0.19816   0.02677   0.68757   0.00000  Uiso   1.00
N552   N     0.22930   0.81599   0.12950   0.00000  Uiso   1.00
C553   C     0.38966   0.89103   0.61342   0.00000  Uiso   1.00
C554   C     0.35762   0.89598   0.52646   0.00000  Uiso   1.00
C555   C     0.34003   0.93400   0.49317   0.00000  Uiso   1.00
C556   C     0.31132   0.93182   0.41248   0.00000  Uiso   1.00
C557   C     0.26323   0.94541   0.28436   0.00000  Uiso   1.00
C558   C     0.42797   0.86835   0.56718   0.00000  Uiso   1.00
C559   C     0.46952   0.88314   0.56815   0.00000  Uiso   1.00
C560   C     0.50002   0.85770   0.52176   0.00000  Uiso   1.00
C561   C     0.56115   0.82838   0.45694   0.00000  Uiso   1.00
C562   C     0.36987   0.85977   0.68897   0.00000  Uiso   1.00
C563   C     0.36259   0.86735   0.79235   0.00000  Uiso   1.00
C564   C     0.34419   0.83467   0.84850   0.00000  Uiso   1.00
C565   C     0.31510   0.79204   0.97278   0.00000  Uiso   1.00
C566   C     0.36994   0.81953   0.52932   0.00000  Uiso   1.00
C567   C     0.34692   0.85714   0.48078   0.00000  Uiso   1.00
C568   C     0.31822   0.85490   0.40012   0.00000  Uiso   1.00
C569   C     0.30059   0.89291   0.36672   0.00000  Uiso   1.00
C570   C     0.41726   0.82951   0.52150   0.00000  Uiso   1.00
C571   C     0.44771   0.80404   0.47510   0.00000  Uiso   1.00
C572   C     0.48930   0.81879   0.47599   0.00000  Uiso   1.00
C573   C     0.35916   0.82093   0.64329   0.00000  Uiso   1.00
C574   C     0.34077   0.78824   0.69930   0.00000  Uiso   1.00
C575   C     0.33346   0.79577   0.80274   0.00000  Uiso   1.00
H576   H     0.39800   0.92127   0.64898   0.00000  Uiso   1.00
H577   H     0.34833   0.96405   0.52853   0.00000  Uiso   1.00
H578   H     0.47780   0.91320   0.60351   0.00000  Uiso   1.00
H579   H     0.37088   0.89740   0.82767   0.00000  Uiso   1.00
H580   H     0.28856   0.99436   0.37482   0.00000  Uiso   1.00
H581   H     0.56155   0.88713   0.53296   0.00000  Uiso   1.00
H582   H     0.33609   0.85382   0.00564   0.00000  Uiso   1.00
H583   H     0.36160   0.78929   0.49375   0.00000  Uiso   1.00
H584   H     0.30994   0.82484   0.36478   0.00000  Uiso   1.00
H585   H     0.43941   0.77398   0.43977   0.00000  Uiso   1.00
H586   H     0.33249   0.75819   0.66392   0.00000  Uiso   1.00
H587   H     0.25740   0.88137   0.24191   0.00000  Uiso   1.00
H588   H     0.53039   0.77414   0.40006   0.00000  Uiso   1.00
H589   H     0.30493   0.74083   0.87273   0.00000  Uiso   1.00
O590   O     0.23966   0.96363   0.22631   0.00000  Uiso   1.00
O591   O     0.59782   0.82294   0.43380   0.00000  Uiso   1.00
O592   O     0.30201   0.77925   0.05394   0.00000  Uiso   1.00
N593   N     0.28831   0.96289   0.36125   0.00000  Uiso   1.00
N594   N     0.54354   0.86264   0.50909   0.00000  Uiso   1.00
N595   N     0.33276   0.83150   0.95101   0.00000  Uiso   1.00
N596   N     0.27154   0.90209   0.28974   0.00000  Uiso   1.00
N597   N     0.52677   0.80184   0.43757   0.00000  Uiso   1.00
N598   N     0.31599   0.77070   0.87950   0.00000  Uiso   1.00
C599   C     0.88966   0.39103   0.11342   0.00000  Uiso   1.00
C600   C     0.85762   0.39598   0.02646   0.00000  Uiso   1.00
C601   C     0.84003   0.43400   0.99317   0.00000  Uiso   1.00
C602   C     0.81132   0.43182   0.91248   0.00000  Uiso   1.00
C603   C     0.76323   0.44541   0.78436   0.00000  Uiso   1.00
C604   C     0.92797   0.36835   0.06718   0.00000  Uiso   1.00
C605   C     0.96952   0.38314   0.06815   0.00000  Uiso   1.00
C606   C     0.00002   0.35770   0.02176   0.00000  Uiso   1.00
C607   C     0.06115   0.32838   0.95694   0.00000  Uiso   1.00
C608   C     0.86987   0.35977   0.18897   0.00000  Uiso   1.00
C609   C     0.86259   0.36735   0.29235   0.00000  Uiso   1.00
C610   C     0.84419   0.33467   0.34850   0.00000  Uiso   1.00
C611   C     0.81510   0.29204   0.47278   0.00000  Uiso   1.00
C612   C     0.86994   0.31953   0.02932   0.00000  Uiso   1.00
C613   C     0.84692   0.35714   0.98078   0.00000  Uiso   1.00
C614   C     0.81822   0.35490   0.90012   0.00000  Uiso   1.00
C615   C     0.80059   0.39291   0.86672   0.00000  Uiso   1.00
C616   C     0.91726   0.32951   0.02150   0.00000  Uiso   1.00
C617   C     0.94771   0.30404   0.97510   0.00000  Uiso   1.00
C618   C     0.98930   0.31879   0.97599   0.00000  Uiso   1.00
C619   C     0.85916   0.32093   0.14329   0.00000  Uiso   1.00
C620   C     0.84077   0.28824   0.19930   0.00000  Uiso   1.00
C621   C     0.83346   0.29577   0.30274   0.00000  Uiso   1.00
H622   H     0.89800   0.42127   0.14898   0.00000  Uiso   1.00
H623   H     0.84833   0.46405   0.02853   0.00000  Uiso   1.00
H624   H     0.97780   0.41320   0.10351   0.00000  Uiso   1.00
H625   H     0.87088   0.39740   0.32767   0.00000  Uiso   1.00
H626   H     0.78856   0.49436   0.87482   0.00000  Uiso   1.00
H627   H     0.06155   0.38713   0.03296   0.00000  Uiso   1.00
H628   H     0.83609   0.35382   0.50564   0.00000  Uiso   1.00
H629   H     0.86160   0.28929   0.99375   0.00000  Uiso   1.00
H630   H     0.80994   0.32484   0.86478   0.00000  Uiso   1.00
H631   H     0.93941   0.27398   0.93977   0.00000  Uiso   1.00
H632   H     0.83249   0.25819   0.16392   0.00000  Uiso   1.00
H633   H     0.75740   0.38137   0.74191   0.00000  Uiso   1.00
H634   H     0.03039   0.27414   0.90006   0.00000  Uiso   1.00
H635   H     0.80493   0.24083   0.37273   0.00000  Uiso   1.00
O636   O     0.73966   0.46363   0.72631   0.00000  Uiso   1.00
O637   O     0.09782   0.32294   0.93380   0.00000  Uiso   1.00
O638   O     0.80201   0.27925   0.55394   0.00000  Uiso   1.00
N639   N     0.78831   0.46289   0.86125   0.00000  Uiso   1.00
N640   N     0.04354   0.36264   0.00909   0.00000  Uiso   1.00
N641   N     0.83276   0.33150   0.45101   0.00000  Uiso   1.00
N642   N     0.77154   0.40209   0.78974   0.00000  Uiso   1.00
N643   N     0.02677   0.30184   0.93757   0.00000  Uiso   1.00
N644   N     0.81599   0.27070   0.37950   0.00000  Uiso   1.00
C645   C     0.11034   0.60897   0.11342   0.00000  Uiso   1.00
C646   C     0.14238   0.60402   0.02646   0.00000  Uiso   1.00
C647   C     0.15997   0.56600   0.99317   0.00000  Uiso   1.00
C648   C     0.18868   0.56818   0.91248   0.00000  Uiso   1.00
C649   C     0.23677   0.55459   0.78436   0.00000  Uiso   1.00
C650   C     0.07203   0.63165   0.06718   0.00000  Uiso   1.00
C651   C     0.03048   0.61686   0.06815   0.00000  Uiso   1.00
C652   C     0.99998   0.64230   0.02176   0.00000  Uiso   1.00
C653   C     0.93885   0.67162   0.95694   0.00000  Uiso   1.00
C654   C     0.13013   0.64023   0.18897   0.00000  Uiso   1.00
C655   C     0.13741   0.63265   0.29235   0.00000  Uiso   1.00
C656   C     0.15581   0.66533   0.34850   0.00000  Uiso   1.00
C657   C     0.18490   0.70796   0.47278   0.00000  Uiso   1.00
C658   C     0.13006   0.68047   0.02932   0.00000  Uiso   1.00
C659   C     0.15308   0.64286   0.98078   0.00000  Uiso   1.00
C660   C     0.18178   0.64510   0.90012   0.00000  Uiso   1.00
C661   C     0.19941   0.60709   0.86672   0.00000  Uiso   1.00
C662   C     0.08274   0.67049   0.02150   0.00000  Uiso   1.00
C663   C     0.05229   0.69596   0.97510   0.00000  Uiso   1.00
C664   C     0.01070   0.68121   0.97599   0.00000  Uiso   1.00
C665   C     0.14084   0.67907   0.14329   0.00000  Uiso   1.00
C666   C     0.15923   0.71176   0.19930   0.00000  Uiso   1.00
C667   C     0.16654   0.70423   0.30274   0.00000  Uiso   1.00
H668   H     0.10200   0.57873   0.14898   0.00000  Uiso   1.00
H669   H     0.15167   0.53595   0.02853   0.00000  Uiso   1.00
H670   H     0.02220   0.58680   0.10351   0.00000  Uiso   1.00
H671   H     0.12912   0.60260   0.32767   0.00000  Uiso   1.00
H672   H     0.21144   0.50564   0.87482   0.00000  Uiso   1.00
H673   H     0.93845   0.61287   0.03296   0.00000  Uiso   1.00
H674   H     0.16391   0.64618   0.50564   0.00000  Uiso   1.00
H675   H     0.13840   0.71071   0.99375   0.00000  Uiso   1.00
H676   H     0.19006   0.67516   0.86478   0.00000  Uiso   1.00
H677   H     0.06059   0.72602   0.93977   0.00000  Uiso   1.00
H678   H     0.16751   0.74181   0.16392   0.00000  Uiso   1.00
H679   H     0.24260   0.61863   0.74191   0.00000  Uiso   1.00
H680   H     0.96961   0.72586   0.90006   0.00000  Uiso   1.00
H681   H     0.19507   0.75917   0.37273   0.00000  Uiso   1.00
O682   O     0.26034   0.53637   0.72631   0.00000  Uiso   1.00
O683   O     0.90218   0.67706   0.93380   0.00000  Uiso   1.00
O684   O     0.19799   0.72075   0.55394   0.00000  Uiso   1.00
N685   N     0.21169   0.53711   0.86125   0.00000  Uiso   1.00
N686   N     0.95646   0.63736   0.00909   0.00000  Uiso   1.00
N687   N     0.16724   0.66850   0.45101   0.00000  Uiso   1.00
N688   N     0.22846   0.59791   0.78974   0.00000  Uiso   1.00
N689   N     0.97323   0.69816   0.93757   0.00000  Uiso   1.00
N690   N     0.18401   0.72930   0.37950   0.00000  Uiso   1.00
C691   C     0.61034   0.10897   0.61342   0.00000  Uiso   1.00
C692   C     0.64238   0.10402   0.52646   0.00000  Uiso   1.00
C693   C     0.65997   0.06600   0.49317   0.00000  Uiso   1.00
C694   C     0.68868   0.06818   0.41248   0.00000  Uiso   1.00
C695   C     0.73677   0.05459   0.28436   0.00000  Uiso   1.00
C696   C     0.57203   0.13165   0.56718   0.00000  Uiso   1.00
C697   C     0.53048   0.11686   0.56815   0.00000  Uiso   1.00
C698   C     0.49998   0.14230   0.52176   0.00000  Uiso   1.00
C699   C     0.43885   0.17162   0.45694   0.00000  Uiso   1.00
C700   C     0.63013   0.14023   0.68897   0.00000  Uiso   1.00
C701   C     0.63741   0.13265   0.79235   0.00000  Uiso   1.00
C702   C     0.65581   0.16533   0.84850   0.00000  Uiso   1.00
C703   C     0.68490   0.20796   0.97278   0.00000  Uiso   1.00
C704   C     0.63006   0.18047   0.52932   0.00000  Uiso   1.00
C705   C     0.65308   0.14286   0.48078   0.00000  Uiso   1.00
C706   C     0.68178   0.14510   0.40012   0.00000  Uiso   1.00
C707   C     0.69941   0.10709   0.36672   0.00000  Uiso   1.00
C708   C     0.58274   0.17049   0.52150   0.00000  Uiso   1.00
C709   C     0.55229   0.19596   0.47510   0.00000  Uiso   1.00
C710   C     0.51070   0.18121   0.47599   0.00000  Uiso   1.00
C711   C     0.64084   0.17907   0.64329   0.00000  Uiso   1.00
C712   C     0.65923   0.21176   0.69930   0.00000  Uiso   1.00
C713   C     0.66654   0.20423   0.80274   0.00000  Uiso   1.00
H714   H     0.60200   0.07873   0.64898   0.00000  Uiso   1.00
H715   H     0.65167   0.03595   0.52853   0.00000  Uiso   1.00
H716   H     0.52220   0.08680   0.60351   0.00000  Uiso   1.00
H717   H     0.62912   0.10260   0.82767   0.00000  Uiso   1.00
H718   H     0.71144   0.00564   0.37482   0.00000  Uiso   1.00
H719   H     0.43845   0.11287   0.53296   0.00000  Uiso   1.00
H720   H     0.66391   0.14618   0.00564   0.00000  Uiso   1.00
H721   H     0.63840   0.21071   0.49375   0.00000  Uiso   1.00
H722   H     0.69006   0.17516   0.36478   0.00000  Uiso   1.00
H723   H     0.56059   0.22602   0.43977   0.00000  Uiso   1.00
H724   H     0.66751   0.24181   0.66392   0.00000  Uiso   1.00
H725   H     0.74260   0.11863   0.24191   0.00000  Uiso   1.00
H726   H     0.46961   0.22586   0.40006   0.00000  Uiso   1.00
H727   H     0.69507   0.25917   0.87273   0.00000  Uiso   1.00
O728   O     0.76034   0.03637   0.22631   0.00000  Uiso   1.00
O729   O     0.40218   0.17706   0.43380   0.00000  Uiso   1.00
O730   O     0.69799   0.22075   0.05394   0.00000  Uiso   1.00
N731   N     0.71169   0.03711   0.36125   0.00000  Uiso   1.00
N732   N     0.45646   0.13736   0.50909   0.00000  Uiso   1.00
N733   N     0.66724   0.16850   0.95101   0.00000  Uiso   1.00
N734   N     0.72846   0.09791   0.28974   0.00000  Uiso   1.00
N735   N     0.47323   0.19816   0.43757   0.00000  Uiso   1.00
N736   N     0.68401   0.22930   0.87950   0.00000  Uiso   1.00
