data_job_04403
_audit_creation_date              2018-12-19
_audit_creation_method            'Materials Studio'
_symmetry_space_group_name_H-M    'P1'
_symmetry_Int_Tables_number       1
_symmetry_cell_setting            triclinic
loop_
_symmetry_equiv_pos_as_xyz
  x,y,z
_cell_length_a                    23.7441
_cell_length_b                    54.4177
_cell_length_c                    7.1756
_cell_angle_alpha                 90.0000
_cell_angle_beta                  90.0000
_cell_angle_gamma                 90.0000
loop_
_atom_site_label
_atom_site_type_symbol
_atom_site_fract_x
_atom_site_fract_y
_atom_site_fract_z
_atom_site_U_iso_or_equiv
_atom_site_adp_type
_atom_site_occupancy
C1     C     0.64836   0.82500   0.81250   0.00000  Uiso   1.00
C2     C     0.65365   0.84791   0.93359   0.00000  Uiso   1.00
C3     C     0.65750   0.87189   0.86903   0.00000  Uiso   1.00
C4     C     0.66208   0.89029   0.00216   0.00000  Uiso   1.00
C5     C     0.67022   0.92669   0.16117   0.00000  Uiso   1.00
C6     C     0.69727   0.80834   0.86734   0.00000  Uiso   1.00
C7     C     0.73779   0.79905   0.74706   0.00000  Uiso   1.00
C8     C     0.77908   0.78414   0.82442   0.00000  Uiso   1.00
C9     C     0.85492   0.75909   0.88054   0.00000  Uiso   1.00
C10    C     0.59504   0.81192   0.87728   0.00000  Uiso   1.00
C11    C     0.54961   0.80563   0.76534   0.00000  Uiso   1.00
C12    C     0.50484   0.79373   0.85107   0.00000  Uiso   1.00
C13    C     0.42195   0.77424   0.92262   0.00000  Uiso   1.00
C14    C     0.64965   0.81504   0.16376   0.00000  Uiso   1.00
C15    C     0.65435   0.84250   0.12438   0.00000  Uiso   1.00
C16    C     0.65892   0.86087   0.25766   0.00000  Uiso   1.00
C17    C     0.66278   0.88488   0.19330   0.00000  Uiso   1.00
C18    C     0.69797   0.80293   0.05812   0.00000  Uiso   1.00
C19    C     0.73922   0.78803   0.13568   0.00000  Uiso   1.00
C20    C     0.77979   0.77872   0.01556   0.00000  Uiso   1.00
C21    C     0.59574   0.80651   0.06807   0.00000  Uiso   1.00
C22    C     0.55103   0.79461   0.15398   0.00000  Uiso   1.00
C23    C     0.50554   0.78831   0.04221   0.00000  Uiso   1.00
H24    H     0.64781   0.82921   0.66396   0.00000  Uiso   1.00
H25    H     0.65696   0.87607   0.72136   0.00000  Uiso   1.00
H26    H     0.73723   0.80323   0.59942   0.00000  Uiso   1.00
H27    H     0.54908   0.80982   0.61771   0.00000  Uiso   1.00
H28    H     0.66743   0.92563   0.86915   0.00000  Uiso   1.00
H29    H     0.83668   0.77206   0.61200   0.00000  Uiso   1.00
H30    H     0.43992   0.78594   0.65056   0.00000  Uiso   1.00
H31    H     0.65019   0.81083   0.31230   0.00000  Uiso   1.00
H32    H     0.65947   0.85668   0.40529   0.00000  Uiso   1.00
H33    H     0.73974   0.78385   0.28333   0.00000  Uiso   1.00
H34    H     0.55159   0.79043   0.30163   0.00000  Uiso   1.00
H35    H     0.66947   0.90990   0.42425   0.00000  Uiso   1.00
H36    H     0.83872   0.75632   0.16709   0.00000  Uiso   1.00
H37    H     0.44196   0.77020   0.20566   0.00000  Uiso   1.00
O38    O     0.67452   0.94826   0.19617   0.00000  Uiso   1.00
O39    O     0.89656   0.74677   0.85878   0.00000  Uiso   1.00
O40    O     0.37603   0.76498   0.90939   0.00000  Uiso   1.00
N41    N     0.66662   0.91564   0.98703   0.00000  Uiso   1.00
N42    N     0.82487   0.77206   0.74661   0.00000  Uiso   1.00
N43    N     0.45394   0.78503   0.78266   0.00000  Uiso   1.00
N44    N     0.66772   0.90717   0.28572   0.00000  Uiso   1.00
N45    N     0.82596   0.76359   0.04531   0.00000  Uiso   1.00
N46    N     0.45503   0.77656   0.08135   0.00000  Uiso   1.00
C47    C     0.64836   0.32500   0.31250   0.00000  Uiso   1.00
C48    C     0.65365   0.34791   0.43359   0.00000  Uiso   1.00
C49    C     0.65750   0.37189   0.36903   0.00000  Uiso   1.00
C50    C     0.66208   0.39029   0.50216   0.00000  Uiso   1.00
C51    C     0.67022   0.42669   0.66117   0.00000  Uiso   1.00
C52    C     0.69727   0.30834   0.36734   0.00000  Uiso   1.00
C53    C     0.73779   0.29905   0.24706   0.00000  Uiso   1.00
C54    C     0.77908   0.28414   0.32442   0.00000  Uiso   1.00
C55    C     0.85492   0.25909   0.38054   0.00000  Uiso   1.00
C56    C     0.59504   0.31192   0.37728   0.00000  Uiso   1.00
C57    C     0.54961   0.30563   0.26534   0.00000  Uiso   1.00
C58    C     0.50484   0.29373   0.35107   0.00000  Uiso   1.00
C59    C     0.42195   0.27424   0.42262   0.00000  Uiso   1.00
C60    C     0.64965   0.31504   0.66376   0.00000  Uiso   1.00
C61    C     0.65435   0.34250   0.62438   0.00000  Uiso   1.00
C62    C     0.65892   0.36087   0.75766   0.00000  Uiso   1.00
C63    C     0.66278   0.38488   0.69330   0.00000  Uiso   1.00
C64    C     0.69797   0.30293   0.55812   0.00000  Uiso   1.00
C65    C     0.73922   0.28803   0.63568   0.00000  Uiso   1.00
C66    C     0.77979   0.27872   0.51556   0.00000  Uiso   1.00
C67    C     0.59574   0.30651   0.56807   0.00000  Uiso   1.00
C68    C     0.55103   0.29461   0.65398   0.00000  Uiso   1.00
C69    C     0.50554   0.28831   0.54221   0.00000  Uiso   1.00
H70    H     0.64781   0.32921   0.16396   0.00000  Uiso   1.00
H71    H     0.65696   0.37607   0.22136   0.00000  Uiso   1.00
H72    H     0.73723   0.30323   0.09942   0.00000  Uiso   1.00
H73    H     0.54908   0.30982   0.11771   0.00000  Uiso   1.00
H74    H     0.66743   0.42563   0.36915   0.00000  Uiso   1.00
H75    H     0.83668   0.27206   0.11200   0.00000  Uiso   1.00
H76    H     0.43992   0.28594   0.15056   0.00000  Uiso   1.00
H77    H     0.65019   0.31083   0.81230   0.00000  Uiso   1.00
H78    H     0.65947   0.35668   0.90529   0.00000  Uiso   1.00
H79    H     0.73974   0.28385   0.78333   0.00000  Uiso   1.00
H80    H     0.55159   0.29043   0.80163   0.00000  Uiso   1.00
H81    H     0.66947   0.40990   0.92425   0.00000  Uiso   1.00
H82    H     0.83872   0.25632   0.66709   0.00000  Uiso   1.00
H83    H     0.44196   0.27020   0.70566   0.00000  Uiso   1.00
O84    O     0.67452   0.44826   0.69617   0.00000  Uiso   1.00
O85    O     0.89656   0.24677   0.35878   0.00000  Uiso   1.00
O86    O     0.37603   0.26498   0.40939   0.00000  Uiso   1.00
N87    N     0.66662   0.41564   0.48703   0.00000  Uiso   1.00
N88    N     0.82487   0.27206   0.24661   0.00000  Uiso   1.00
N89    N     0.45394   0.28503   0.28266   0.00000  Uiso   1.00
N90    N     0.66772   0.40717   0.78572   0.00000  Uiso   1.00
N91    N     0.82596   0.26359   0.54531   0.00000  Uiso   1.00
N92    N     0.45503   0.27656   0.58135   0.00000  Uiso   1.00
C93    C     0.14836   0.82500   0.31250   0.00000  Uiso   1.00
C94    C     0.15365   0.84791   0.43359   0.00000  Uiso   1.00
C95    C     0.15750   0.87189   0.36903   0.00000  Uiso   1.00
C96    C     0.16208   0.89029   0.50216   0.00000  Uiso   1.00
C97    C     0.17022   0.92669   0.66117   0.00000  Uiso   1.00
C98    C     0.19727   0.80834   0.36734   0.00000  Uiso   1.00
C99    C     0.23779   0.79905   0.24706   0.00000  Uiso   1.00
C100   C     0.27908   0.78414   0.32442   0.00000  Uiso   1.00
C101   C     0.35492   0.75909   0.38054   0.00000  Uiso   1.00
C102   C     0.09504   0.81192   0.37728   0.00000  Uiso   1.00
C103   C     0.04961   0.80563   0.26534   0.00000  Uiso   1.00
C104   C     0.00484   0.79373   0.35107   0.00000  Uiso   1.00
C105   C     0.92195   0.77424   0.42262   0.00000  Uiso   1.00
C106   C     0.14965   0.81504   0.66376   0.00000  Uiso   1.00
C107   C     0.15435   0.84250   0.62438   0.00000  Uiso   1.00
C108   C     0.15892   0.86087   0.75766   0.00000  Uiso   1.00
C109   C     0.16278   0.88488   0.69330   0.00000  Uiso   1.00
C110   C     0.19797   0.80293   0.55812   0.00000  Uiso   1.00
C111   C     0.23922   0.78803   0.63568   0.00000  Uiso   1.00
C112   C     0.27979   0.77872   0.51556   0.00000  Uiso   1.00
C113   C     0.09574   0.80651   0.56807   0.00000  Uiso   1.00
C114   C     0.05103   0.79461   0.65398   0.00000  Uiso   1.00
C115   C     0.00554   0.78831   0.54221   0.00000  Uiso   1.00
H116   H     0.14781   0.82921   0.16396   0.00000  Uiso   1.00
H117   H     0.15696   0.87607   0.22136   0.00000  Uiso   1.00
H118   H     0.23723   0.80323   0.09942   0.00000  Uiso   1.00
H119   H     0.04908   0.80982   0.11771   0.00000  Uiso   1.00
H120   H     0.16743   0.92563   0.36915   0.00000  Uiso   1.00
H121   H     0.33668   0.77206   0.11200   0.00000  Uiso   1.00
H122   H     0.93992   0.78594   0.15056   0.00000  Uiso   1.00
H123   H     0.15019   0.81083   0.81230   0.00000  Uiso   1.00
H124   H     0.15947   0.85668   0.90529   0.00000  Uiso   1.00
H125   H     0.23974   0.78385   0.78333   0.00000  Uiso   1.00
H126   H     0.05159   0.79043   0.80163   0.00000  Uiso   1.00
H127   H     0.16947   0.90990   0.92425   0.00000  Uiso   1.00
H128   H     0.33872   0.75632   0.66709   0.00000  Uiso   1.00
H129   H     0.94196   0.77020   0.70566   0.00000  Uiso   1.00
O130   O     0.17452   0.94826   0.69617   0.00000  Uiso   1.00
O131   O     0.39656   0.74677   0.35878   0.00000  Uiso   1.00
O132   O     0.87603   0.76498   0.40939   0.00000  Uiso   1.00
N133   N     0.16662   0.91564   0.48703   0.00000  Uiso   1.00
N134   N     0.32487   0.77206   0.24661   0.00000  Uiso   1.00
N135   N     0.95394   0.78503   0.28266   0.00000  Uiso   1.00
N136   N     0.16772   0.90717   0.78572   0.00000  Uiso   1.00
N137   N     0.32596   0.76359   0.54531   0.00000  Uiso   1.00
N138   N     0.95503   0.77656   0.58135   0.00000  Uiso   1.00
C139   C     0.14836   0.32500   0.81250   0.00000  Uiso   1.00
C140   C     0.15365   0.34791   0.93359   0.00000  Uiso   1.00
C141   C     0.15750   0.37189   0.86903   0.00000  Uiso   1.00
C142   C     0.16208   0.39029   0.00216   0.00000  Uiso   1.00
C143   C     0.17022   0.42669   0.16117   0.00000  Uiso   1.00
C144   C     0.19727   0.30834   0.86734   0.00000  Uiso   1.00
C145   C     0.23779   0.29905   0.74706   0.00000  Uiso   1.00
C146   C     0.27908   0.28414   0.82442   0.00000  Uiso   1.00
C147   C     0.35492   0.25909   0.88054   0.00000  Uiso   1.00
C148   C     0.09504   0.31192   0.87728   0.00000  Uiso   1.00
C149   C     0.04961   0.30563   0.76534   0.00000  Uiso   1.00
C150   C     0.00484   0.29373   0.85107   0.00000  Uiso   1.00
C151   C     0.92195   0.27424   0.92262   0.00000  Uiso   1.00
C152   C     0.14965   0.31504   0.16376   0.00000  Uiso   1.00
C153   C     0.15435   0.34250   0.12438   0.00000  Uiso   1.00
C154   C     0.15892   0.36087   0.25766   0.00000  Uiso   1.00
C155   C     0.16278   0.38488   0.19330   0.00000  Uiso   1.00
C156   C     0.19797   0.30293   0.05812   0.00000  Uiso   1.00
C157   C     0.23922   0.28803   0.13568   0.00000  Uiso   1.00
C158   C     0.27979   0.27872   0.01556   0.00000  Uiso   1.00
C159   C     0.09574   0.30651   0.06807   0.00000  Uiso   1.00
C160   C     0.05103   0.29461   0.15398   0.00000  Uiso   1.00
C161   C     0.00554   0.28831   0.04221   0.00000  Uiso   1.00
H162   H     0.14781   0.32921   0.66396   0.00000  Uiso   1.00
H163   H     0.15696   0.37607   0.72136   0.00000  Uiso   1.00
H164   H     0.23723   0.30323   0.59942   0.00000  Uiso   1.00
H165   H     0.04908   0.30982   0.61771   0.00000  Uiso   1.00
H166   H     0.16743   0.42563   0.86915   0.00000  Uiso   1.00
H167   H     0.33668   0.27206   0.61200   0.00000  Uiso   1.00
H168   H     0.93992   0.28594   0.65056   0.00000  Uiso   1.00
H169   H     0.15019   0.31083   0.31230   0.00000  Uiso   1.00
H170   H     0.15947   0.35668   0.40529   0.00000  Uiso   1.00
H171   H     0.23974   0.28385   0.28333   0.00000  Uiso   1.00
H172   H     0.05159   0.29043   0.30163   0.00000  Uiso   1.00
H173   H     0.16947   0.40990   0.42425   0.00000  Uiso   1.00
H174   H     0.33872   0.25632   0.16709   0.00000  Uiso   1.00
H175   H     0.94196   0.27020   0.20566   0.00000  Uiso   1.00
O176   O     0.17452   0.44826   0.19617   0.00000  Uiso   1.00
O177   O     0.39656   0.24677   0.85878   0.00000  Uiso   1.00
O178   O     0.87603   0.26498   0.90939   0.00000  Uiso   1.00
N179   N     0.16662   0.41564   0.98703   0.00000  Uiso   1.00
N180   N     0.32487   0.27206   0.74661   0.00000  Uiso   1.00
N181   N     0.95394   0.28503   0.78266   0.00000  Uiso   1.00
N182   N     0.16772   0.40717   0.28572   0.00000  Uiso   1.00
N183   N     0.32596   0.26359   0.04531   0.00000  Uiso   1.00
N184   N     0.95503   0.27656   0.08135   0.00000  Uiso   1.00
C185   C     0.35164   0.17500   0.81250   0.00000  Uiso   1.00
C186   C     0.34635   0.15209   0.93359   0.00000  Uiso   1.00
C187   C     0.34250   0.12811   0.86903   0.00000  Uiso   1.00
C188   C     0.33792   0.10971   0.00216   0.00000  Uiso   1.00
C189   C     0.32978   0.07331   0.16117   0.00000  Uiso   1.00
C190   C     0.30273   0.19166   0.86734   0.00000  Uiso   1.00
C191   C     0.26221   0.20095   0.74706   0.00000  Uiso   1.00
C192   C     0.22092   0.21586   0.82442   0.00000  Uiso   1.00
C193   C     0.14508   0.24091   0.88054   0.00000  Uiso   1.00
C194   C     0.40496   0.18808   0.87728   0.00000  Uiso   1.00
C195   C     0.45039   0.19437   0.76534   0.00000  Uiso   1.00
C196   C     0.49516   0.20627   0.85107   0.00000  Uiso   1.00
C197   C     0.57805   0.22576   0.92262   0.00000  Uiso   1.00
C198   C     0.35035   0.18496   0.16376   0.00000  Uiso   1.00
C199   C     0.34565   0.15750   0.12438   0.00000  Uiso   1.00
C200   C     0.34108   0.13913   0.25766   0.00000  Uiso   1.00
C201   C     0.33722   0.11512   0.19330   0.00000  Uiso   1.00
C202   C     0.30203   0.19707   0.05812   0.00000  Uiso   1.00
C203   C     0.26078   0.21197   0.13568   0.00000  Uiso   1.00
C204   C     0.22021   0.22128   0.01556   0.00000  Uiso   1.00
C205   C     0.40426   0.19349   0.06807   0.00000  Uiso   1.00
C206   C     0.44897   0.20539   0.15398   0.00000  Uiso   1.00
C207   C     0.49446   0.21169   0.04221   0.00000  Uiso   1.00
H208   H     0.35219   0.17079   0.66396   0.00000  Uiso   1.00
H209   H     0.34304   0.12393   0.72136   0.00000  Uiso   1.00
H210   H     0.26277   0.19677   0.59942   0.00000  Uiso   1.00
H211   H     0.45092   0.19018   0.61771   0.00000  Uiso   1.00
H212   H     0.33257   0.07437   0.86915   0.00000  Uiso   1.00
H213   H     0.16332   0.22794   0.61200   0.00000  Uiso   1.00
H214   H     0.56008   0.21406   0.65056   0.00000  Uiso   1.00
H215   H     0.34981   0.18917   0.31230   0.00000  Uiso   1.00
H216   H     0.34053   0.14332   0.40529   0.00000  Uiso   1.00
H217   H     0.26026   0.21615   0.28333   0.00000  Uiso   1.00
H218   H     0.44841   0.20957   0.30163   0.00000  Uiso   1.00
H219   H     0.33053   0.09010   0.42425   0.00000  Uiso   1.00
H220   H     0.16128   0.24368   0.16709   0.00000  Uiso   1.00
H221   H     0.55804   0.22980   0.20566   0.00000  Uiso   1.00
O222   O     0.32548   0.05174   0.19617   0.00000  Uiso   1.00
O223   O     0.10344   0.25323   0.85878   0.00000  Uiso   1.00
O224   O     0.62397   0.23502   0.90939   0.00000  Uiso   1.00
N225   N     0.33338   0.08436   0.98703   0.00000  Uiso   1.00
N226   N     0.17513   0.22794   0.74661   0.00000  Uiso   1.00
N227   N     0.54606   0.21497   0.78266   0.00000  Uiso   1.00
N228   N     0.33228   0.09283   0.28572   0.00000  Uiso   1.00
N229   N     0.17404   0.23641   0.04531   0.00000  Uiso   1.00
N230   N     0.54497   0.22344   0.08135   0.00000  Uiso   1.00
C231   C     0.35164   0.67500   0.31250   0.00000  Uiso   1.00
C232   C     0.34635   0.65209   0.43359   0.00000  Uiso   1.00
C233   C     0.34250   0.62811   0.36903   0.00000  Uiso   1.00
C234   C     0.33792   0.60971   0.50216   0.00000  Uiso   1.00
C235   C     0.32978   0.57331   0.66117   0.00000  Uiso   1.00
C236   C     0.30273   0.69166   0.36734   0.00000  Uiso   1.00
C237   C     0.26221   0.70095   0.24706   0.00000  Uiso   1.00
C238   C     0.22092   0.71586   0.32442   0.00000  Uiso   1.00
C239   C     0.14508   0.74091   0.38054   0.00000  Uiso   1.00
C240   C     0.40496   0.68808   0.37728   0.00000  Uiso   1.00
C241   C     0.45039   0.69437   0.26534   0.00000  Uiso   1.00
C242   C     0.49516   0.70627   0.35107   0.00000  Uiso   1.00
C243   C     0.57805   0.72576   0.42262   0.00000  Uiso   1.00
C244   C     0.35035   0.68496   0.66376   0.00000  Uiso   1.00
C245   C     0.34565   0.65750   0.62438   0.00000  Uiso   1.00
C246   C     0.34108   0.63913   0.75766   0.00000  Uiso   1.00
C247   C     0.33722   0.61512   0.69330   0.00000  Uiso   1.00
C248   C     0.30203   0.69707   0.55812   0.00000  Uiso   1.00
C249   C     0.26078   0.71197   0.63568   0.00000  Uiso   1.00
C250   C     0.22021   0.72128   0.51556   0.00000  Uiso   1.00
C251   C     0.40426   0.69349   0.56807   0.00000  Uiso   1.00
C252   C     0.44897   0.70539   0.65398   0.00000  Uiso   1.00
C253   C     0.49446   0.71169   0.54221   0.00000  Uiso   1.00
H254   H     0.35219   0.67079   0.16396   0.00000  Uiso   1.00
H255   H     0.34304   0.62393   0.22136   0.00000  Uiso   1.00
H256   H     0.26277   0.69677   0.09942   0.00000  Uiso   1.00
H257   H     0.45092   0.69018   0.11771   0.00000  Uiso   1.00
H258   H     0.33257   0.57437   0.36915   0.00000  Uiso   1.00
H259   H     0.16332   0.72794   0.11200   0.00000  Uiso   1.00
H260   H     0.56008   0.71406   0.15056   0.00000  Uiso   1.00
H261   H     0.34981   0.68917   0.81230   0.00000  Uiso   1.00
H262   H     0.34053   0.64332   0.90529   0.00000  Uiso   1.00
H263   H     0.26026   0.71615   0.78333   0.00000  Uiso   1.00
H264   H     0.44841   0.70957   0.80163   0.00000  Uiso   1.00
H265   H     0.33053   0.59010   0.92425   0.00000  Uiso   1.00
H266   H     0.16128   0.74368   0.66709   0.00000  Uiso   1.00
H267   H     0.55804   0.72980   0.70566   0.00000  Uiso   1.00
O268   O     0.32548   0.55174   0.69617   0.00000  Uiso   1.00
O269   O     0.10344   0.75323   0.35878   0.00000  Uiso   1.00
O270   O     0.62397   0.73502   0.40939   0.00000  Uiso   1.00
N271   N     0.33338   0.58436   0.48703   0.00000  Uiso   1.00
N272   N     0.17513   0.72794   0.24661   0.00000  Uiso   1.00
N273   N     0.54606   0.71497   0.28266   0.00000  Uiso   1.00
N274   N     0.33228   0.59283   0.78572   0.00000  Uiso   1.00
N275   N     0.17404   0.73641   0.54531   0.00000  Uiso   1.00
N276   N     0.54497   0.72344   0.58135   0.00000  Uiso   1.00
C277   C     0.85164   0.17500   0.31250   0.00000  Uiso   1.00
C278   C     0.84635   0.15209   0.43359   0.00000  Uiso   1.00
C279   C     0.84250   0.12811   0.36903   0.00000  Uiso   1.00
C280   C     0.83792   0.10971   0.50216   0.00000  Uiso   1.00
C281   C     0.82978   0.07331   0.66117   0.00000  Uiso   1.00
C282   C     0.80273   0.19166   0.36734   0.00000  Uiso   1.00
C283   C     0.76221   0.20095   0.24706   0.00000  Uiso   1.00
C284   C     0.72092   0.21586   0.32442   0.00000  Uiso   1.00
C285   C     0.64508   0.24091   0.38054   0.00000  Uiso   1.00
C286   C     0.90496   0.18808   0.37728   0.00000  Uiso   1.00
C287   C     0.95039   0.19437   0.26534   0.00000  Uiso   1.00
C288   C     0.99516   0.20627   0.35107   0.00000  Uiso   1.00
C289   C     0.07805   0.22576   0.42262   0.00000  Uiso   1.00
C290   C     0.85035   0.18496   0.66376   0.00000  Uiso   1.00
C291   C     0.84565   0.15750   0.62438   0.00000  Uiso   1.00
C292   C     0.84108   0.13913   0.75766   0.00000  Uiso   1.00
C293   C     0.83722   0.11512   0.69330   0.00000  Uiso   1.00
C294   C     0.80203   0.19707   0.55812   0.00000  Uiso   1.00
C295   C     0.76078   0.21197   0.63568   0.00000  Uiso   1.00
C296   C     0.72021   0.22128   0.51556   0.00000  Uiso   1.00
C297   C     0.90426   0.19349   0.56807   0.00000  Uiso   1.00
C298   C     0.94897   0.20539   0.65398   0.00000  Uiso   1.00
C299   C     0.99446   0.21169   0.54221   0.00000  Uiso   1.00
H300   H     0.85219   0.17079   0.16396   0.00000  Uiso   1.00
H301   H     0.84304   0.12393   0.22136   0.00000  Uiso   1.00
H302   H     0.76277   0.19677   0.09942   0.00000  Uiso   1.00
H303   H     0.95092   0.19018   0.11771   0.00000  Uiso   1.00
H304   H     0.83257   0.07437   0.36915   0.00000  Uiso   1.00
H305   H     0.66332   0.22794   0.11200   0.00000  Uiso   1.00
H306   H     0.06008   0.21406   0.15056   0.00000  Uiso   1.00
H307   H     0.84981   0.18917   0.81230   0.00000  Uiso   1.00
H308   H     0.84053   0.14332   0.90529   0.00000  Uiso   1.00
H309   H     0.76026   0.21615   0.78333   0.00000  Uiso   1.00
H310   H     0.94841   0.20957   0.80163   0.00000  Uiso   1.00
H311   H     0.83053   0.09010   0.92425   0.00000  Uiso   1.00
H312   H     0.66128   0.24368   0.66709   0.00000  Uiso   1.00
H313   H     0.05804   0.22980   0.70566   0.00000  Uiso   1.00
O314   O     0.82548   0.05174   0.69617   0.00000  Uiso   1.00
O315   O     0.60344   0.25323   0.35878   0.00000  Uiso   1.00
O316   O     0.12397   0.23502   0.40939   0.00000  Uiso   1.00
N317   N     0.83338   0.08436   0.48703   0.00000  Uiso   1.00
N318   N     0.67513   0.22794   0.24661   0.00000  Uiso   1.00
N319   N     0.04606   0.21497   0.28266   0.00000  Uiso   1.00
N320   N     0.83228   0.09283   0.78572   0.00000  Uiso   1.00
N321   N     0.67404   0.23641   0.54531   0.00000  Uiso   1.00
N322   N     0.04497   0.22344   0.58135   0.00000  Uiso   1.00
C323   C     0.85164   0.67500   0.81250   0.00000  Uiso   1.00
C324   C     0.84635   0.65209   0.93359   0.00000  Uiso   1.00
C325   C     0.84250   0.62811   0.86903   0.00000  Uiso   1.00
C326   C     0.83792   0.60971   0.00216   0.00000  Uiso   1.00
C327   C     0.82978   0.57331   0.16117   0.00000  Uiso   1.00
C328   C     0.80273   0.69166   0.86734   0.00000  Uiso   1.00
C329   C     0.76221   0.70095   0.74706   0.00000  Uiso   1.00
C330   C     0.72092   0.71586   0.82442   0.00000  Uiso   1.00
C331   C     0.64508   0.74091   0.88054   0.00000  Uiso   1.00
C332   C     0.90496   0.68808   0.87728   0.00000  Uiso   1.00
C333   C     0.95039   0.69437   0.76534   0.00000  Uiso   1.00
C334   C     0.99516   0.70627   0.85107   0.00000  Uiso   1.00
C335   C     0.07805   0.72576   0.92262   0.00000  Uiso   1.00
C336   C     0.85035   0.68496   0.16376   0.00000  Uiso   1.00
C337   C     0.84565   0.65750   0.12438   0.00000  Uiso   1.00
C338   C     0.84108   0.63913   0.25766   0.00000  Uiso   1.00
C339   C     0.83722   0.61512   0.19330   0.00000  Uiso   1.00
C340   C     0.80203   0.69707   0.05812   0.00000  Uiso   1.00
C341   C     0.76078   0.71197   0.13568   0.00000  Uiso   1.00
C342   C     0.72021   0.72128   0.01556   0.00000  Uiso   1.00
C343   C     0.90426   0.69349   0.06807   0.00000  Uiso   1.00
C344   C     0.94897   0.70539   0.15398   0.00000  Uiso   1.00
C345   C     0.99446   0.71169   0.04221   0.00000  Uiso   1.00
H346   H     0.85219   0.67079   0.66396   0.00000  Uiso   1.00
H347   H     0.84304   0.62393   0.72136   0.00000  Uiso   1.00
H348   H     0.76277   0.69677   0.59942   0.00000  Uiso   1.00
H349   H     0.95092   0.69018   0.61771   0.00000  Uiso   1.00
H350   H     0.83257   0.57437   0.86915   0.00000  Uiso   1.00
H351   H     0.66332   0.72794   0.61200   0.00000  Uiso   1.00
H352   H     0.06008   0.71406   0.65056   0.00000  Uiso   1.00
H353   H     0.84981   0.68917   0.31230   0.00000  Uiso   1.00
H354   H     0.84053   0.64332   0.40529   0.00000  Uiso   1.00
H355   H     0.76026   0.71615   0.28333   0.00000  Uiso   1.00
H356   H     0.94841   0.70957   0.30163   0.00000  Uiso   1.00
H357   H     0.83053   0.59010   0.42425   0.00000  Uiso   1.00
H358   H     0.66128   0.74368   0.16709   0.00000  Uiso   1.00
H359   H     0.05804   0.72980   0.20566   0.00000  Uiso   1.00
O360   O     0.82548   0.55174   0.19617   0.00000  Uiso   1.00
O361   O     0.60344   0.75323   0.85878   0.00000  Uiso   1.00
O362   O     0.12397   0.73502   0.90939   0.00000  Uiso   1.00
N363   N     0.83338   0.58436   0.98703   0.00000  Uiso   1.00
N364   N     0.67513   0.72794   0.74661   0.00000  Uiso   1.00
N365   N     0.04606   0.71497   0.78266   0.00000  Uiso   1.00
N366   N     0.83228   0.59283   0.28572   0.00000  Uiso   1.00
N367   N     0.67404   0.73641   0.04531   0.00000  Uiso   1.00
N368   N     0.04497   0.72344   0.08135   0.00000  Uiso   1.00
C369   C     0.89836   0.42500   0.06250   0.00000  Uiso   1.00
C370   C     0.90365   0.40209   0.18359   0.00000  Uiso   1.00
C371   C     0.90750   0.37811   0.11903   0.00000  Uiso   1.00
C372   C     0.91208   0.35971   0.25216   0.00000  Uiso   1.00
C373   C     0.92022   0.32331   0.41117   0.00000  Uiso   1.00
C374   C     0.94727   0.44166   0.11734   0.00000  Uiso   1.00
C375   C     0.98779   0.45095   0.99706   0.00000  Uiso   1.00
C376   C     0.02908   0.46586   0.07442   0.00000  Uiso   1.00
C377   C     0.10492   0.49091   0.13054   0.00000  Uiso   1.00
C378   C     0.84504   0.43808   0.12728   0.00000  Uiso   1.00
C379   C     0.79961   0.44437   0.01534   0.00000  Uiso   1.00
C380   C     0.75484   0.45627   0.10107   0.00000  Uiso   1.00
C381   C     0.67195   0.47576   0.17262   0.00000  Uiso   1.00
C382   C     0.89965   0.43496   0.41376   0.00000  Uiso   1.00
C383   C     0.90435   0.40750   0.37438   0.00000  Uiso   1.00
C384   C     0.90892   0.38913   0.50766   0.00000  Uiso   1.00
C385   C     0.91278   0.36512   0.44330   0.00000  Uiso   1.00
C386   C     0.94797   0.44707   0.30812   0.00000  Uiso   1.00
C387   C     0.98922   0.46197   0.38568   0.00000  Uiso   1.00
C388   C     0.02979   0.47128   0.26556   0.00000  Uiso   1.00
C389   C     0.84574   0.44349   0.31807   0.00000  Uiso   1.00
C390   C     0.80103   0.45539   0.40398   0.00000  Uiso   1.00
C391   C     0.75554   0.46169   0.29221   0.00000  Uiso   1.00
H392   H     0.89781   0.42079   0.91396   0.00000  Uiso   1.00
H393   H     0.90696   0.37393   0.97136   0.00000  Uiso   1.00
H394   H     0.98723   0.44677   0.84942   0.00000  Uiso   1.00
H395   H     0.79908   0.44018   0.86771   0.00000  Uiso   1.00
H396   H     0.91743   0.32437   0.11915   0.00000  Uiso   1.00
H397   H     0.08668   0.47794   0.86200   0.00000  Uiso   1.00
H398   H     0.68992   0.46406   0.90056   0.00000  Uiso   1.00
H399   H     0.90019   0.43917   0.56230   0.00000  Uiso   1.00
H400   H     0.90947   0.39332   0.65529   0.00000  Uiso   1.00
H401   H     0.98974   0.46615   0.53333   0.00000  Uiso   1.00
H402   H     0.80159   0.45957   0.55163   0.00000  Uiso   1.00
H403   H     0.91947   0.34010   0.67425   0.00000  Uiso   1.00
H404   H     0.08872   0.49368   0.41709   0.00000  Uiso   1.00
H405   H     0.69196   0.47980   0.45566   0.00000  Uiso   1.00
O406   O     0.92452   0.30174   0.44617   0.00000  Uiso   1.00
O407   O     0.14656   0.50323   0.10878   0.00000  Uiso   1.00
O408   O     0.62603   0.48502   0.15939   0.00000  Uiso   1.00
N409   N     0.91662   0.33436   0.23703   0.00000  Uiso   1.00
N410   N     0.07487   0.47794   0.99661   0.00000  Uiso   1.00
N411   N     0.70394   0.46497   0.03266   0.00000  Uiso   1.00
N412   N     0.91772   0.34283   0.53572   0.00000  Uiso   1.00
N413   N     0.07596   0.48641   0.29531   0.00000  Uiso   1.00
N414   N     0.70503   0.47344   0.33135   0.00000  Uiso   1.00
C415   C     0.89836   0.92500   0.56250   0.00000  Uiso   1.00
C416   C     0.90365   0.90209   0.68359   0.00000  Uiso   1.00
C417   C     0.90750   0.87811   0.61903   0.00000  Uiso   1.00
C418   C     0.91208   0.85971   0.75216   0.00000  Uiso   1.00
C419   C     0.92022   0.82331   0.91117   0.00000  Uiso   1.00
C420   C     0.94727   0.94166   0.61734   0.00000  Uiso   1.00
C421   C     0.98779   0.95095   0.49706   0.00000  Uiso   1.00
C422   C     0.02908   0.96586   0.57442   0.00000  Uiso   1.00
C423   C     0.10492   0.99091   0.63054   0.00000  Uiso   1.00
C424   C     0.84504   0.93808   0.62728   0.00000  Uiso   1.00
C425   C     0.79961   0.94437   0.51534   0.00000  Uiso   1.00
C426   C     0.75484   0.95627   0.60107   0.00000  Uiso   1.00
C427   C     0.67195   0.97576   0.67262   0.00000  Uiso   1.00
C428   C     0.89965   0.93496   0.91376   0.00000  Uiso   1.00
C429   C     0.90435   0.90750   0.87438   0.00000  Uiso   1.00
C430   C     0.90892   0.88913   0.00766   0.00000  Uiso   1.00
C431   C     0.91278   0.86512   0.94330   0.00000  Uiso   1.00
C432   C     0.94797   0.94707   0.80812   0.00000  Uiso   1.00
C433   C     0.98922   0.96197   0.88568   0.00000  Uiso   1.00
C434   C     0.02979   0.97128   0.76556   0.00000  Uiso   1.00
C435   C     0.84574   0.94349   0.81807   0.00000  Uiso   1.00
C436   C     0.80103   0.95539   0.90398   0.00000  Uiso   1.00
C437   C     0.75554   0.96169   0.79221   0.00000  Uiso   1.00
H438   H     0.89781   0.92079   0.41396   0.00000  Uiso   1.00
H439   H     0.90696   0.87393   0.47136   0.00000  Uiso   1.00
H440   H     0.98723   0.94677   0.34942   0.00000  Uiso   1.00
H441   H     0.79908   0.94018   0.36771   0.00000  Uiso   1.00
H442   H     0.91743   0.82437   0.61915   0.00000  Uiso   1.00
H443   H     0.08668   0.97794   0.36200   0.00000  Uiso   1.00
H444   H     0.68992   0.96406   0.40056   0.00000  Uiso   1.00
H445   H     0.90019   0.93917   0.06230   0.00000  Uiso   1.00
H446   H     0.90947   0.89332   0.15529   0.00000  Uiso   1.00
H447   H     0.98974   0.96615   0.03333   0.00000  Uiso   1.00
H448   H     0.80159   0.95957   0.05163   0.00000  Uiso   1.00
H449   H     0.91947   0.84010   0.17425   0.00000  Uiso   1.00
H450   H     0.08872   0.99368   0.91709   0.00000  Uiso   1.00
H451   H     0.69196   0.97980   0.95566   0.00000  Uiso   1.00
O452   O     0.92452   0.80174   0.94617   0.00000  Uiso   1.00
O453   O     0.14656   0.00323   0.60878   0.00000  Uiso   1.00
O454   O     0.62603   0.98502   0.65939   0.00000  Uiso   1.00
N455   N     0.91662   0.83436   0.73703   0.00000  Uiso   1.00
N456   N     0.07487   0.97794   0.49661   0.00000  Uiso   1.00
N457   N     0.70394   0.96497   0.53266   0.00000  Uiso   1.00
N458   N     0.91772   0.84283   0.03572   0.00000  Uiso   1.00
N459   N     0.07596   0.98641   0.79531   0.00000  Uiso   1.00
N460   N     0.70503   0.97344   0.83135   0.00000  Uiso   1.00
C461   C     0.39836   0.42500   0.56250   0.00000  Uiso   1.00
C462   C     0.40365   0.40209   0.68359   0.00000  Uiso   1.00
C463   C     0.40750   0.37811   0.61903   0.00000  Uiso   1.00
C464   C     0.41208   0.35971   0.75216   0.00000  Uiso   1.00
C465   C     0.42022   0.32331   0.91117   0.00000  Uiso   1.00
C466   C     0.44727   0.44166   0.61734   0.00000  Uiso   1.00
C467   C     0.48779   0.45095   0.49706   0.00000  Uiso   1.00
C468   C     0.52908   0.46586   0.57442   0.00000  Uiso   1.00
C469   C     0.60492   0.49091   0.63054   0.00000  Uiso   1.00
C470   C     0.34504   0.43808   0.62728   0.00000  Uiso   1.00
C471   C     0.29961   0.44437   0.51534   0.00000  Uiso   1.00
C472   C     0.25484   0.45627   0.60107   0.00000  Uiso   1.00
C473   C     0.17195   0.47576   0.67262   0.00000  Uiso   1.00
C474   C     0.39965   0.43496   0.91376   0.00000  Uiso   1.00
C475   C     0.40435   0.40750   0.87438   0.00000  Uiso   1.00
C476   C     0.40892   0.38913   0.00766   0.00000  Uiso   1.00
C477   C     0.41278   0.36512   0.94330   0.00000  Uiso   1.00
C478   C     0.44797   0.44707   0.80812   0.00000  Uiso   1.00
C479   C     0.48922   0.46197   0.88568   0.00000  Uiso   1.00
C480   C     0.52979   0.47128   0.76556   0.00000  Uiso   1.00
C481   C     0.34574   0.44349   0.81807   0.00000  Uiso   1.00
C482   C     0.30103   0.45539   0.90398   0.00000  Uiso   1.00
C483   C     0.25554   0.46169   0.79221   0.00000  Uiso   1.00
H484   H     0.39781   0.42079   0.41396   0.00000  Uiso   1.00
H485   H     0.40696   0.37393   0.47136   0.00000  Uiso   1.00
H486   H     0.48723   0.44677   0.34942   0.00000  Uiso   1.00
H487   H     0.29908   0.44018   0.36771   0.00000  Uiso   1.00
H488   H     0.41743   0.32437   0.61915   0.00000  Uiso   1.00
H489   H     0.58668   0.47794   0.36200   0.00000  Uiso   1.00
H490   H     0.18992   0.46406   0.40056   0.00000  Uiso   1.00
H491   H     0.40019   0.43917   0.06230   0.00000  Uiso   1.00
H492   H     0.40947   0.39332   0.15529   0.00000  Uiso   1.00
H493   H     0.48974   0.46615   0.03333   0.00000  Uiso   1.00
H494   H     0.30159   0.45957   0.05163   0.00000  Uiso   1.00
H495   H     0.41947   0.34010   0.17425   0.00000  Uiso   1.00
H496   H     0.58872   0.49368   0.91709   0.00000  Uiso   1.00
H497   H     0.19196   0.47980   0.95566   0.00000  Uiso   1.00
O498   O     0.42452   0.30174   0.94617   0.00000  Uiso   1.00
O499   O     0.64656   0.50323   0.60878   0.00000  Uiso   1.00
O500   O     0.12603   0.48502   0.65939   0.00000  Uiso   1.00
N501   N     0.41662   0.33436   0.73703   0.00000  Uiso   1.00
N502   N     0.57487   0.47794   0.49661   0.00000  Uiso   1.00
N503   N     0.20394   0.46497   0.53266   0.00000  Uiso   1.00
N504   N     0.41772   0.34283   0.03572   0.00000  Uiso   1.00
N505   N     0.57596   0.48641   0.79531   0.00000  Uiso   1.00
N506   N     0.20503   0.47344   0.83135   0.00000  Uiso   1.00
C507   C     0.39836   0.92500   0.06250   0.00000  Uiso   1.00
C508   C     0.40365   0.90209   0.18359   0.00000  Uiso   1.00
C509   C     0.40750   0.87811   0.11903   0.00000  Uiso   1.00
C510   C     0.41208   0.85971   0.25216   0.00000  Uiso   1.00
C511   C     0.42022   0.82331   0.41117   0.00000  Uiso   1.00
C512   C     0.44727   0.94166   0.11734   0.00000  Uiso   1.00
C513   C     0.48779   0.95095   0.99706   0.00000  Uiso   1.00
C514   C     0.52908   0.96586   0.07442   0.00000  Uiso   1.00
C515   C     0.60492   0.99091   0.13054   0.00000  Uiso   1.00
C516   C     0.34504   0.93808   0.12728   0.00000  Uiso   1.00
C517   C     0.29961   0.94437   0.01534   0.00000  Uiso   1.00
C518   C     0.25484   0.95627   0.10107   0.00000  Uiso   1.00
C519   C     0.17195   0.97576   0.17262   0.00000  Uiso   1.00
C520   C     0.39965   0.93496   0.41376   0.00000  Uiso   1.00
C521   C     0.40435   0.90750   0.37438   0.00000  Uiso   1.00
C522   C     0.40892   0.88913   0.50766   0.00000  Uiso   1.00
C523   C     0.41278   0.86512   0.44330   0.00000  Uiso   1.00
C524   C     0.44797   0.94707   0.30812   0.00000  Uiso   1.00
C525   C     0.48922   0.96197   0.38568   0.00000  Uiso   1.00
C526   C     0.52979   0.97128   0.26556   0.00000  Uiso   1.00
C527   C     0.34574   0.94349   0.31807   0.00000  Uiso   1.00
C528   C     0.30103   0.95539   0.40398   0.00000  Uiso   1.00
C529   C     0.25554   0.96169   0.29221   0.00000  Uiso   1.00
H530   H     0.39781   0.92079   0.91396   0.00000  Uiso   1.00
H531   H     0.40696   0.87393   0.97136   0.00000  Uiso   1.00
H532   H     0.48723   0.94677   0.84942   0.00000  Uiso   1.00
H533   H     0.29908   0.94018   0.86771   0.00000  Uiso   1.00
H534   H     0.41743   0.82437   0.11915   0.00000  Uiso   1.00
H535   H     0.58668   0.97794   0.86200   0.00000  Uiso   1.00
H536   H     0.18992   0.96406   0.90056   0.00000  Uiso   1.00
H537   H     0.40019   0.93917   0.56230   0.00000  Uiso   1.00
H538   H     0.40947   0.89332   0.65529   0.00000  Uiso   1.00
H539   H     0.48974   0.96615   0.53333   0.00000  Uiso   1.00
H540   H     0.30159   0.95957   0.55163   0.00000  Uiso   1.00
H541   H     0.41947   0.84010   0.67425   0.00000  Uiso   1.00
H542   H     0.58872   0.99368   0.41709   0.00000  Uiso   1.00
H543   H     0.19196   0.97980   0.45566   0.00000  Uiso   1.00
O544   O     0.42452   0.80174   0.44617   0.00000  Uiso   1.00
O545   O     0.64656   0.00323   0.10878   0.00000  Uiso   1.00
O546   O     0.12603   0.98502   0.15939   0.00000  Uiso   1.00
N547   N     0.41662   0.83436   0.23703   0.00000  Uiso   1.00
N548   N     0.57487   0.97794   0.99661   0.00000  Uiso   1.00
N549   N     0.20394   0.96497   0.03266   0.00000  Uiso   1.00
N550   N     0.41772   0.84283   0.53572   0.00000  Uiso   1.00
N551   N     0.57596   0.98641   0.29531   0.00000  Uiso   1.00
N552   N     0.20503   0.97344   0.33135   0.00000  Uiso   1.00
C553   C     0.60164   0.07500   0.06250   0.00000  Uiso   1.00
C554   C     0.59635   0.09791   0.18359   0.00000  Uiso   1.00
C555   C     0.59250   0.12189   0.11903   0.00000  Uiso   1.00
C556   C     0.58792   0.14029   0.25216   0.00000  Uiso   1.00
C557   C     0.57978   0.17669   0.41117   0.00000  Uiso   1.00
C558   C     0.55273   0.05834   0.11734   0.00000  Uiso   1.00
C559   C     0.51221   0.04905   0.99706   0.00000  Uiso   1.00
C560   C     0.47092   0.03414   0.07442   0.00000  Uiso   1.00
C561   C     0.39508   0.00909   0.13054   0.00000  Uiso   1.00
C562   C     0.65496   0.06192   0.12728   0.00000  Uiso   1.00
C563   C     0.70039   0.05563   0.01534   0.00000  Uiso   1.00
C564   C     0.74516   0.04373   0.10107   0.00000  Uiso   1.00
C565   C     0.82805   0.02424   0.17262   0.00000  Uiso   1.00
C566   C     0.60035   0.06504   0.41376   0.00000  Uiso   1.00
C567   C     0.59565   0.09250   0.37438   0.00000  Uiso   1.00
C568   C     0.59108   0.11087   0.50766   0.00000  Uiso   1.00
C569   C     0.58722   0.13488   0.44330   0.00000  Uiso   1.00
C570   C     0.55203   0.05293   0.30812   0.00000  Uiso   1.00
C571   C     0.51078   0.03803   0.38568   0.00000  Uiso   1.00
C572   C     0.47021   0.02872   0.26556   0.00000  Uiso   1.00
C573   C     0.65426   0.05651   0.31807   0.00000  Uiso   1.00
C574   C     0.69897   0.04461   0.40398   0.00000  Uiso   1.00
C575   C     0.74446   0.03831   0.29221   0.00000  Uiso   1.00
H576   H     0.60219   0.07921   0.91396   0.00000  Uiso   1.00
H577   H     0.59304   0.12607   0.97136   0.00000  Uiso   1.00
H578   H     0.51277   0.05323   0.84942   0.00000  Uiso   1.00
H579   H     0.70092   0.05982   0.86771   0.00000  Uiso   1.00
H580   H     0.58257   0.17563   0.11915   0.00000  Uiso   1.00
H581   H     0.41332   0.02206   0.86200   0.00000  Uiso   1.00
H582   H     0.81008   0.03594   0.90056   0.00000  Uiso   1.00
H583   H     0.59981   0.06083   0.56230   0.00000  Uiso   1.00
H584   H     0.59053   0.10668   0.65529   0.00000  Uiso   1.00
H585   H     0.51026   0.03385   0.53333   0.00000  Uiso   1.00
H586   H     0.69841   0.04043   0.55163   0.00000  Uiso   1.00
H587   H     0.58053   0.15990   0.67425   0.00000  Uiso   1.00
H588   H     0.41128   0.00632   0.41709   0.00000  Uiso   1.00
H589   H     0.80804   0.02020   0.45566   0.00000  Uiso   1.00
O590   O     0.57548   0.19826   0.44617   0.00000  Uiso   1.00
O591   O     0.35344   0.99677   0.10878   0.00000  Uiso   1.00
O592   O     0.87397   0.01498   0.15939   0.00000  Uiso   1.00
N593   N     0.58338   0.16564   0.23703   0.00000  Uiso   1.00
N594   N     0.42513   0.02206   0.99661   0.00000  Uiso   1.00
N595   N     0.79606   0.03503   0.03266   0.00000  Uiso   1.00
N596   N     0.58228   0.15717   0.53572   0.00000  Uiso   1.00
N597   N     0.42404   0.01359   0.29531   0.00000  Uiso   1.00
N598   N     0.79497   0.02656   0.33135   0.00000  Uiso   1.00
C599   C     0.60164   0.57500   0.56250   0.00000  Uiso   1.00
C600   C     0.59635   0.59791   0.68359   0.00000  Uiso   1.00
C601   C     0.59250   0.62189   0.61903   0.00000  Uiso   1.00
C602   C     0.58792   0.64029   0.75216   0.00000  Uiso   1.00
C603   C     0.57978   0.67669   0.91117   0.00000  Uiso   1.00
C604   C     0.55273   0.55834   0.61734   0.00000  Uiso   1.00
C605   C     0.51221   0.54905   0.49706   0.00000  Uiso   1.00
C606   C     0.47092   0.53414   0.57442   0.00000  Uiso   1.00
C607   C     0.39508   0.50909   0.63054   0.00000  Uiso   1.00
C608   C     0.65496   0.56192   0.62728   0.00000  Uiso   1.00
C609   C     0.70039   0.55563   0.51534   0.00000  Uiso   1.00
C610   C     0.74516   0.54373   0.60107   0.00000  Uiso   1.00
C611   C     0.82805   0.52424   0.67262   0.00000  Uiso   1.00
C612   C     0.60035   0.56504   0.91376   0.00000  Uiso   1.00
C613   C     0.59565   0.59250   0.87438   0.00000  Uiso   1.00
C614   C     0.59108   0.61087   0.00766   0.00000  Uiso   1.00
C615   C     0.58722   0.63488   0.94330   0.00000  Uiso   1.00
C616   C     0.55203   0.55293   0.80812   0.00000  Uiso   1.00
C617   C     0.51078   0.53803   0.88568   0.00000  Uiso   1.00
C618   C     0.47021   0.52872   0.76556   0.00000  Uiso   1.00
C619   C     0.65426   0.55651   0.81807   0.00000  Uiso   1.00
C620   C     0.69897   0.54461   0.90398   0.00000  Uiso   1.00
C621   C     0.74446   0.53831   0.79221   0.00000  Uiso   1.00
H622   H     0.60219   0.57921   0.41396   0.00000  Uiso   1.00
H623   H     0.59304   0.62607   0.47136   0.00000  Uiso   1.00
H624   H     0.51277   0.55323   0.34942   0.00000  Uiso   1.00
H625   H     0.70092   0.55982   0.36771   0.00000  Uiso   1.00
H626   H     0.58257   0.67563   0.61915   0.00000  Uiso   1.00
H627   H     0.41332   0.52206   0.36200   0.00000  Uiso   1.00
H628   H     0.81008   0.53594   0.40056   0.00000  Uiso   1.00
H629   H     0.59981   0.56083   0.06230   0.00000  Uiso   1.00
H630   H     0.59053   0.60668   0.15529   0.00000  Uiso   1.00
H631   H     0.51026   0.53385   0.03333   0.00000  Uiso   1.00
H632   H     0.69841   0.54043   0.05163   0.00000  Uiso   1.00
H633   H     0.58053   0.65990   0.17425   0.00000  Uiso   1.00
H634   H     0.41128   0.50632   0.91709   0.00000  Uiso   1.00
H635   H     0.80804   0.52020   0.95566   0.00000  Uiso   1.00
O636   O     0.57548   0.69826   0.94617   0.00000  Uiso   1.00
O637   O     0.35344   0.49677   0.60878   0.00000  Uiso   1.00
O638   O     0.87397   0.51498   0.65939   0.00000  Uiso   1.00
N639   N     0.58338   0.66564   0.73703   0.00000  Uiso   1.00
N640   N     0.42513   0.52206   0.49661   0.00000  Uiso   1.00
N641   N     0.79606   0.53503   0.53266   0.00000  Uiso   1.00
N642   N     0.58228   0.65717   0.03572   0.00000  Uiso   1.00
N643   N     0.42404   0.51359   0.79531   0.00000  Uiso   1.00
N644   N     0.79497   0.52656   0.83135   0.00000  Uiso   1.00
C645   C     0.10164   0.07500   0.56250   0.00000  Uiso   1.00
C646   C     0.09635   0.09791   0.68359   0.00000  Uiso   1.00
C647   C     0.09250   0.12189   0.61903   0.00000  Uiso   1.00
C648   C     0.08792   0.14029   0.75216   0.00000  Uiso   1.00
C649   C     0.07978   0.17669   0.91117   0.00000  Uiso   1.00
C650   C     0.05273   0.05834   0.61734   0.00000  Uiso   1.00
C651   C     0.01221   0.04905   0.49706   0.00000  Uiso   1.00
C652   C     0.97092   0.03414   0.57442   0.00000  Uiso   1.00
C653   C     0.89508   0.00909   0.63054   0.00000  Uiso   1.00
C654   C     0.15496   0.06192   0.62728   0.00000  Uiso   1.00
C655   C     0.20039   0.05563   0.51534   0.00000  Uiso   1.00
C656   C     0.24516   0.04373   0.60107   0.00000  Uiso   1.00
C657   C     0.32805   0.02424   0.67262   0.00000  Uiso   1.00
C658   C     0.10035   0.06504   0.91376   0.00000  Uiso   1.00
C659   C     0.09565   0.09250   0.87438   0.00000  Uiso   1.00
C660   C     0.09108   0.11087   0.00766   0.00000  Uiso   1.00
C661   C     0.08722   0.13488   0.94330   0.00000  Uiso   1.00
C662   C     0.05203   0.05293   0.80812   0.00000  Uiso   1.00
C663   C     0.01078   0.03803   0.88568   0.00000  Uiso   1.00
C664   C     0.97021   0.02872   0.76556   0.00000  Uiso   1.00
C665   C     0.15426   0.05651   0.81807   0.00000  Uiso   1.00
C666   C     0.19897   0.04461   0.90398   0.00000  Uiso   1.00
C667   C     0.24446   0.03831   0.79221   0.00000  Uiso   1.00
H668   H     0.10219   0.07921   0.41396   0.00000  Uiso   1.00
H669   H     0.09304   0.12607   0.47136   0.00000  Uiso   1.00
H670   H     0.01277   0.05323   0.34942   0.00000  Uiso   1.00
H671   H     0.20092   0.05982   0.36771   0.00000  Uiso   1.00
H672   H     0.08257   0.17563   0.61915   0.00000  Uiso   1.00
H673   H     0.91332   0.02206   0.36200   0.00000  Uiso   1.00
H674   H     0.31008   0.03594   0.40056   0.00000  Uiso   1.00
H675   H     0.09981   0.06083   0.06230   0.00000  Uiso   1.00
H676   H     0.09053   0.10668   0.15529   0.00000  Uiso   1.00
H677   H     0.01026   0.03385   0.03333   0.00000  Uiso   1.00
H678   H     0.19841   0.04043   0.05163   0.00000  Uiso   1.00
H679   H     0.08053   0.15990   0.17425   0.00000  Uiso   1.00
H680   H     0.91128   0.00632   0.91709   0.00000  Uiso   1.00
H681   H     0.30804   0.02020   0.95566   0.00000  Uiso   1.00
O682   O     0.07548   0.19826   0.94617   0.00000  Uiso   1.00
O683   O     0.85344   0.99677   0.60878   0.00000  Uiso   1.00
O684   O     0.37397   0.01498   0.65939   0.00000  Uiso   1.00
N685   N     0.08338   0.16564   0.73703   0.00000  Uiso   1.00
N686   N     0.92513   0.02206   0.49661   0.00000  Uiso   1.00
N687   N     0.29606   0.03503   0.53266   0.00000  Uiso   1.00
N688   N     0.08228   0.15717   0.03572   0.00000  Uiso   1.00
N689   N     0.92404   0.01359   0.79531   0.00000  Uiso   1.00
N690   N     0.29497   0.02656   0.83135   0.00000  Uiso   1.00
C691   C     0.10164   0.57500   0.06250   0.00000  Uiso   1.00
C692   C     0.09635   0.59791   0.18359   0.00000  Uiso   1.00
C693   C     0.09250   0.62189   0.11903   0.00000  Uiso   1.00
C694   C     0.08792   0.64029   0.25216   0.00000  Uiso   1.00
C695   C     0.07978   0.67669   0.41117   0.00000  Uiso   1.00
C696   C     0.05273   0.55834   0.11734   0.00000  Uiso   1.00
C697   C     0.01221   0.54905   0.99706   0.00000  Uiso   1.00
C698   C     0.97092   0.53414   0.07442   0.00000  Uiso   1.00
C699   C     0.89508   0.50909   0.13054   0.00000  Uiso   1.00
C700   C     0.15496   0.56192   0.12728   0.00000  Uiso   1.00
C701   C     0.20039   0.55563   0.01534   0.00000  Uiso   1.00
C702   C     0.24516   0.54373   0.10107   0.00000  Uiso   1.00
C703   C     0.32805   0.52424   0.17262   0.00000  Uiso   1.00
C704   C     0.10035   0.56504   0.41376   0.00000  Uiso   1.00
C705   C     0.09565   0.59250   0.37438   0.00000  Uiso   1.00
C706   C     0.09108   0.61087   0.50766   0.00000  Uiso   1.00
C707   C     0.08722   0.63488   0.44330   0.00000  Uiso   1.00
C708   C     0.05203   0.55293   0.30812   0.00000  Uiso   1.00
C709   C     0.01078   0.53803   0.38568   0.00000  Uiso   1.00
C710   C     0.97021   0.52872   0.26556   0.00000  Uiso   1.00
C711   C     0.15426   0.55651   0.31807   0.00000  Uiso   1.00
C712   C     0.19897   0.54461   0.40398   0.00000  Uiso   1.00
C713   C     0.24446   0.53831   0.29221   0.00000  Uiso   1.00
H714   H     0.10219   0.57921   0.91396   0.00000  Uiso   1.00
H715   H     0.09304   0.62607   0.97136   0.00000  Uiso   1.00
H716   H     0.01277   0.55323   0.84942   0.00000  Uiso   1.00
H717   H     0.20092   0.55982   0.86771   0.00000  Uiso   1.00
H718   H     0.08257   0.67563   0.11915   0.00000  Uiso   1.00
H719   H     0.91332   0.52206   0.86200   0.00000  Uiso   1.00
H720   H     0.31008   0.53594   0.90056   0.00000  Uiso   1.00
H721   H     0.09981   0.56083   0.56230   0.00000  Uiso   1.00
H722   H     0.09053   0.60668   0.65529   0.00000  Uiso   1.00
H723   H     0.01026   0.53385   0.53333   0.00000  Uiso   1.00
H724   H     0.19841   0.54043   0.55163   0.00000  Uiso   1.00
H725   H     0.08053   0.65990   0.67425   0.00000  Uiso   1.00
H726   H     0.91128   0.50632   0.41709   0.00000  Uiso   1.00
H727   H     0.30804   0.52020   0.45566   0.00000  Uiso   1.00
O728   O     0.07548   0.69826   0.44617   0.00000  Uiso   1.00
O729   O     0.85344   0.49677   0.10878   0.00000  Uiso   1.00
O730   O     0.37397   0.51498   0.15939   0.00000  Uiso   1.00
N731   N     0.08338   0.66564   0.23703   0.00000  Uiso   1.00
N732   N     0.92513   0.52206   0.99661   0.00000  Uiso   1.00
N733   N     0.29606   0.53503   0.03266   0.00000  Uiso   1.00
N734   N     0.08228   0.65717   0.53572   0.00000  Uiso   1.00
N735   N     0.92404   0.51359   0.29531   0.00000  Uiso   1.00
N736   N     0.29497   0.52656   0.33135   0.00000  Uiso   1.00
