data_job_01237
_audit_creation_date              2018-12-19
_audit_creation_method            'Materials Studio'
_symmetry_space_group_name_H-M    'P1'
_symmetry_Int_Tables_number       1
_symmetry_cell_setting            triclinic
loop_
_symmetry_equiv_pos_as_xyz
  x,y,z
_cell_length_a                    21.8286
_cell_length_b                    21.8286
_cell_length_c                    23.4566
_cell_angle_alpha                 90.0000
_cell_angle_beta                  90.0000
_cell_angle_gamma                 90.0000
loop_
_atom_site_label
_atom_site_type_symbol
_atom_site_fract_x
_atom_site_fract_y
_atom_site_fract_z
_atom_site_U_iso_or_equiv
_atom_site_adp_type
_atom_site_occupancy
C1     C     0.17497   0.37234   0.00775   0.00000  Uiso   1.00
C2     C     0.13848   0.35756   0.06145   0.00000  Uiso   1.00
C3     C     0.12642   0.39788   0.10579   0.00000  Uiso   1.00
C4     C     0.09222   0.37555   0.15116   0.00000  Uiso   1.00
C5     C     0.03882   0.36179   0.23442   0.00000  Uiso   1.00
C6     C     0.22667   0.32543   0.00525   0.00000  Uiso   1.00
C7     C     0.28877   0.33874   0.00234   0.00000  Uiso   1.00
C8     C     0.32880   0.28936   0.00040   0.00000  Uiso   1.00
C9     C     0.41233   0.22572   0.99637   0.00000  Uiso   1.00
C10    C     0.13284   0.35770   0.95771   0.00000  Uiso   1.00
C11    C     0.11605   0.39814   0.91482   0.00000  Uiso   1.00
C12    C     0.07709   0.37593   0.87284   0.00000  Uiso   1.00
C13    C     0.01493   0.36240   0.79500   0.00000  Uiso   1.00
C14    C     0.13567   0.26097   0.00946   0.00000  Uiso   1.00
C15    C     0.11713   0.29706   0.06238   0.00000  Uiso   1.00
C16    C     0.08293   0.27466   0.10769   0.00000  Uiso   1.00
C17    C     0.07082   0.31495   0.15209   0.00000  Uiso   1.00
C18    C     0.20533   0.26494   0.00619   0.00000  Uiso   1.00
C19    C     0.24528   0.21552   0.00424   0.00000  Uiso   1.00
C20    C     0.30741   0.22876   0.00133   0.00000  Uiso   1.00
C21    C     0.11149   0.29721   0.95865   0.00000  Uiso   1.00
C22    C     0.07256   0.27493   0.91672   0.00000  Uiso   1.00
C23    C     0.05570   0.31533   0.87377   0.00000  Uiso   1.00
H24    H     0.19160   0.41943   0.00702   0.00000  Uiso   1.00
H25    H     0.14296   0.44469   0.10506   0.00000  Uiso   1.00
H26    H     0.30527   0.38556   0.00162   0.00000  Uiso   1.00
H27    H     0.13258   0.44495   0.91411   0.00000  Uiso   1.00
H28    H     0.07963   0.44601   0.21417   0.00000  Uiso   1.00
H29    H     0.42188   0.32133   0.99604   0.00000  Uiso   1.00
H30    H     0.05772   0.44657   0.81152   0.00000  Uiso   1.00
H31    H     0.11905   0.21387   0.01019   0.00000  Uiso   1.00
H32    H     0.06642   0.22785   0.10840   0.00000  Uiso   1.00
H33    H     0.22874   0.16872   0.00496   0.00000  Uiso   1.00
H34    H     0.05604   0.22811   0.91746   0.00000  Uiso   1.00
H35    H     0.01751   0.27001   0.21688   0.00000  Uiso   1.00
H36    H     0.35977   0.14533   0.99875   0.00000  Uiso   1.00
H37    H     0.99561   0.27058   0.81423   0.00000  Uiso   1.00
O38    O     0.01528   0.37091   0.28008   0.00000  Uiso   1.00
O39    O     0.46430   0.20733   0.99390   0.00000  Uiso   1.00
O40    O     0.98653   0.37165   0.75181   0.00000  Uiso   1.00
N41    N     0.07222   0.40267   0.20132   0.00000  Uiso   1.00
N42    N     0.39221   0.28610   0.99740   0.00000  Uiso   1.00
N43    N     0.05176   0.40319   0.82487   0.00000  Uiso   1.00
N44    N     0.03880   0.30797   0.20278   0.00000  Uiso   1.00
N45    N     0.35878   0.19140   0.99886   0.00000  Uiso   1.00
N46    N     0.01834   0.30849   0.82633   0.00000  Uiso   1.00
C47    C     0.67497   0.87234   0.50775   0.00000  Uiso   1.00
C48    C     0.63848   0.85756   0.56145   0.00000  Uiso   1.00
C49    C     0.62642   0.89788   0.60579   0.00000  Uiso   1.00
C50    C     0.59222   0.87555   0.65116   0.00000  Uiso   1.00
C51    C     0.53882   0.86179   0.73442   0.00000  Uiso   1.00
C52    C     0.72667   0.82543   0.50525   0.00000  Uiso   1.00
C53    C     0.78877   0.83874   0.50234   0.00000  Uiso   1.00
C54    C     0.82880   0.78936   0.50040   0.00000  Uiso   1.00
C55    C     0.91233   0.72572   0.49637   0.00000  Uiso   1.00
C56    C     0.63284   0.85770   0.45771   0.00000  Uiso   1.00
C57    C     0.61605   0.89814   0.41482   0.00000  Uiso   1.00
C58    C     0.57709   0.87593   0.37284   0.00000  Uiso   1.00
C59    C     0.51493   0.86240   0.29500   0.00000  Uiso   1.00
C60    C     0.63567   0.76097   0.50946   0.00000  Uiso   1.00
C61    C     0.61713   0.79706   0.56238   0.00000  Uiso   1.00
C62    C     0.58293   0.77466   0.60769   0.00000  Uiso   1.00
C63    C     0.57082   0.81495   0.65209   0.00000  Uiso   1.00
C64    C     0.70533   0.76494   0.50619   0.00000  Uiso   1.00
C65    C     0.74528   0.71552   0.50424   0.00000  Uiso   1.00
C66    C     0.80741   0.72876   0.50133   0.00000  Uiso   1.00
C67    C     0.61149   0.79721   0.45865   0.00000  Uiso   1.00
C68    C     0.57256   0.77493   0.41672   0.00000  Uiso   1.00
C69    C     0.55570   0.81533   0.37377   0.00000  Uiso   1.00
H70    H     0.69160   0.91943   0.50702   0.00000  Uiso   1.00
H71    H     0.64296   0.94469   0.60506   0.00000  Uiso   1.00
H72    H     0.80527   0.88556   0.50162   0.00000  Uiso   1.00
H73    H     0.63258   0.94495   0.41411   0.00000  Uiso   1.00
H74    H     0.57963   0.94601   0.71417   0.00000  Uiso   1.00
H75    H     0.92188   0.82133   0.49604   0.00000  Uiso   1.00
H76    H     0.55772   0.94657   0.31152   0.00000  Uiso   1.00
H77    H     0.61905   0.71387   0.51019   0.00000  Uiso   1.00
H78    H     0.56642   0.72785   0.60840   0.00000  Uiso   1.00
H79    H     0.72874   0.66872   0.50496   0.00000  Uiso   1.00
H80    H     0.55604   0.72811   0.41746   0.00000  Uiso   1.00
H81    H     0.51751   0.77001   0.71688   0.00000  Uiso   1.00
H82    H     0.85977   0.64533   0.49875   0.00000  Uiso   1.00
H83    H     0.49561   0.77058   0.31423   0.00000  Uiso   1.00
O84    O     0.51528   0.87091   0.78008   0.00000  Uiso   1.00
O85    O     0.96430   0.70733   0.49390   0.00000  Uiso   1.00
O86    O     0.48653   0.87165   0.25181   0.00000  Uiso   1.00
N87    N     0.57222   0.90267   0.70132   0.00000  Uiso   1.00
N88    N     0.89221   0.78610   0.49740   0.00000  Uiso   1.00
N89    N     0.55176   0.90319   0.32487   0.00000  Uiso   1.00
N90    N     0.53880   0.80797   0.70278   0.00000  Uiso   1.00
N91    N     0.85878   0.69140   0.49886   0.00000  Uiso   1.00
N92    N     0.51834   0.80849   0.32633   0.00000  Uiso   1.00
C93    C     0.32503   0.12766   0.50775   0.00000  Uiso   1.00
C94    C     0.36152   0.14244   0.56145   0.00000  Uiso   1.00
C95    C     0.37358   0.10212   0.60579   0.00000  Uiso   1.00
C96    C     0.40778   0.12445   0.65116   0.00000  Uiso   1.00
C97    C     0.46118   0.13821   0.73442   0.00000  Uiso   1.00
C98    C     0.27333   0.17457   0.50525   0.00000  Uiso   1.00
C99    C     0.21123   0.16126   0.50234   0.00000  Uiso   1.00
C100   C     0.17120   0.21064   0.50040   0.00000  Uiso   1.00
C101   C     0.08767   0.27428   0.49637   0.00000  Uiso   1.00
C102   C     0.36716   0.14230   0.45771   0.00000  Uiso   1.00
C103   C     0.38395   0.10186   0.41482   0.00000  Uiso   1.00
C104   C     0.42291   0.12407   0.37284   0.00000  Uiso   1.00
C105   C     0.48507   0.13760   0.29500   0.00000  Uiso   1.00
C106   C     0.36433   0.23903   0.50946   0.00000  Uiso   1.00
C107   C     0.38287   0.20294   0.56238   0.00000  Uiso   1.00
C108   C     0.41707   0.22534   0.60769   0.00000  Uiso   1.00
C109   C     0.42918   0.18505   0.65209   0.00000  Uiso   1.00
C110   C     0.29467   0.23506   0.50619   0.00000  Uiso   1.00
C111   C     0.25472   0.28448   0.50424   0.00000  Uiso   1.00
C112   C     0.19259   0.27124   0.50133   0.00000  Uiso   1.00
C113   C     0.38851   0.20279   0.45865   0.00000  Uiso   1.00
C114   C     0.42744   0.22507   0.41672   0.00000  Uiso   1.00
C115   C     0.44430   0.18467   0.37377   0.00000  Uiso   1.00
H116   H     0.30840   0.08057   0.50702   0.00000  Uiso   1.00
H117   H     0.35704   0.05531   0.60506   0.00000  Uiso   1.00
H118   H     0.19473   0.11444   0.50162   0.00000  Uiso   1.00
H119   H     0.36742   0.05505   0.41411   0.00000  Uiso   1.00
H120   H     0.42037   0.05399   0.71417   0.00000  Uiso   1.00
H121   H     0.07812   0.17867   0.49604   0.00000  Uiso   1.00
H122   H     0.44228   0.05343   0.31152   0.00000  Uiso   1.00
H123   H     0.38095   0.28613   0.51019   0.00000  Uiso   1.00
H124   H     0.43358   0.27215   0.60840   0.00000  Uiso   1.00
H125   H     0.27126   0.33128   0.50496   0.00000  Uiso   1.00
H126   H     0.44396   0.27189   0.41746   0.00000  Uiso   1.00
H127   H     0.48249   0.22999   0.71688   0.00000  Uiso   1.00
H128   H     0.14023   0.35467   0.49875   0.00000  Uiso   1.00
H129   H     0.50439   0.22942   0.31423   0.00000  Uiso   1.00
O130   O     0.48472   0.12909   0.78008   0.00000  Uiso   1.00
O131   O     0.03570   0.29267   0.49390   0.00000  Uiso   1.00
O132   O     0.51347   0.12835   0.25181   0.00000  Uiso   1.00
N133   N     0.42778   0.09733   0.70132   0.00000  Uiso   1.00
N134   N     0.10779   0.21390   0.49740   0.00000  Uiso   1.00
N135   N     0.44824   0.09681   0.32487   0.00000  Uiso   1.00
N136   N     0.46120   0.19203   0.70278   0.00000  Uiso   1.00
N137   N     0.14122   0.30860   0.49886   0.00000  Uiso   1.00
N138   N     0.48166   0.19151   0.32633   0.00000  Uiso   1.00
C139   C     0.82503   0.62766   0.00775   0.00000  Uiso   1.00
C140   C     0.86152   0.64244   0.06145   0.00000  Uiso   1.00
C141   C     0.87358   0.60212   0.10579   0.00000  Uiso   1.00
C142   C     0.90778   0.62445   0.15116   0.00000  Uiso   1.00
C143   C     0.96118   0.63821   0.23442   0.00000  Uiso   1.00
C144   C     0.77333   0.67457   0.00525   0.00000  Uiso   1.00
C145   C     0.71123   0.66126   0.00234   0.00000  Uiso   1.00
C146   C     0.67120   0.71064   0.00040   0.00000  Uiso   1.00
C147   C     0.58767   0.77428   0.99637   0.00000  Uiso   1.00
C148   C     0.86716   0.64230   0.95771   0.00000  Uiso   1.00
C149   C     0.88395   0.60186   0.91482   0.00000  Uiso   1.00
C150   C     0.92291   0.62407   0.87284   0.00000  Uiso   1.00
C151   C     0.98507   0.63760   0.79500   0.00000  Uiso   1.00
C152   C     0.86433   0.73903   0.00946   0.00000  Uiso   1.00
C153   C     0.88287   0.70294   0.06238   0.00000  Uiso   1.00
C154   C     0.91707   0.72534   0.10769   0.00000  Uiso   1.00
C155   C     0.92918   0.68505   0.15209   0.00000  Uiso   1.00
C156   C     0.79467   0.73506   0.00619   0.00000  Uiso   1.00
C157   C     0.75472   0.78448   0.00424   0.00000  Uiso   1.00
C158   C     0.69259   0.77124   0.00133   0.00000  Uiso   1.00
C159   C     0.88851   0.70279   0.95865   0.00000  Uiso   1.00
C160   C     0.92744   0.72507   0.91672   0.00000  Uiso   1.00
C161   C     0.94430   0.68467   0.87377   0.00000  Uiso   1.00
H162   H     0.80840   0.58057   0.00702   0.00000  Uiso   1.00
H163   H     0.85704   0.55531   0.10506   0.00000  Uiso   1.00
H164   H     0.69473   0.61444   0.00162   0.00000  Uiso   1.00
H165   H     0.86742   0.55505   0.91411   0.00000  Uiso   1.00
H166   H     0.92037   0.55399   0.21417   0.00000  Uiso   1.00
H167   H     0.57812   0.67867   0.99604   0.00000  Uiso   1.00
H168   H     0.94228   0.55343   0.81152   0.00000  Uiso   1.00
H169   H     0.88095   0.78613   0.01019   0.00000  Uiso   1.00
H170   H     0.93358   0.77215   0.10840   0.00000  Uiso   1.00
H171   H     0.77126   0.83128   0.00496   0.00000  Uiso   1.00
H172   H     0.94396   0.77189   0.91746   0.00000  Uiso   1.00
H173   H     0.98249   0.72999   0.21688   0.00000  Uiso   1.00
H174   H     0.64023   0.85467   0.99875   0.00000  Uiso   1.00
H175   H     0.00439   0.72942   0.81423   0.00000  Uiso   1.00
O176   O     0.98472   0.62909   0.28008   0.00000  Uiso   1.00
O177   O     0.53570   0.79267   0.99390   0.00000  Uiso   1.00
O178   O     0.01347   0.62835   0.75181   0.00000  Uiso   1.00
N179   N     0.92778   0.59733   0.20132   0.00000  Uiso   1.00
N180   N     0.60779   0.71390   0.99740   0.00000  Uiso   1.00
N181   N     0.94824   0.59681   0.82487   0.00000  Uiso   1.00
N182   N     0.96120   0.69203   0.20278   0.00000  Uiso   1.00
N183   N     0.64122   0.80860   0.99886   0.00000  Uiso   1.00
N184   N     0.98166   0.69151   0.82633   0.00000  Uiso   1.00
C185   C     0.62766   0.67497   0.25775   0.00000  Uiso   1.00
C186   C     0.64244   0.63848   0.31145   0.00000  Uiso   1.00
C187   C     0.60212   0.62642   0.35579   0.00000  Uiso   1.00
C188   C     0.62445   0.59222   0.40116   0.00000  Uiso   1.00
C189   C     0.63821   0.53882   0.48442   0.00000  Uiso   1.00
C190   C     0.67457   0.72667   0.25525   0.00000  Uiso   1.00
C191   C     0.66126   0.78877   0.25234   0.00000  Uiso   1.00
C192   C     0.71064   0.82880   0.25040   0.00000  Uiso   1.00
C193   C     0.77428   0.91233   0.24637   0.00000  Uiso   1.00
C194   C     0.64230   0.63284   0.20771   0.00000  Uiso   1.00
C195   C     0.60186   0.61605   0.16482   0.00000  Uiso   1.00
C196   C     0.62407   0.57709   0.12284   0.00000  Uiso   1.00
C197   C     0.63760   0.51493   0.04500   0.00000  Uiso   1.00
C198   C     0.73903   0.63567   0.25946   0.00000  Uiso   1.00
C199   C     0.70294   0.61713   0.31238   0.00000  Uiso   1.00
C200   C     0.72534   0.58293   0.35769   0.00000  Uiso   1.00
C201   C     0.68505   0.57082   0.40209   0.00000  Uiso   1.00
C202   C     0.73506   0.70533   0.25619   0.00000  Uiso   1.00
C203   C     0.78448   0.74528   0.25424   0.00000  Uiso   1.00
C204   C     0.77124   0.80741   0.25133   0.00000  Uiso   1.00
C205   C     0.70279   0.61149   0.20865   0.00000  Uiso   1.00
C206   C     0.72507   0.57256   0.16672   0.00000  Uiso   1.00
C207   C     0.68467   0.55570   0.12377   0.00000  Uiso   1.00
H208   H     0.58057   0.69160   0.25702   0.00000  Uiso   1.00
H209   H     0.55531   0.64296   0.35506   0.00000  Uiso   1.00
H210   H     0.61444   0.80527   0.25162   0.00000  Uiso   1.00
H211   H     0.55505   0.63258   0.16411   0.00000  Uiso   1.00
H212   H     0.55399   0.57963   0.46417   0.00000  Uiso   1.00
H213   H     0.67867   0.92188   0.24604   0.00000  Uiso   1.00
H214   H     0.55343   0.55772   0.06152   0.00000  Uiso   1.00
H215   H     0.78613   0.61905   0.26019   0.00000  Uiso   1.00
H216   H     0.77215   0.56642   0.35840   0.00000  Uiso   1.00
H217   H     0.83128   0.72874   0.25496   0.00000  Uiso   1.00
H218   H     0.77189   0.55604   0.16746   0.00000  Uiso   1.00
H219   H     0.72999   0.51751   0.46688   0.00000  Uiso   1.00
H220   H     0.85467   0.85977   0.24875   0.00000  Uiso   1.00
H221   H     0.72942   0.49561   0.06423   0.00000  Uiso   1.00
O222   O     0.62909   0.51528   0.53008   0.00000  Uiso   1.00
O223   O     0.79267   0.96430   0.24390   0.00000  Uiso   1.00
O224   O     0.62835   0.48653   0.00181   0.00000  Uiso   1.00
N225   N     0.59733   0.57222   0.45132   0.00000  Uiso   1.00
N226   N     0.71390   0.89221   0.24740   0.00000  Uiso   1.00
N227   N     0.59681   0.55176   0.07487   0.00000  Uiso   1.00
N228   N     0.69203   0.53880   0.45278   0.00000  Uiso   1.00
N229   N     0.80860   0.85878   0.24886   0.00000  Uiso   1.00
N230   N     0.69151   0.51834   0.07633   0.00000  Uiso   1.00
C231   C     0.12766   0.17497   0.75775   0.00000  Uiso   1.00
C232   C     0.14244   0.13848   0.81145   0.00000  Uiso   1.00
C233   C     0.10212   0.12642   0.85579   0.00000  Uiso   1.00
C234   C     0.12445   0.09222   0.90116   0.00000  Uiso   1.00
C235   C     0.13821   0.03882   0.98442   0.00000  Uiso   1.00
C236   C     0.17457   0.22667   0.75525   0.00000  Uiso   1.00
C237   C     0.16126   0.28877   0.75234   0.00000  Uiso   1.00
C238   C     0.21064   0.32880   0.75040   0.00000  Uiso   1.00
C239   C     0.27428   0.41233   0.74637   0.00000  Uiso   1.00
C240   C     0.14230   0.13284   0.70771   0.00000  Uiso   1.00
C241   C     0.10186   0.11605   0.66482   0.00000  Uiso   1.00
C242   C     0.12407   0.07709   0.62284   0.00000  Uiso   1.00
C243   C     0.13760   0.01493   0.54500   0.00000  Uiso   1.00
C244   C     0.23903   0.13567   0.75946   0.00000  Uiso   1.00
C245   C     0.20294   0.11713   0.81238   0.00000  Uiso   1.00
C246   C     0.22534   0.08293   0.85769   0.00000  Uiso   1.00
C247   C     0.18505   0.07082   0.90209   0.00000  Uiso   1.00
C248   C     0.23506   0.20533   0.75619   0.00000  Uiso   1.00
C249   C     0.28448   0.24528   0.75424   0.00000  Uiso   1.00
C250   C     0.27124   0.30741   0.75133   0.00000  Uiso   1.00
C251   C     0.20279   0.11149   0.70865   0.00000  Uiso   1.00
C252   C     0.22507   0.07256   0.66672   0.00000  Uiso   1.00
C253   C     0.18467   0.05570   0.62377   0.00000  Uiso   1.00
H254   H     0.08057   0.19160   0.75702   0.00000  Uiso   1.00
H255   H     0.05531   0.14296   0.85506   0.00000  Uiso   1.00
H256   H     0.11444   0.30527   0.75162   0.00000  Uiso   1.00
H257   H     0.05505   0.13258   0.66411   0.00000  Uiso   1.00
H258   H     0.05399   0.07963   0.96417   0.00000  Uiso   1.00
H259   H     0.17867   0.42188   0.74604   0.00000  Uiso   1.00
H260   H     0.05343   0.05772   0.56152   0.00000  Uiso   1.00
H261   H     0.28613   0.11905   0.76019   0.00000  Uiso   1.00
H262   H     0.27215   0.06642   0.85840   0.00000  Uiso   1.00
H263   H     0.33128   0.22874   0.75496   0.00000  Uiso   1.00
H264   H     0.27189   0.05604   0.66746   0.00000  Uiso   1.00
H265   H     0.22999   0.01751   0.96688   0.00000  Uiso   1.00
H266   H     0.35467   0.35977   0.74875   0.00000  Uiso   1.00
H267   H     0.22942   0.99561   0.56423   0.00000  Uiso   1.00
O268   O     0.12909   0.01528   0.03008   0.00000  Uiso   1.00
O269   O     0.29267   0.46430   0.74390   0.00000  Uiso   1.00
O270   O     0.12835   0.98653   0.50181   0.00000  Uiso   1.00
N271   N     0.09733   0.07222   0.95132   0.00000  Uiso   1.00
N272   N     0.21390   0.39221   0.74740   0.00000  Uiso   1.00
N273   N     0.09681   0.05176   0.57487   0.00000  Uiso   1.00
N274   N     0.19203   0.03880   0.95278   0.00000  Uiso   1.00
N275   N     0.30860   0.35878   0.74886   0.00000  Uiso   1.00
N276   N     0.19151   0.01834   0.57633   0.00000  Uiso   1.00
C277   C     0.87234   0.82503   0.75775   0.00000  Uiso   1.00
C278   C     0.85756   0.86152   0.81145   0.00000  Uiso   1.00
C279   C     0.89788   0.87358   0.85579   0.00000  Uiso   1.00
C280   C     0.87555   0.90778   0.90116   0.00000  Uiso   1.00
C281   C     0.86179   0.96118   0.98442   0.00000  Uiso   1.00
C282   C     0.82543   0.77333   0.75525   0.00000  Uiso   1.00
C283   C     0.83874   0.71123   0.75234   0.00000  Uiso   1.00
C284   C     0.78936   0.67120   0.75040   0.00000  Uiso   1.00
C285   C     0.72572   0.58767   0.74637   0.00000  Uiso   1.00
C286   C     0.85770   0.86716   0.70771   0.00000  Uiso   1.00
C287   C     0.89814   0.88395   0.66482   0.00000  Uiso   1.00
C288   C     0.87593   0.92291   0.62284   0.00000  Uiso   1.00
C289   C     0.86240   0.98507   0.54500   0.00000  Uiso   1.00
C290   C     0.76097   0.86433   0.75946   0.00000  Uiso   1.00
C291   C     0.79706   0.88287   0.81238   0.00000  Uiso   1.00
C292   C     0.77466   0.91707   0.85769   0.00000  Uiso   1.00
C293   C     0.81495   0.92918   0.90209   0.00000  Uiso   1.00
C294   C     0.76494   0.79467   0.75619   0.00000  Uiso   1.00
C295   C     0.71552   0.75472   0.75424   0.00000  Uiso   1.00
C296   C     0.72876   0.69259   0.75133   0.00000  Uiso   1.00
C297   C     0.79721   0.88851   0.70865   0.00000  Uiso   1.00
C298   C     0.77493   0.92744   0.66672   0.00000  Uiso   1.00
C299   C     0.81533   0.94430   0.62377   0.00000  Uiso   1.00
H300   H     0.91943   0.80840   0.75702   0.00000  Uiso   1.00
H301   H     0.94469   0.85704   0.85506   0.00000  Uiso   1.00
H302   H     0.88556   0.69473   0.75162   0.00000  Uiso   1.00
H303   H     0.94495   0.86742   0.66411   0.00000  Uiso   1.00
H304   H     0.94601   0.92037   0.96417   0.00000  Uiso   1.00
H305   H     0.82133   0.57812   0.74604   0.00000  Uiso   1.00
H306   H     0.94657   0.94228   0.56152   0.00000  Uiso   1.00
H307   H     0.71387   0.88095   0.76019   0.00000  Uiso   1.00
H308   H     0.72785   0.93358   0.85840   0.00000  Uiso   1.00
H309   H     0.66872   0.77126   0.75496   0.00000  Uiso   1.00
H310   H     0.72811   0.94396   0.66746   0.00000  Uiso   1.00
H311   H     0.77001   0.98249   0.96688   0.00000  Uiso   1.00
H312   H     0.64533   0.64023   0.74875   0.00000  Uiso   1.00
H313   H     0.77058   0.00439   0.56423   0.00000  Uiso   1.00
O314   O     0.87091   0.98472   0.03008   0.00000  Uiso   1.00
O315   O     0.70733   0.53570   0.74390   0.00000  Uiso   1.00
O316   O     0.87165   0.01347   0.50181   0.00000  Uiso   1.00
N317   N     0.90267   0.92778   0.95132   0.00000  Uiso   1.00
N318   N     0.78610   0.60779   0.74740   0.00000  Uiso   1.00
N319   N     0.90319   0.94824   0.57487   0.00000  Uiso   1.00
N320   N     0.80797   0.96120   0.95278   0.00000  Uiso   1.00
N321   N     0.69140   0.64122   0.74886   0.00000  Uiso   1.00
N322   N     0.80849   0.98166   0.57633   0.00000  Uiso   1.00
C323   C     0.37234   0.32503   0.25775   0.00000  Uiso   1.00
C324   C     0.35756   0.36152   0.31145   0.00000  Uiso   1.00
C325   C     0.39788   0.37358   0.35579   0.00000  Uiso   1.00
C326   C     0.37555   0.40778   0.40116   0.00000  Uiso   1.00
C327   C     0.36179   0.46118   0.48442   0.00000  Uiso   1.00
C328   C     0.32543   0.27333   0.25525   0.00000  Uiso   1.00
C329   C     0.33874   0.21123   0.25234   0.00000  Uiso   1.00
C330   C     0.28936   0.17120   0.25040   0.00000  Uiso   1.00
C331   C     0.22572   0.08767   0.24637   0.00000  Uiso   1.00
C332   C     0.35770   0.36716   0.20771   0.00000  Uiso   1.00
C333   C     0.39814   0.38395   0.16482   0.00000  Uiso   1.00
C334   C     0.37593   0.42291   0.12284   0.00000  Uiso   1.00
C335   C     0.36240   0.48507   0.04500   0.00000  Uiso   1.00
C336   C     0.26097   0.36433   0.25946   0.00000  Uiso   1.00
C337   C     0.29706   0.38287   0.31238   0.00000  Uiso   1.00
C338   C     0.27466   0.41707   0.35769   0.00000  Uiso   1.00
C339   C     0.31495   0.42918   0.40209   0.00000  Uiso   1.00
C340   C     0.26494   0.29467   0.25619   0.00000  Uiso   1.00
C341   C     0.21552   0.25472   0.25424   0.00000  Uiso   1.00
C342   C     0.22876   0.19259   0.25133   0.00000  Uiso   1.00
C343   C     0.29721   0.38851   0.20865   0.00000  Uiso   1.00
C344   C     0.27493   0.42744   0.16672   0.00000  Uiso   1.00
C345   C     0.31533   0.44430   0.12377   0.00000  Uiso   1.00
H346   H     0.41943   0.30840   0.25702   0.00000  Uiso   1.00
H347   H     0.44469   0.35704   0.35506   0.00000  Uiso   1.00
H348   H     0.38556   0.19473   0.25162   0.00000  Uiso   1.00
H349   H     0.44495   0.36742   0.16411   0.00000  Uiso   1.00
H350   H     0.44601   0.42037   0.46417   0.00000  Uiso   1.00
H351   H     0.32133   0.07812   0.24604   0.00000  Uiso   1.00
H352   H     0.44657   0.44228   0.06152   0.00000  Uiso   1.00
H353   H     0.21387   0.38095   0.26019   0.00000  Uiso   1.00
H354   H     0.22785   0.43358   0.35840   0.00000  Uiso   1.00
H355   H     0.16872   0.27126   0.25496   0.00000  Uiso   1.00
H356   H     0.22811   0.44396   0.16746   0.00000  Uiso   1.00
H357   H     0.27001   0.48249   0.46688   0.00000  Uiso   1.00
H358   H     0.14533   0.14023   0.24875   0.00000  Uiso   1.00
H359   H     0.27058   0.50439   0.06423   0.00000  Uiso   1.00
O360   O     0.37091   0.48472   0.53008   0.00000  Uiso   1.00
O361   O     0.20733   0.03570   0.24390   0.00000  Uiso   1.00
O362   O     0.37165   0.51347   0.00181   0.00000  Uiso   1.00
N363   N     0.40267   0.42778   0.45132   0.00000  Uiso   1.00
N364   N     0.28610   0.10779   0.24740   0.00000  Uiso   1.00
N365   N     0.40319   0.44824   0.07487   0.00000  Uiso   1.00
N366   N     0.30797   0.46120   0.45278   0.00000  Uiso   1.00
N367   N     0.19140   0.14122   0.24886   0.00000  Uiso   1.00
N368   N     0.30849   0.48166   0.07633   0.00000  Uiso   1.00
C369   C     0.82503   0.12766   0.24225   0.00000  Uiso   1.00
C370   C     0.86152   0.14244   0.18855   0.00000  Uiso   1.00
C371   C     0.87358   0.10212   0.14421   0.00000  Uiso   1.00
C372   C     0.90778   0.12445   0.09884   0.00000  Uiso   1.00
C373   C     0.96118   0.13821   0.01558   0.00000  Uiso   1.00
C374   C     0.77333   0.17457   0.24475   0.00000  Uiso   1.00
C375   C     0.71123   0.16126   0.24766   0.00000  Uiso   1.00
C376   C     0.67120   0.21064   0.24960   0.00000  Uiso   1.00
C377   C     0.58767   0.27428   0.25363   0.00000  Uiso   1.00
C378   C     0.86716   0.14230   0.29229   0.00000  Uiso   1.00
C379   C     0.88395   0.10186   0.33518   0.00000  Uiso   1.00
C380   C     0.92291   0.12407   0.37716   0.00000  Uiso   1.00
C381   C     0.98507   0.13760   0.45500   0.00000  Uiso   1.00
C382   C     0.86433   0.23903   0.24054   0.00000  Uiso   1.00
C383   C     0.88287   0.20294   0.18762   0.00000  Uiso   1.00
C384   C     0.91707   0.22534   0.14231   0.00000  Uiso   1.00
C385   C     0.92918   0.18505   0.09791   0.00000  Uiso   1.00
C386   C     0.79467   0.23506   0.24381   0.00000  Uiso   1.00
C387   C     0.75472   0.28448   0.24576   0.00000  Uiso   1.00
C388   C     0.69259   0.27124   0.24867   0.00000  Uiso   1.00
C389   C     0.88851   0.20279   0.29135   0.00000  Uiso   1.00
C390   C     0.92744   0.22507   0.33328   0.00000  Uiso   1.00
C391   C     0.94430   0.18467   0.37623   0.00000  Uiso   1.00
H392   H     0.80840   0.08057   0.24298   0.00000  Uiso   1.00
H393   H     0.85704   0.05531   0.14494   0.00000  Uiso   1.00
H394   H     0.69473   0.11444   0.24838   0.00000  Uiso   1.00
H395   H     0.86742   0.05505   0.33589   0.00000  Uiso   1.00
H396   H     0.92037   0.05399   0.03583   0.00000  Uiso   1.00
H397   H     0.57812   0.17867   0.25396   0.00000  Uiso   1.00
H398   H     0.94228   0.05343   0.43848   0.00000  Uiso   1.00
H399   H     0.88095   0.28613   0.23981   0.00000  Uiso   1.00
H400   H     0.93358   0.27215   0.14160   0.00000  Uiso   1.00
H401   H     0.77126   0.33128   0.24504   0.00000  Uiso   1.00
H402   H     0.94396   0.27189   0.33254   0.00000  Uiso   1.00
H403   H     0.98249   0.22999   0.03312   0.00000  Uiso   1.00
H404   H     0.64023   0.35467   0.25125   0.00000  Uiso   1.00
H405   H     0.00439   0.22942   0.43577   0.00000  Uiso   1.00
O406   O     0.98472   0.12909   0.96992   0.00000  Uiso   1.00
O407   O     0.53570   0.29267   0.25610   0.00000  Uiso   1.00
O408   O     0.01347   0.12835   0.49819   0.00000  Uiso   1.00
N409   N     0.92778   0.09733   0.04868   0.00000  Uiso   1.00
N410   N     0.60779   0.21390   0.25260   0.00000  Uiso   1.00
N411   N     0.94824   0.09681   0.42513   0.00000  Uiso   1.00
N412   N     0.96120   0.19203   0.04722   0.00000  Uiso   1.00
N413   N     0.64122   0.30860   0.25114   0.00000  Uiso   1.00
N414   N     0.98166   0.19151   0.42367   0.00000  Uiso   1.00
C415   C     0.32503   0.62766   0.74225   0.00000  Uiso   1.00
C416   C     0.36152   0.64244   0.68855   0.00000  Uiso   1.00
C417   C     0.37358   0.60212   0.64421   0.00000  Uiso   1.00
C418   C     0.40778   0.62445   0.59884   0.00000  Uiso   1.00
C419   C     0.46118   0.63821   0.51558   0.00000  Uiso   1.00
C420   C     0.27333   0.67457   0.74475   0.00000  Uiso   1.00
C421   C     0.21123   0.66126   0.74766   0.00000  Uiso   1.00
C422   C     0.17120   0.71064   0.74960   0.00000  Uiso   1.00
C423   C     0.08767   0.77428   0.75363   0.00000  Uiso   1.00
C424   C     0.36716   0.64230   0.79229   0.00000  Uiso   1.00
C425   C     0.38395   0.60186   0.83518   0.00000  Uiso   1.00
C426   C     0.42291   0.62407   0.87716   0.00000  Uiso   1.00
C427   C     0.48507   0.63760   0.95500   0.00000  Uiso   1.00
C428   C     0.36433   0.73903   0.74054   0.00000  Uiso   1.00
C429   C     0.38287   0.70294   0.68762   0.00000  Uiso   1.00
C430   C     0.41707   0.72534   0.64231   0.00000  Uiso   1.00
C431   C     0.42918   0.68505   0.59791   0.00000  Uiso   1.00
C432   C     0.29467   0.73506   0.74381   0.00000  Uiso   1.00
C433   C     0.25472   0.78448   0.74576   0.00000  Uiso   1.00
C434   C     0.19259   0.77124   0.74867   0.00000  Uiso   1.00
C435   C     0.38851   0.70279   0.79135   0.00000  Uiso   1.00
C436   C     0.42744   0.72507   0.83328   0.00000  Uiso   1.00
C437   C     0.44430   0.68467   0.87623   0.00000  Uiso   1.00
H438   H     0.30840   0.58057   0.74298   0.00000  Uiso   1.00
H439   H     0.35704   0.55531   0.64494   0.00000  Uiso   1.00
H440   H     0.19473   0.61444   0.74838   0.00000  Uiso   1.00
H441   H     0.36742   0.55505   0.83589   0.00000  Uiso   1.00
H442   H     0.42037   0.55399   0.53583   0.00000  Uiso   1.00
H443   H     0.07812   0.67867   0.75396   0.00000  Uiso   1.00
H444   H     0.44228   0.55343   0.93848   0.00000  Uiso   1.00
H445   H     0.38095   0.78613   0.73981   0.00000  Uiso   1.00
H446   H     0.43358   0.77215   0.64160   0.00000  Uiso   1.00
H447   H     0.27126   0.83128   0.74504   0.00000  Uiso   1.00
H448   H     0.44396   0.77189   0.83254   0.00000  Uiso   1.00
H449   H     0.48249   0.72999   0.53312   0.00000  Uiso   1.00
H450   H     0.14023   0.85467   0.75125   0.00000  Uiso   1.00
H451   H     0.50439   0.72942   0.93577   0.00000  Uiso   1.00
O452   O     0.48472   0.62909   0.46992   0.00000  Uiso   1.00
O453   O     0.03570   0.79267   0.75610   0.00000  Uiso   1.00
O454   O     0.51347   0.62835   0.99819   0.00000  Uiso   1.00
N455   N     0.42778   0.59733   0.54868   0.00000  Uiso   1.00
N456   N     0.10779   0.71390   0.75260   0.00000  Uiso   1.00
N457   N     0.44824   0.59681   0.92513   0.00000  Uiso   1.00
N458   N     0.46120   0.69203   0.54722   0.00000  Uiso   1.00
N459   N     0.14122   0.80860   0.75114   0.00000  Uiso   1.00
N460   N     0.48166   0.69151   0.92367   0.00000  Uiso   1.00
C461   C     0.67497   0.37234   0.74225   0.00000  Uiso   1.00
C462   C     0.63848   0.35756   0.68855   0.00000  Uiso   1.00
C463   C     0.62642   0.39788   0.64421   0.00000  Uiso   1.00
C464   C     0.59222   0.37555   0.59884   0.00000  Uiso   1.00
C465   C     0.53882   0.36179   0.51558   0.00000  Uiso   1.00
C466   C     0.72667   0.32543   0.74475   0.00000  Uiso   1.00
C467   C     0.78877   0.33874   0.74766   0.00000  Uiso   1.00
C468   C     0.82880   0.28936   0.74960   0.00000  Uiso   1.00
C469   C     0.91233   0.22572   0.75363   0.00000  Uiso   1.00
C470   C     0.63284   0.35770   0.79229   0.00000  Uiso   1.00
C471   C     0.61605   0.39814   0.83518   0.00000  Uiso   1.00
C472   C     0.57709   0.37593   0.87716   0.00000  Uiso   1.00
C473   C     0.51493   0.36240   0.95500   0.00000  Uiso   1.00
C474   C     0.63567   0.26097   0.74054   0.00000  Uiso   1.00
C475   C     0.61713   0.29706   0.68762   0.00000  Uiso   1.00
C476   C     0.58293   0.27466   0.64231   0.00000  Uiso   1.00
C477   C     0.57082   0.31495   0.59791   0.00000  Uiso   1.00
C478   C     0.70533   0.26494   0.74381   0.00000  Uiso   1.00
C479   C     0.74528   0.21552   0.74576   0.00000  Uiso   1.00
C480   C     0.80741   0.22876   0.74867   0.00000  Uiso   1.00
C481   C     0.61149   0.29721   0.79135   0.00000  Uiso   1.00
C482   C     0.57256   0.27493   0.83328   0.00000  Uiso   1.00
C483   C     0.55570   0.31533   0.87623   0.00000  Uiso   1.00
H484   H     0.69160   0.41943   0.74298   0.00000  Uiso   1.00
H485   H     0.64296   0.44469   0.64494   0.00000  Uiso   1.00
H486   H     0.80527   0.38556   0.74838   0.00000  Uiso   1.00
H487   H     0.63258   0.44495   0.83589   0.00000  Uiso   1.00
H488   H     0.57963   0.44601   0.53583   0.00000  Uiso   1.00
H489   H     0.92188   0.32133   0.75396   0.00000  Uiso   1.00
H490   H     0.55772   0.44657   0.93848   0.00000  Uiso   1.00
H491   H     0.61905   0.21387   0.73981   0.00000  Uiso   1.00
H492   H     0.56642   0.22785   0.64160   0.00000  Uiso   1.00
H493   H     0.72874   0.16872   0.74504   0.00000  Uiso   1.00
H494   H     0.55604   0.22811   0.83254   0.00000  Uiso   1.00
H495   H     0.51751   0.27001   0.53312   0.00000  Uiso   1.00
H496   H     0.85977   0.14533   0.75125   0.00000  Uiso   1.00
H497   H     0.49561   0.27058   0.93577   0.00000  Uiso   1.00
O498   O     0.51528   0.37091   0.46992   0.00000  Uiso   1.00
O499   O     0.96430   0.20733   0.75610   0.00000  Uiso   1.00
O500   O     0.48653   0.37165   0.99819   0.00000  Uiso   1.00
N501   N     0.57222   0.40267   0.54868   0.00000  Uiso   1.00
N502   N     0.89221   0.28610   0.75260   0.00000  Uiso   1.00
N503   N     0.55176   0.40319   0.92513   0.00000  Uiso   1.00
N504   N     0.53880   0.30797   0.54722   0.00000  Uiso   1.00
N505   N     0.85878   0.19140   0.75114   0.00000  Uiso   1.00
N506   N     0.51834   0.30849   0.92367   0.00000  Uiso   1.00
C507   C     0.17497   0.87234   0.24225   0.00000  Uiso   1.00
C508   C     0.13848   0.85756   0.18855   0.00000  Uiso   1.00
C509   C     0.12642   0.89788   0.14421   0.00000  Uiso   1.00
C510   C     0.09222   0.87555   0.09884   0.00000  Uiso   1.00
C511   C     0.03882   0.86179   0.01558   0.00000  Uiso   1.00
C512   C     0.22667   0.82543   0.24475   0.00000  Uiso   1.00
C513   C     0.28877   0.83874   0.24766   0.00000  Uiso   1.00
C514   C     0.32880   0.78936   0.24960   0.00000  Uiso   1.00
C515   C     0.41233   0.72572   0.25363   0.00000  Uiso   1.00
C516   C     0.13284   0.85770   0.29229   0.00000  Uiso   1.00
C517   C     0.11605   0.89814   0.33518   0.00000  Uiso   1.00
C518   C     0.07709   0.87593   0.37716   0.00000  Uiso   1.00
C519   C     0.01493   0.86240   0.45500   0.00000  Uiso   1.00
C520   C     0.13567   0.76097   0.24054   0.00000  Uiso   1.00
C521   C     0.11713   0.79706   0.18762   0.00000  Uiso   1.00
C522   C     0.08293   0.77466   0.14231   0.00000  Uiso   1.00
C523   C     0.07082   0.81495   0.09791   0.00000  Uiso   1.00
C524   C     0.20533   0.76494   0.24381   0.00000  Uiso   1.00
C525   C     0.24528   0.71552   0.24576   0.00000  Uiso   1.00
C526   C     0.30741   0.72876   0.24867   0.00000  Uiso   1.00
C527   C     0.11149   0.79721   0.29135   0.00000  Uiso   1.00
C528   C     0.07256   0.77493   0.33328   0.00000  Uiso   1.00
C529   C     0.05570   0.81533   0.37623   0.00000  Uiso   1.00
H530   H     0.19160   0.91943   0.24298   0.00000  Uiso   1.00
H531   H     0.14296   0.94469   0.14494   0.00000  Uiso   1.00
H532   H     0.30527   0.88556   0.24838   0.00000  Uiso   1.00
H533   H     0.13258   0.94495   0.33589   0.00000  Uiso   1.00
H534   H     0.07963   0.94601   0.03583   0.00000  Uiso   1.00
H535   H     0.42188   0.82133   0.25396   0.00000  Uiso   1.00
H536   H     0.05772   0.94657   0.43848   0.00000  Uiso   1.00
H537   H     0.11905   0.71387   0.23981   0.00000  Uiso   1.00
H538   H     0.06642   0.72785   0.14160   0.00000  Uiso   1.00
H539   H     0.22874   0.66872   0.24504   0.00000  Uiso   1.00
H540   H     0.05604   0.72811   0.33254   0.00000  Uiso   1.00
H541   H     0.01751   0.77001   0.03312   0.00000  Uiso   1.00
H542   H     0.35977   0.64533   0.25125   0.00000  Uiso   1.00
H543   H     0.99561   0.77058   0.43577   0.00000  Uiso   1.00
O544   O     0.01528   0.87091   0.96992   0.00000  Uiso   1.00
O545   O     0.46430   0.70733   0.25610   0.00000  Uiso   1.00
O546   O     0.98653   0.87165   0.49819   0.00000  Uiso   1.00
N547   N     0.07222   0.90267   0.04868   0.00000  Uiso   1.00
N548   N     0.39221   0.78610   0.25260   0.00000  Uiso   1.00
N549   N     0.05176   0.90319   0.42513   0.00000  Uiso   1.00
N550   N     0.03880   0.80797   0.04722   0.00000  Uiso   1.00
N551   N     0.35878   0.69140   0.25114   0.00000  Uiso   1.00
N552   N     0.01834   0.80849   0.42367   0.00000  Uiso   1.00
C553   C     0.37234   0.82503   0.99225   0.00000  Uiso   1.00
C554   C     0.35756   0.86152   0.93855   0.00000  Uiso   1.00
C555   C     0.39788   0.87358   0.89421   0.00000  Uiso   1.00
C556   C     0.37555   0.90778   0.84884   0.00000  Uiso   1.00
C557   C     0.36179   0.96118   0.76558   0.00000  Uiso   1.00
C558   C     0.32543   0.77333   0.99475   0.00000  Uiso   1.00
C559   C     0.33874   0.71123   0.99766   0.00000  Uiso   1.00
C560   C     0.28936   0.67120   0.99960   0.00000  Uiso   1.00
C561   C     0.22572   0.58767   0.00363   0.00000  Uiso   1.00
C562   C     0.35770   0.86716   0.04229   0.00000  Uiso   1.00
C563   C     0.39814   0.88395   0.08518   0.00000  Uiso   1.00
C564   C     0.37593   0.92291   0.12716   0.00000  Uiso   1.00
C565   C     0.36240   0.98507   0.20500   0.00000  Uiso   1.00
C566   C     0.26097   0.86433   0.99054   0.00000  Uiso   1.00
C567   C     0.29706   0.88287   0.93762   0.00000  Uiso   1.00
C568   C     0.27466   0.91707   0.89231   0.00000  Uiso   1.00
C569   C     0.31495   0.92918   0.84791   0.00000  Uiso   1.00
C570   C     0.26494   0.79467   0.99381   0.00000  Uiso   1.00
C571   C     0.21552   0.75472   0.99576   0.00000  Uiso   1.00
C572   C     0.22876   0.69259   0.99867   0.00000  Uiso   1.00
C573   C     0.29721   0.88851   0.04135   0.00000  Uiso   1.00
C574   C     0.27493   0.92744   0.08328   0.00000  Uiso   1.00
C575   C     0.31533   0.94430   0.12623   0.00000  Uiso   1.00
H576   H     0.41943   0.80840   0.99298   0.00000  Uiso   1.00
H577   H     0.44469   0.85704   0.89494   0.00000  Uiso   1.00
H578   H     0.38556   0.69473   0.99838   0.00000  Uiso   1.00
H579   H     0.44495   0.86742   0.08589   0.00000  Uiso   1.00
H580   H     0.44601   0.92037   0.78583   0.00000  Uiso   1.00
H581   H     0.32133   0.57812   0.00396   0.00000  Uiso   1.00
H582   H     0.44657   0.94228   0.18848   0.00000  Uiso   1.00
H583   H     0.21387   0.88095   0.98981   0.00000  Uiso   1.00
H584   H     0.22785   0.93358   0.89160   0.00000  Uiso   1.00
H585   H     0.16872   0.77126   0.99504   0.00000  Uiso   1.00
H586   H     0.22811   0.94396   0.08254   0.00000  Uiso   1.00
H587   H     0.27001   0.98249   0.78312   0.00000  Uiso   1.00
H588   H     0.14533   0.64023   0.00125   0.00000  Uiso   1.00
H589   H     0.27058   0.00439   0.18577   0.00000  Uiso   1.00
O590   O     0.37091   0.98472   0.71992   0.00000  Uiso   1.00
O591   O     0.20733   0.53570   0.00610   0.00000  Uiso   1.00
O592   O     0.37165   0.01347   0.24819   0.00000  Uiso   1.00
N593   N     0.40267   0.92778   0.79868   0.00000  Uiso   1.00
N594   N     0.28610   0.60779   0.00260   0.00000  Uiso   1.00
N595   N     0.40319   0.94824   0.17513   0.00000  Uiso   1.00
N596   N     0.30797   0.96120   0.79722   0.00000  Uiso   1.00
N597   N     0.19140   0.64122   0.00114   0.00000  Uiso   1.00
N598   N     0.30849   0.98166   0.17367   0.00000  Uiso   1.00
C599   C     0.87234   0.32503   0.49225   0.00000  Uiso   1.00
C600   C     0.85756   0.36152   0.43855   0.00000  Uiso   1.00
C601   C     0.89788   0.37358   0.39421   0.00000  Uiso   1.00
C602   C     0.87555   0.40778   0.34884   0.00000  Uiso   1.00
C603   C     0.86179   0.46118   0.26558   0.00000  Uiso   1.00
C604   C     0.82543   0.27333   0.49475   0.00000  Uiso   1.00
C605   C     0.83874   0.21123   0.49766   0.00000  Uiso   1.00
C606   C     0.78936   0.17120   0.49960   0.00000  Uiso   1.00
C607   C     0.72572   0.08767   0.50363   0.00000  Uiso   1.00
C608   C     0.85770   0.36716   0.54229   0.00000  Uiso   1.00
C609   C     0.89814   0.38395   0.58518   0.00000  Uiso   1.00
C610   C     0.87593   0.42291   0.62716   0.00000  Uiso   1.00
C611   C     0.86240   0.48507   0.70500   0.00000  Uiso   1.00
C612   C     0.76097   0.36433   0.49054   0.00000  Uiso   1.00
C613   C     0.79706   0.38287   0.43762   0.00000  Uiso   1.00
C614   C     0.77466   0.41707   0.39231   0.00000  Uiso   1.00
C615   C     0.81495   0.42918   0.34791   0.00000  Uiso   1.00
C616   C     0.76494   0.29467   0.49381   0.00000  Uiso   1.00
C617   C     0.71552   0.25472   0.49576   0.00000  Uiso   1.00
C618   C     0.72876   0.19259   0.49867   0.00000  Uiso   1.00
C619   C     0.79721   0.38851   0.54135   0.00000  Uiso   1.00
C620   C     0.77493   0.42744   0.58328   0.00000  Uiso   1.00
C621   C     0.81533   0.44430   0.62623   0.00000  Uiso   1.00
H622   H     0.91943   0.30840   0.49298   0.00000  Uiso   1.00
H623   H     0.94469   0.35704   0.39494   0.00000  Uiso   1.00
H624   H     0.88556   0.19473   0.49838   0.00000  Uiso   1.00
H625   H     0.94495   0.36742   0.58589   0.00000  Uiso   1.00
H626   H     0.94601   0.42037   0.28583   0.00000  Uiso   1.00
H627   H     0.82133   0.07812   0.50396   0.00000  Uiso   1.00
H628   H     0.94657   0.44228   0.68848   0.00000  Uiso   1.00
H629   H     0.71387   0.38095   0.48981   0.00000  Uiso   1.00
H630   H     0.72785   0.43358   0.39160   0.00000  Uiso   1.00
H631   H     0.66872   0.27126   0.49504   0.00000  Uiso   1.00
H632   H     0.72811   0.44396   0.58254   0.00000  Uiso   1.00
H633   H     0.77001   0.48249   0.28312   0.00000  Uiso   1.00
H634   H     0.64533   0.14023   0.50125   0.00000  Uiso   1.00
H635   H     0.77058   0.50439   0.68577   0.00000  Uiso   1.00
O636   O     0.87091   0.48472   0.21992   0.00000  Uiso   1.00
O637   O     0.70733   0.03570   0.50610   0.00000  Uiso   1.00
O638   O     0.87165   0.51347   0.74819   0.00000  Uiso   1.00
N639   N     0.90267   0.42778   0.29868   0.00000  Uiso   1.00
N640   N     0.78610   0.10779   0.50260   0.00000  Uiso   1.00
N641   N     0.90319   0.44824   0.67513   0.00000  Uiso   1.00
N642   N     0.80797   0.46120   0.29722   0.00000  Uiso   1.00
N643   N     0.69140   0.14122   0.50114   0.00000  Uiso   1.00
N644   N     0.80849   0.48166   0.67367   0.00000  Uiso   1.00
C645   C     0.12766   0.67497   0.49225   0.00000  Uiso   1.00
C646   C     0.14244   0.63848   0.43855   0.00000  Uiso   1.00
C647   C     0.10212   0.62642   0.39421   0.00000  Uiso   1.00
C648   C     0.12445   0.59222   0.34884   0.00000  Uiso   1.00
C649   C     0.13821   0.53882   0.26558   0.00000  Uiso   1.00
C650   C     0.17457   0.72667   0.49475   0.00000  Uiso   1.00
C651   C     0.16126   0.78877   0.49766   0.00000  Uiso   1.00
C652   C     0.21064   0.82880   0.49960   0.00000  Uiso   1.00
C653   C     0.27428   0.91233   0.50363   0.00000  Uiso   1.00
C654   C     0.14230   0.63284   0.54229   0.00000  Uiso   1.00
C655   C     0.10186   0.61605   0.58518   0.00000  Uiso   1.00
C656   C     0.12407   0.57709   0.62716   0.00000  Uiso   1.00
C657   C     0.13760   0.51493   0.70500   0.00000  Uiso   1.00
C658   C     0.23903   0.63567   0.49054   0.00000  Uiso   1.00
C659   C     0.20294   0.61713   0.43762   0.00000  Uiso   1.00
C660   C     0.22534   0.58293   0.39231   0.00000  Uiso   1.00
C661   C     0.18505   0.57082   0.34791   0.00000  Uiso   1.00
C662   C     0.23506   0.70533   0.49381   0.00000  Uiso   1.00
C663   C     0.28448   0.74528   0.49576   0.00000  Uiso   1.00
C664   C     0.27124   0.80741   0.49867   0.00000  Uiso   1.00
C665   C     0.20279   0.61149   0.54135   0.00000  Uiso   1.00
C666   C     0.22507   0.57256   0.58328   0.00000  Uiso   1.00
C667   C     0.18467   0.55570   0.62623   0.00000  Uiso   1.00
H668   H     0.08057   0.69160   0.49298   0.00000  Uiso   1.00
H669   H     0.05531   0.64296   0.39494   0.00000  Uiso   1.00
H670   H     0.11444   0.80527   0.49838   0.00000  Uiso   1.00
H671   H     0.05505   0.63258   0.58589   0.00000  Uiso   1.00
H672   H     0.05399   0.57963   0.28583   0.00000  Uiso   1.00
H673   H     0.17867   0.92188   0.50396   0.00000  Uiso   1.00
H674   H     0.05343   0.55772   0.68848   0.00000  Uiso   1.00
H675   H     0.28613   0.61905   0.48981   0.00000  Uiso   1.00
H676   H     0.27215   0.56642   0.39160   0.00000  Uiso   1.00
H677   H     0.33128   0.72874   0.49504   0.00000  Uiso   1.00
H678   H     0.27189   0.55604   0.58254   0.00000  Uiso   1.00
H679   H     0.22999   0.51751   0.28312   0.00000  Uiso   1.00
H680   H     0.35467   0.85977   0.50125   0.00000  Uiso   1.00
H681   H     0.22942   0.49561   0.68577   0.00000  Uiso   1.00
O682   O     0.12909   0.51528   0.21992   0.00000  Uiso   1.00
O683   O     0.29267   0.96430   0.50610   0.00000  Uiso   1.00
O684   O     0.12835   0.48653   0.74819   0.00000  Uiso   1.00
N685   N     0.09733   0.57222   0.29868   0.00000  Uiso   1.00
N686   N     0.21390   0.89221   0.50260   0.00000  Uiso   1.00
N687   N     0.09681   0.55176   0.67513   0.00000  Uiso   1.00
N688   N     0.19203   0.53880   0.29722   0.00000  Uiso   1.00
N689   N     0.30860   0.85878   0.50114   0.00000  Uiso   1.00
N690   N     0.19151   0.51834   0.67367   0.00000  Uiso   1.00
C691   C     0.62766   0.17497   0.99225   0.00000  Uiso   1.00
C692   C     0.64244   0.13848   0.93855   0.00000  Uiso   1.00
C693   C     0.60212   0.12642   0.89421   0.00000  Uiso   1.00
C694   C     0.62445   0.09222   0.84884   0.00000  Uiso   1.00
C695   C     0.63821   0.03882   0.76558   0.00000  Uiso   1.00
C696   C     0.67457   0.22667   0.99475   0.00000  Uiso   1.00
C697   C     0.66126   0.28877   0.99766   0.00000  Uiso   1.00
C698   C     0.71064   0.32880   0.99960   0.00000  Uiso   1.00
C699   C     0.77428   0.41233   0.00363   0.00000  Uiso   1.00
C700   C     0.64230   0.13284   0.04229   0.00000  Uiso   1.00
C701   C     0.60186   0.11605   0.08518   0.00000  Uiso   1.00
C702   C     0.62407   0.07709   0.12716   0.00000  Uiso   1.00
C703   C     0.63760   0.01493   0.20500   0.00000  Uiso   1.00
C704   C     0.73903   0.13567   0.99054   0.00000  Uiso   1.00
C705   C     0.70294   0.11713   0.93762   0.00000  Uiso   1.00
C706   C     0.72534   0.08293   0.89231   0.00000  Uiso   1.00
C707   C     0.68505   0.07082   0.84791   0.00000  Uiso   1.00
C708   C     0.73506   0.20533   0.99381   0.00000  Uiso   1.00
C709   C     0.78448   0.24528   0.99576   0.00000  Uiso   1.00
C710   C     0.77124   0.30741   0.99867   0.00000  Uiso   1.00
C711   C     0.70279   0.11149   0.04135   0.00000  Uiso   1.00
C712   C     0.72507   0.07256   0.08328   0.00000  Uiso   1.00
C713   C     0.68467   0.05570   0.12623   0.00000  Uiso   1.00
H714   H     0.58057   0.19160   0.99298   0.00000  Uiso   1.00
H715   H     0.55531   0.14296   0.89494   0.00000  Uiso   1.00
H716   H     0.61444   0.30527   0.99838   0.00000  Uiso   1.00
H717   H     0.55505   0.13258   0.08589   0.00000  Uiso   1.00
H718   H     0.55399   0.07963   0.78583   0.00000  Uiso   1.00
H719   H     0.67867   0.42188   0.00396   0.00000  Uiso   1.00
H720   H     0.55343   0.05772   0.18848   0.00000  Uiso   1.00
H721   H     0.78613   0.11905   0.98981   0.00000  Uiso   1.00
H722   H     0.77215   0.06642   0.89160   0.00000  Uiso   1.00
H723   H     0.83128   0.22874   0.99504   0.00000  Uiso   1.00
H724   H     0.77189   0.05604   0.08254   0.00000  Uiso   1.00
H725   H     0.72999   0.01751   0.78312   0.00000  Uiso   1.00
H726   H     0.85467   0.35977   0.00125   0.00000  Uiso   1.00
H727   H     0.72942   0.99561   0.18577   0.00000  Uiso   1.00
O728   O     0.62909   0.01528   0.71992   0.00000  Uiso   1.00
O729   O     0.79267   0.46430   0.00610   0.00000  Uiso   1.00
O730   O     0.62835   0.98653   0.24819   0.00000  Uiso   1.00
N731   N     0.59733   0.07222   0.79868   0.00000  Uiso   1.00
N732   N     0.71390   0.39221   0.00260   0.00000  Uiso   1.00
N733   N     0.59681   0.05176   0.17513   0.00000  Uiso   1.00
N734   N     0.69203   0.03880   0.79722   0.00000  Uiso   1.00
N735   N     0.80860   0.35878   0.00114   0.00000  Uiso   1.00
N736   N     0.69151   0.01834   0.17367   0.00000  Uiso   1.00
