data_job_02044
_audit_creation_date              2018-12-19
_audit_creation_method            'Materials Studio'
_symmetry_space_group_name_H-M    'P1'
_symmetry_Int_Tables_number       1
_symmetry_cell_setting            triclinic
loop_
_symmetry_equiv_pos_as_xyz
  x,y,z
_cell_length_a                    37.0509
_cell_length_b                    23.2681
_cell_length_c                    14.5409
_cell_angle_alpha                 90.0000
_cell_angle_beta                  90.0000
_cell_angle_gamma                 90.0000
loop_
_atom_site_label
_atom_site_type_symbol
_atom_site_fract_x
_atom_site_fract_y
_atom_site_fract_z
_atom_site_U_iso_or_equiv
_atom_site_adp_type
_atom_site_occupancy
C1     C     0.39257   0.09169   0.86913   0.00000  Uiso   1.00
C2     C     0.37598   0.03805   0.82619   0.00000  Uiso   1.00
C3     C     0.38189   0.98192   0.85475   0.00000  Uiso   1.00
C4     C     0.36420   0.93883   0.80647   0.00000  Uiso   1.00
C5     C     0.34191   0.85362   0.75105   0.00000  Uiso   1.00
C6     C     0.41203   0.12286   0.79134   0.00000  Uiso   1.00
C7     C     0.44825   0.13805   0.79060   0.00000  Uiso   1.00
C8     C     0.46091   0.16636   0.71298   0.00000  Uiso   1.00
C9     C     0.49459   0.21286   0.60349   0.00000  Uiso   1.00
C10    C     0.36098   0.13010   0.89629   0.00000  Uiso   1.00
C11    C     0.35428   0.15140   0.98379   0.00000  Uiso   1.00
C12    C     0.32396   0.18582   0.99453   0.00000  Uiso   1.00
C13    C     0.27837   0.24357   0.04798   0.00000  Uiso   1.00
C14    C     0.35065   0.11497   0.73260   0.00000  Uiso   1.00
C15    C     0.35321   0.05070   0.75203   0.00000  Uiso   1.00
C16    C     0.33550   0.00768   0.70369   0.00000  Uiso   1.00
C17    C     0.34138   0.95150   0.73218   0.00000  Uiso   1.00
C18    C     0.38926   0.13551   0.71718   0.00000  Uiso   1.00
C19    C     0.40187   0.16381   0.63955   0.00000  Uiso   1.00
C20    C     0.43810   0.17903   0.63869   0.00000  Uiso   1.00
C21    C     0.33820   0.14275   0.82213   0.00000  Uiso   1.00
C22    C     0.30789   0.17715   0.83273   0.00000  Uiso   1.00
C23    C     0.30115   0.19849   0.92023   0.00000  Uiso   1.00
H24    H     0.41030   0.08184   0.92686   0.00000  Uiso   1.00
H25    H     0.39951   0.97215   0.91214   0.00000  Uiso   1.00
H26    H     0.46587   0.12826   0.84800   0.00000  Uiso   1.00
H27    H     0.37191   0.14161   0.04116   0.00000  Uiso   1.00
H28    H     0.37752   0.85612   0.86309   0.00000  Uiso   1.00
H29    H     0.51743   0.18529   0.72788   0.00000  Uiso   1.00
H30    H     0.31930   0.21344   0.13518   0.00000  Uiso   1.00
H31    H     0.33292   0.12481   0.67486   0.00000  Uiso   1.00
H32    H     0.31788   0.01748   0.64631   0.00000  Uiso   1.00
H33    H     0.38424   0.17359   0.58218   0.00000  Uiso   1.00
H34    H     0.29028   0.18693   0.77533   0.00000  Uiso   1.00
H35    H     0.31127   0.89291   0.64733   0.00000  Uiso   1.00
H36    H     0.45118   0.22209   0.51212   0.00000  Uiso   1.00
H37    H     0.25304   0.25023   0.91942   0.00000  Uiso   1.00
O38    O     0.33591   0.80313   0.74095   0.00000  Uiso   1.00
O39    O     0.51946   0.23500   0.56357   0.00000  Uiso   1.00
O40    O     0.25951   0.27192   0.09795   0.00000  Uiso   1.00
N41    N     0.36399   0.87951   0.81624   0.00000  Uiso   1.00
N42    N     0.49479   0.18726   0.68982   0.00000  Uiso   1.00
N43    N     0.30956   0.21358   0.07061   0.00000  Uiso   1.00
N44    N     0.32834   0.89930   0.70014   0.00000  Uiso   1.00
N45    N     0.45914   0.20705   0.57372   0.00000  Uiso   1.00
N46    N     0.27391   0.23338   0.95451   0.00000  Uiso   1.00
C47    C     0.43271   0.39351   0.61146   0.00000  Uiso   1.00
C48    C     0.41830   0.44841   0.65539   0.00000  Uiso   1.00
C49    C     0.42555   0.50398   0.62609   0.00000  Uiso   1.00
C50    C     0.40979   0.54844   0.67550   0.00000  Uiso   1.00
C51    C     0.39079   0.63533   0.73219   0.00000  Uiso   1.00
C52    C     0.45214   0.36096   0.68785   0.00000  Uiso   1.00
C53    C     0.48785   0.34300   0.68583   0.00000  Uiso   1.00
C54    C     0.50057   0.31384   0.76257   0.00000  Uiso   1.00
C55    C     0.53412   0.26493   0.86962   0.00000  Uiso   1.00
C56    C     0.39968   0.35754   0.58700   0.00000  Uiso   1.00
C57    C     0.39128   0.33668   0.50018   0.00000  Uiso   1.00
C58    C     0.35984   0.30462   0.49201   0.00000  Uiso   1.00
C59    C     0.31193   0.25039   0.44247   0.00000  Uiso   1.00
C60    C     0.39181   0.37364   0.75134   0.00000  Uiso   1.00
C61    C     0.39608   0.43762   0.73137   0.00000  Uiso   1.00
C62    C     0.38030   0.48200   0.78085   0.00000  Uiso   1.00
C63    C     0.38753   0.53763   0.75161   0.00000  Uiso   1.00
C64    C     0.42992   0.35017   0.76383   0.00000  Uiso   1.00
C65    C     0.44260   0.32102   0.84059   0.00000  Uiso   1.00
C66    C     0.47832   0.30303   0.83868   0.00000  Uiso   1.00
C67    C     0.37746   0.34675   0.66298   0.00000  Uiso   1.00
C68    C     0.34603   0.31471   0.65494   0.00000  Uiso   1.00
C69    C     0.33758   0.29381   0.56812   0.00000  Uiso   1.00
H70    H     0.45001   0.40191   0.55231   0.00000  Uiso   1.00
H71    H     0.44275   0.51232   0.56729   0.00000  Uiso   1.00
H72    H     0.50504   0.35135   0.62702   0.00000  Uiso   1.00
H73    H     0.40848   0.34504   0.44140   0.00000  Uiso   1.00
H74    H     0.42491   0.62997   0.61742   0.00000  Uiso   1.00
H75    H     0.55624   0.29056   0.74335   0.00000  Uiso   1.00
H76    H     0.35264   0.27724   0.35193   0.00000  Uiso   1.00
H77    H     0.37451   0.36524   0.81050   0.00000  Uiso   1.00
H78    H     0.36310   0.47364   0.83964   0.00000  Uiso   1.00
H79    H     0.42539   0.31268   0.89937   0.00000  Uiso   1.00
H80    H     0.32884   0.30636   0.71375   0.00000  Uiso   1.00
H81    H     0.36027   0.59857   0.83847   0.00000  Uiso   1.00
H82    H     0.49160   0.25916   0.96440   0.00000  Uiso   1.00
H83    H     0.28800   0.24584   0.57299   0.00000  Uiso   1.00
O84    O     0.38646   0.68624   0.74248   0.00000  Uiso   1.00
O85    O     0.55876   0.24094   0.90768   0.00000  Uiso   1.00
O86    O     0.29164   0.22347   0.39416   0.00000  Uiso   1.00
N87    N     0.41126   0.60770   0.66543   0.00000  Uiso   1.00
N88    N     0.53405   0.29038   0.78317   0.00000  Uiso   1.00
N89    N     0.34370   0.27792   0.41724   0.00000  Uiso   1.00
N90    N     0.37647   0.59081   0.78438   0.00000  Uiso   1.00
N91    N     0.49926   0.27349   0.90212   0.00000  Uiso   1.00
N92    N     0.30892   0.26102   0.53619   0.00000  Uiso   1.00
C93    C     0.89257   0.59169   0.36913   0.00000  Uiso   1.00
C94    C     0.87598   0.53805   0.32619   0.00000  Uiso   1.00
C95    C     0.88189   0.48192   0.35475   0.00000  Uiso   1.00
C96    C     0.86420   0.43883   0.30647   0.00000  Uiso   1.00
C97    C     0.84191   0.35362   0.25105   0.00000  Uiso   1.00
C98    C     0.91203   0.62286   0.29134   0.00000  Uiso   1.00
C99    C     0.94825   0.63805   0.29060   0.00000  Uiso   1.00
C100   C     0.96091   0.66636   0.21298   0.00000  Uiso   1.00
C101   C     0.99459   0.71286   0.10349   0.00000  Uiso   1.00
C102   C     0.86098   0.63010   0.39629   0.00000  Uiso   1.00
C103   C     0.85428   0.65140   0.48379   0.00000  Uiso   1.00
C104   C     0.82396   0.68582   0.49453   0.00000  Uiso   1.00
C105   C     0.77837   0.74357   0.54798   0.00000  Uiso   1.00
C106   C     0.85065   0.61497   0.23260   0.00000  Uiso   1.00
C107   C     0.85321   0.55070   0.25203   0.00000  Uiso   1.00
C108   C     0.83550   0.50768   0.20369   0.00000  Uiso   1.00
C109   C     0.84138   0.45150   0.23218   0.00000  Uiso   1.00
C110   C     0.88926   0.63551   0.21718   0.00000  Uiso   1.00
C111   C     0.90187   0.66381   0.13955   0.00000  Uiso   1.00
C112   C     0.93810   0.67903   0.13869   0.00000  Uiso   1.00
C113   C     0.83820   0.64275   0.32213   0.00000  Uiso   1.00
C114   C     0.80789   0.67715   0.33273   0.00000  Uiso   1.00
C115   C     0.80115   0.69849   0.42023   0.00000  Uiso   1.00
H116   H     0.91030   0.58184   0.42686   0.00000  Uiso   1.00
H117   H     0.89951   0.47215   0.41214   0.00000  Uiso   1.00
H118   H     0.96587   0.62826   0.34800   0.00000  Uiso   1.00
H119   H     0.87191   0.64161   0.54116   0.00000  Uiso   1.00
H120   H     0.87752   0.35612   0.36309   0.00000  Uiso   1.00
H121   H     0.01743   0.68529   0.22788   0.00000  Uiso   1.00
H122   H     0.81930   0.71344   0.63518   0.00000  Uiso   1.00
H123   H     0.83292   0.62481   0.17486   0.00000  Uiso   1.00
H124   H     0.81788   0.51748   0.14631   0.00000  Uiso   1.00
H125   H     0.88424   0.67359   0.08218   0.00000  Uiso   1.00
H126   H     0.79028   0.68693   0.27533   0.00000  Uiso   1.00
H127   H     0.81127   0.39291   0.14733   0.00000  Uiso   1.00
H128   H     0.95118   0.72209   0.01212   0.00000  Uiso   1.00
H129   H     0.75304   0.75023   0.41942   0.00000  Uiso   1.00
O130   O     0.83591   0.30313   0.24095   0.00000  Uiso   1.00
O131   O     0.01946   0.73500   0.06357   0.00000  Uiso   1.00
O132   O     0.75951   0.77192   0.59795   0.00000  Uiso   1.00
N133   N     0.86399   0.37951   0.31624   0.00000  Uiso   1.00
N134   N     0.99479   0.68726   0.18982   0.00000  Uiso   1.00
N135   N     0.80956   0.71358   0.57061   0.00000  Uiso   1.00
N136   N     0.82834   0.39930   0.20014   0.00000  Uiso   1.00
N137   N     0.95914   0.70705   0.07372   0.00000  Uiso   1.00
N138   N     0.77391   0.73338   0.45451   0.00000  Uiso   1.00
C139   C     0.93271   0.89351   0.11146   0.00000  Uiso   1.00
C140   C     0.91830   0.94841   0.15539   0.00000  Uiso   1.00
C141   C     0.92555   0.00398   0.12609   0.00000  Uiso   1.00
C142   C     0.90979   0.04844   0.17550   0.00000  Uiso   1.00
C143   C     0.89079   0.13533   0.23219   0.00000  Uiso   1.00
C144   C     0.95214   0.86096   0.18785   0.00000  Uiso   1.00
C145   C     0.98785   0.84300   0.18583   0.00000  Uiso   1.00
C146   C     0.00057   0.81384   0.26257   0.00000  Uiso   1.00
C147   C     0.03412   0.76493   0.36962   0.00000  Uiso   1.00
C148   C     0.89968   0.85754   0.08700   0.00000  Uiso   1.00
C149   C     0.89128   0.83668   0.00018   0.00000  Uiso   1.00
C150   C     0.85984   0.80462   0.99201   0.00000  Uiso   1.00
C151   C     0.81193   0.75039   0.94247   0.00000  Uiso   1.00
C152   C     0.89181   0.87364   0.25134   0.00000  Uiso   1.00
C153   C     0.89608   0.93762   0.23137   0.00000  Uiso   1.00
C154   C     0.88030   0.98200   0.28085   0.00000  Uiso   1.00
C155   C     0.88753   0.03763   0.25161   0.00000  Uiso   1.00
C156   C     0.92992   0.85017   0.26383   0.00000  Uiso   1.00
C157   C     0.94260   0.82102   0.34059   0.00000  Uiso   1.00
C158   C     0.97832   0.80303   0.33868   0.00000  Uiso   1.00
C159   C     0.87746   0.84675   0.16298   0.00000  Uiso   1.00
C160   C     0.84603   0.81471   0.15494   0.00000  Uiso   1.00
C161   C     0.83758   0.79381   0.06812   0.00000  Uiso   1.00
H162   H     0.95001   0.90191   0.05231   0.00000  Uiso   1.00
H163   H     0.94275   0.01232   0.06729   0.00000  Uiso   1.00
H164   H     0.00504   0.85135   0.12702   0.00000  Uiso   1.00
H165   H     0.90848   0.84504   0.94140   0.00000  Uiso   1.00
H166   H     0.92491   0.12997   0.11742   0.00000  Uiso   1.00
H167   H     0.05624   0.79056   0.24335   0.00000  Uiso   1.00
H168   H     0.85264   0.77724   0.85193   0.00000  Uiso   1.00
H169   H     0.87451   0.86524   0.31050   0.00000  Uiso   1.00
H170   H     0.86310   0.97364   0.33964   0.00000  Uiso   1.00
H171   H     0.92539   0.81268   0.39937   0.00000  Uiso   1.00
H172   H     0.82884   0.80636   0.21375   0.00000  Uiso   1.00
H173   H     0.86027   0.09857   0.33847   0.00000  Uiso   1.00
H174   H     0.99160   0.75916   0.46440   0.00000  Uiso   1.00
H175   H     0.78800   0.74584   0.07299   0.00000  Uiso   1.00
O176   O     0.88646   0.18624   0.24248   0.00000  Uiso   1.00
O177   O     0.05876   0.74094   0.40768   0.00000  Uiso   1.00
O178   O     0.79164   0.72347   0.89416   0.00000  Uiso   1.00
N179   N     0.91126   0.10770   0.16543   0.00000  Uiso   1.00
N180   N     0.03405   0.79038   0.28317   0.00000  Uiso   1.00
N181   N     0.84370   0.77792   0.91724   0.00000  Uiso   1.00
N182   N     0.87647   0.09081   0.28438   0.00000  Uiso   1.00
N183   N     0.99926   0.77349   0.40212   0.00000  Uiso   1.00
N184   N     0.80892   0.76102   0.03619   0.00000  Uiso   1.00
C185   C     0.60743   0.90831   0.86913   0.00000  Uiso   1.00
C186   C     0.62402   0.96195   0.82619   0.00000  Uiso   1.00
C187   C     0.61811   0.01808   0.85475   0.00000  Uiso   1.00
C188   C     0.63580   0.06117   0.80647   0.00000  Uiso   1.00
C189   C     0.65809   0.14638   0.75105   0.00000  Uiso   1.00
C190   C     0.58797   0.87714   0.79134   0.00000  Uiso   1.00
C191   C     0.55175   0.86195   0.79060   0.00000  Uiso   1.00
C192   C     0.53909   0.83364   0.71298   0.00000  Uiso   1.00
C193   C     0.50541   0.78714   0.60349   0.00000  Uiso   1.00
C194   C     0.63902   0.86990   0.89629   0.00000  Uiso   1.00
C195   C     0.64572   0.84860   0.98379   0.00000  Uiso   1.00
C196   C     0.67604   0.81418   0.99453   0.00000  Uiso   1.00
C197   C     0.72163   0.75643   0.04798   0.00000  Uiso   1.00
C198   C     0.64935   0.88503   0.73260   0.00000  Uiso   1.00
C199   C     0.64679   0.94930   0.75203   0.00000  Uiso   1.00
C200   C     0.66450   0.99232   0.70369   0.00000  Uiso   1.00
C201   C     0.65862   0.04850   0.73218   0.00000  Uiso   1.00
C202   C     0.61074   0.86449   0.71718   0.00000  Uiso   1.00
C203   C     0.59813   0.83619   0.63955   0.00000  Uiso   1.00
C204   C     0.56190   0.82097   0.63869   0.00000  Uiso   1.00
C205   C     0.66180   0.85725   0.82213   0.00000  Uiso   1.00
C206   C     0.69211   0.82285   0.83273   0.00000  Uiso   1.00
C207   C     0.69885   0.80151   0.92023   0.00000  Uiso   1.00
H208   H     0.58970   0.91816   0.92686   0.00000  Uiso   1.00
H209   H     0.60049   0.02785   0.91214   0.00000  Uiso   1.00
H210   H     0.53413   0.87174   0.84800   0.00000  Uiso   1.00
H211   H     0.62809   0.85839   0.04116   0.00000  Uiso   1.00
H212   H     0.62248   0.14388   0.86309   0.00000  Uiso   1.00
H213   H     0.48257   0.81471   0.72788   0.00000  Uiso   1.00
H214   H     0.68070   0.78656   0.13518   0.00000  Uiso   1.00
H215   H     0.66708   0.87519   0.67486   0.00000  Uiso   1.00
H216   H     0.68212   0.98252   0.64631   0.00000  Uiso   1.00
H217   H     0.61576   0.82641   0.58218   0.00000  Uiso   1.00
H218   H     0.70972   0.81307   0.77533   0.00000  Uiso   1.00
H219   H     0.68873   0.10709   0.64733   0.00000  Uiso   1.00
H220   H     0.54882   0.77791   0.51212   0.00000  Uiso   1.00
H221   H     0.74696   0.74977   0.91942   0.00000  Uiso   1.00
O222   O     0.66409   0.19687   0.74095   0.00000  Uiso   1.00
O223   O     0.48054   0.76500   0.56357   0.00000  Uiso   1.00
O224   O     0.74049   0.72808   0.09795   0.00000  Uiso   1.00
N225   N     0.63601   0.12049   0.81624   0.00000  Uiso   1.00
N226   N     0.50521   0.81274   0.68982   0.00000  Uiso   1.00
N227   N     0.69044   0.78642   0.07061   0.00000  Uiso   1.00
N228   N     0.67166   0.10070   0.70014   0.00000  Uiso   1.00
N229   N     0.54086   0.79295   0.57372   0.00000  Uiso   1.00
N230   N     0.72609   0.76662   0.95451   0.00000  Uiso   1.00
C231   C     0.56729   0.60649   0.61146   0.00000  Uiso   1.00
C232   C     0.58170   0.55159   0.65539   0.00000  Uiso   1.00
C233   C     0.57445   0.49602   0.62609   0.00000  Uiso   1.00
C234   C     0.59021   0.45156   0.67550   0.00000  Uiso   1.00
C235   C     0.60921   0.36467   0.73219   0.00000  Uiso   1.00
C236   C     0.54786   0.63904   0.68785   0.00000  Uiso   1.00
C237   C     0.51215   0.65700   0.68583   0.00000  Uiso   1.00
C238   C     0.49943   0.68616   0.76257   0.00000  Uiso   1.00
C239   C     0.46588   0.73507   0.86962   0.00000  Uiso   1.00
C240   C     0.60032   0.64246   0.58700   0.00000  Uiso   1.00
C241   C     0.60872   0.66332   0.50018   0.00000  Uiso   1.00
C242   C     0.64016   0.69538   0.49201   0.00000  Uiso   1.00
C243   C     0.68807   0.74961   0.44247   0.00000  Uiso   1.00
C244   C     0.60819   0.62636   0.75134   0.00000  Uiso   1.00
C245   C     0.60392   0.56238   0.73137   0.00000  Uiso   1.00
C246   C     0.61970   0.51800   0.78085   0.00000  Uiso   1.00
C247   C     0.61247   0.46237   0.75161   0.00000  Uiso   1.00
C248   C     0.57008   0.64983   0.76383   0.00000  Uiso   1.00
C249   C     0.55740   0.67898   0.84059   0.00000  Uiso   1.00
C250   C     0.52168   0.69697   0.83868   0.00000  Uiso   1.00
C251   C     0.62254   0.65325   0.66298   0.00000  Uiso   1.00
C252   C     0.65397   0.68529   0.65494   0.00000  Uiso   1.00
C253   C     0.66242   0.70619   0.56812   0.00000  Uiso   1.00
H254   H     0.54999   0.59809   0.55231   0.00000  Uiso   1.00
H255   H     0.55725   0.48768   0.56729   0.00000  Uiso   1.00
H256   H     0.49496   0.64865   0.62702   0.00000  Uiso   1.00
H257   H     0.59152   0.65496   0.44140   0.00000  Uiso   1.00
H258   H     0.57509   0.37003   0.61742   0.00000  Uiso   1.00
H259   H     0.44376   0.70944   0.74335   0.00000  Uiso   1.00
H260   H     0.64736   0.72276   0.35193   0.00000  Uiso   1.00
H261   H     0.62549   0.63476   0.81050   0.00000  Uiso   1.00
H262   H     0.63690   0.52636   0.83964   0.00000  Uiso   1.00
H263   H     0.57461   0.68732   0.89937   0.00000  Uiso   1.00
H264   H     0.67116   0.69364   0.71375   0.00000  Uiso   1.00
H265   H     0.63973   0.40143   0.83847   0.00000  Uiso   1.00
H266   H     0.50840   0.74084   0.96440   0.00000  Uiso   1.00
H267   H     0.71200   0.75416   0.57299   0.00000  Uiso   1.00
O268   O     0.61354   0.31376   0.74248   0.00000  Uiso   1.00
O269   O     0.44124   0.75906   0.90768   0.00000  Uiso   1.00
O270   O     0.70836   0.77653   0.39416   0.00000  Uiso   1.00
N271   N     0.58874   0.39230   0.66543   0.00000  Uiso   1.00
N272   N     0.46595   0.70962   0.78317   0.00000  Uiso   1.00
N273   N     0.65630   0.72208   0.41724   0.00000  Uiso   1.00
N274   N     0.62353   0.40919   0.78438   0.00000  Uiso   1.00
N275   N     0.50074   0.72651   0.90212   0.00000  Uiso   1.00
N276   N     0.69108   0.73898   0.53619   0.00000  Uiso   1.00
C277   C     0.10743   0.40831   0.36913   0.00000  Uiso   1.00
C278   C     0.12402   0.46195   0.32619   0.00000  Uiso   1.00
C279   C     0.11811   0.51808   0.35475   0.00000  Uiso   1.00
C280   C     0.13580   0.56117   0.30647   0.00000  Uiso   1.00
C281   C     0.15809   0.64638   0.25105   0.00000  Uiso   1.00
C282   C     0.08797   0.37714   0.29134   0.00000  Uiso   1.00
C283   C     0.05175   0.36195   0.29060   0.00000  Uiso   1.00
C284   C     0.03909   0.33364   0.21298   0.00000  Uiso   1.00
C285   C     0.00541   0.28714   0.10349   0.00000  Uiso   1.00
C286   C     0.13902   0.36990   0.39629   0.00000  Uiso   1.00
C287   C     0.14572   0.34860   0.48379   0.00000  Uiso   1.00
C288   C     0.17604   0.31418   0.49453   0.00000  Uiso   1.00
C289   C     0.22163   0.25643   0.54798   0.00000  Uiso   1.00
C290   C     0.14935   0.38503   0.23260   0.00000  Uiso   1.00
C291   C     0.14679   0.44930   0.25203   0.00000  Uiso   1.00
C292   C     0.16450   0.49232   0.20369   0.00000  Uiso   1.00
C293   C     0.15862   0.54850   0.23218   0.00000  Uiso   1.00
C294   C     0.11074   0.36449   0.21718   0.00000  Uiso   1.00
C295   C     0.09813   0.33619   0.13955   0.00000  Uiso   1.00
C296   C     0.06190   0.32097   0.13869   0.00000  Uiso   1.00
C297   C     0.16180   0.35725   0.32213   0.00000  Uiso   1.00
C298   C     0.19211   0.32285   0.33273   0.00000  Uiso   1.00
C299   C     0.19885   0.30151   0.42023   0.00000  Uiso   1.00
H300   H     0.08970   0.41816   0.42686   0.00000  Uiso   1.00
H301   H     0.10049   0.52785   0.41214   0.00000  Uiso   1.00
H302   H     0.03413   0.37174   0.34800   0.00000  Uiso   1.00
H303   H     0.12809   0.35839   0.54116   0.00000  Uiso   1.00
H304   H     0.12248   0.64388   0.36309   0.00000  Uiso   1.00
H305   H     0.98257   0.31471   0.22788   0.00000  Uiso   1.00
H306   H     0.18070   0.28656   0.63518   0.00000  Uiso   1.00
H307   H     0.16708   0.37519   0.17486   0.00000  Uiso   1.00
H308   H     0.18212   0.48252   0.14631   0.00000  Uiso   1.00
H309   H     0.11576   0.32641   0.08218   0.00000  Uiso   1.00
H310   H     0.20972   0.31307   0.27533   0.00000  Uiso   1.00
H311   H     0.18873   0.60709   0.14733   0.00000  Uiso   1.00
H312   H     0.04882   0.27791   0.01212   0.00000  Uiso   1.00
H313   H     0.24696   0.24977   0.41942   0.00000  Uiso   1.00
O314   O     0.16409   0.69687   0.24095   0.00000  Uiso   1.00
O315   O     0.98054   0.26500   0.06357   0.00000  Uiso   1.00
O316   O     0.24049   0.22808   0.59795   0.00000  Uiso   1.00
N317   N     0.13601   0.62049   0.31624   0.00000  Uiso   1.00
N318   N     0.00521   0.31274   0.18982   0.00000  Uiso   1.00
N319   N     0.19044   0.28642   0.57061   0.00000  Uiso   1.00
N320   N     0.17166   0.60070   0.20014   0.00000  Uiso   1.00
N321   N     0.04086   0.29295   0.07372   0.00000  Uiso   1.00
N322   N     0.22609   0.26662   0.45451   0.00000  Uiso   1.00
C323   C     0.06729   0.10649   0.11146   0.00000  Uiso   1.00
C324   C     0.08170   0.05159   0.15539   0.00000  Uiso   1.00
C325   C     0.07445   0.99602   0.12609   0.00000  Uiso   1.00
C326   C     0.09021   0.95156   0.17550   0.00000  Uiso   1.00
C327   C     0.10921   0.86467   0.23219   0.00000  Uiso   1.00
C328   C     0.04786   0.13904   0.18785   0.00000  Uiso   1.00
C329   C     0.01215   0.15700   0.18583   0.00000  Uiso   1.00
C330   C     0.99943   0.18616   0.26257   0.00000  Uiso   1.00
C331   C     0.96588   0.23507   0.36962   0.00000  Uiso   1.00
C332   C     0.10032   0.14246   0.08700   0.00000  Uiso   1.00
C333   C     0.10872   0.16332   0.00018   0.00000  Uiso   1.00
C334   C     0.14016   0.19538   0.99201   0.00000  Uiso   1.00
C335   C     0.18807   0.24961   0.94247   0.00000  Uiso   1.00
C336   C     0.10819   0.12636   0.25134   0.00000  Uiso   1.00
C337   C     0.10392   0.06238   0.23137   0.00000  Uiso   1.00
C338   C     0.11970   0.01800   0.28085   0.00000  Uiso   1.00
C339   C     0.11247   0.96237   0.25161   0.00000  Uiso   1.00
C340   C     0.07008   0.14983   0.26383   0.00000  Uiso   1.00
C341   C     0.05740   0.17898   0.34059   0.00000  Uiso   1.00
C342   C     0.02168   0.19697   0.33868   0.00000  Uiso   1.00
C343   C     0.12254   0.15325   0.16298   0.00000  Uiso   1.00
C344   C     0.15397   0.18529   0.15494   0.00000  Uiso   1.00
C345   C     0.16242   0.20619   0.06812   0.00000  Uiso   1.00
H346   H     0.04999   0.09809   0.05231   0.00000  Uiso   1.00
H347   H     0.05725   0.98768   0.06729   0.00000  Uiso   1.00
H348   H     0.99496   0.14865   0.12702   0.00000  Uiso   1.00
H349   H     0.09152   0.15496   0.94140   0.00000  Uiso   1.00
H350   H     0.07509   0.87003   0.11742   0.00000  Uiso   1.00
H351   H     0.94376   0.20944   0.24335   0.00000  Uiso   1.00
H352   H     0.14736   0.22276   0.85193   0.00000  Uiso   1.00
H353   H     0.12549   0.13476   0.31050   0.00000  Uiso   1.00
H354   H     0.13690   0.02636   0.33964   0.00000  Uiso   1.00
H355   H     0.07461   0.18732   0.39937   0.00000  Uiso   1.00
H356   H     0.17116   0.19364   0.21375   0.00000  Uiso   1.00
H357   H     0.13973   0.90143   0.33847   0.00000  Uiso   1.00
H358   H     0.00840   0.24084   0.46440   0.00000  Uiso   1.00
H359   H     0.21200   0.25416   0.07299   0.00000  Uiso   1.00
O360   O     0.11354   0.81376   0.24248   0.00000  Uiso   1.00
O361   O     0.94124   0.25906   0.40768   0.00000  Uiso   1.00
O362   O     0.20836   0.27653   0.89416   0.00000  Uiso   1.00
N363   N     0.08874   0.89230   0.16543   0.00000  Uiso   1.00
N364   N     0.96595   0.20962   0.28317   0.00000  Uiso   1.00
N365   N     0.15630   0.22208   0.91724   0.00000  Uiso   1.00
N366   N     0.12353   0.90919   0.28438   0.00000  Uiso   1.00
N367   N     0.00074   0.22651   0.40212   0.00000  Uiso   1.00
N368   N     0.19108   0.23898   0.03619   0.00000  Uiso   1.00
C369   C     0.89257   0.40831   0.86913   0.00000  Uiso   1.00
C370   C     0.87598   0.46195   0.82619   0.00000  Uiso   1.00
C371   C     0.88189   0.51808   0.85475   0.00000  Uiso   1.00
C372   C     0.86420   0.56117   0.80647   0.00000  Uiso   1.00
C373   C     0.84191   0.64638   0.75105   0.00000  Uiso   1.00
C374   C     0.91203   0.37714   0.79134   0.00000  Uiso   1.00
C375   C     0.94825   0.36195   0.79060   0.00000  Uiso   1.00
C376   C     0.96091   0.33364   0.71298   0.00000  Uiso   1.00
C377   C     0.99459   0.28714   0.60349   0.00000  Uiso   1.00
C378   C     0.86098   0.36990   0.89629   0.00000  Uiso   1.00
C379   C     0.85428   0.34860   0.98379   0.00000  Uiso   1.00
C380   C     0.82396   0.31418   0.99453   0.00000  Uiso   1.00
C381   C     0.77837   0.25643   0.04798   0.00000  Uiso   1.00
C382   C     0.85065   0.38503   0.73260   0.00000  Uiso   1.00
C383   C     0.85321   0.44930   0.75203   0.00000  Uiso   1.00
C384   C     0.83550   0.49232   0.70369   0.00000  Uiso   1.00
C385   C     0.84138   0.54850   0.73218   0.00000  Uiso   1.00
C386   C     0.88926   0.36449   0.71718   0.00000  Uiso   1.00
C387   C     0.90187   0.33619   0.63955   0.00000  Uiso   1.00
C388   C     0.93810   0.32097   0.63869   0.00000  Uiso   1.00
C389   C     0.83820   0.35725   0.82213   0.00000  Uiso   1.00
C390   C     0.80789   0.32285   0.83273   0.00000  Uiso   1.00
C391   C     0.80115   0.30151   0.92023   0.00000  Uiso   1.00
H392   H     0.91030   0.41816   0.92686   0.00000  Uiso   1.00
H393   H     0.89951   0.52785   0.91214   0.00000  Uiso   1.00
H394   H     0.96587   0.37174   0.84800   0.00000  Uiso   1.00
H395   H     0.87191   0.35839   0.04116   0.00000  Uiso   1.00
H396   H     0.87752   0.64388   0.86309   0.00000  Uiso   1.00
H397   H     0.01743   0.31471   0.72788   0.00000  Uiso   1.00
H398   H     0.81930   0.28656   0.13518   0.00000  Uiso   1.00
H399   H     0.83292   0.37519   0.67486   0.00000  Uiso   1.00
H400   H     0.81788   0.48252   0.64631   0.00000  Uiso   1.00
H401   H     0.88424   0.32641   0.58218   0.00000  Uiso   1.00
H402   H     0.79028   0.31307   0.77533   0.00000  Uiso   1.00
H403   H     0.81127   0.60709   0.64733   0.00000  Uiso   1.00
H404   H     0.95118   0.27791   0.51212   0.00000  Uiso   1.00
H405   H     0.75304   0.24977   0.91942   0.00000  Uiso   1.00
O406   O     0.83591   0.69687   0.74095   0.00000  Uiso   1.00
O407   O     0.01946   0.26500   0.56357   0.00000  Uiso   1.00
O408   O     0.75951   0.22808   0.09795   0.00000  Uiso   1.00
N409   N     0.86399   0.62049   0.81624   0.00000  Uiso   1.00
N410   N     0.99479   0.31274   0.68982   0.00000  Uiso   1.00
N411   N     0.80956   0.28642   0.07061   0.00000  Uiso   1.00
N412   N     0.82834   0.60070   0.70014   0.00000  Uiso   1.00
N413   N     0.95914   0.29295   0.57372   0.00000  Uiso   1.00
N414   N     0.77391   0.26662   0.95451   0.00000  Uiso   1.00
C415   C     0.93271   0.10649   0.61146   0.00000  Uiso   1.00
C416   C     0.91830   0.05159   0.65539   0.00000  Uiso   1.00
C417   C     0.92555   0.99602   0.62609   0.00000  Uiso   1.00
C418   C     0.90979   0.95156   0.67550   0.00000  Uiso   1.00
C419   C     0.89079   0.86467   0.73219   0.00000  Uiso   1.00
C420   C     0.95214   0.13904   0.68785   0.00000  Uiso   1.00
C421   C     0.98785   0.15700   0.68583   0.00000  Uiso   1.00
C422   C     0.00057   0.18616   0.76257   0.00000  Uiso   1.00
C423   C     0.03412   0.23507   0.86962   0.00000  Uiso   1.00
C424   C     0.89968   0.14246   0.58700   0.00000  Uiso   1.00
C425   C     0.89128   0.16332   0.50018   0.00000  Uiso   1.00
C426   C     0.85984   0.19538   0.49201   0.00000  Uiso   1.00
C427   C     0.81193   0.24961   0.44247   0.00000  Uiso   1.00
C428   C     0.89181   0.12636   0.75134   0.00000  Uiso   1.00
C429   C     0.89608   0.06238   0.73137   0.00000  Uiso   1.00
C430   C     0.88030   0.01800   0.78085   0.00000  Uiso   1.00
C431   C     0.88753   0.96237   0.75161   0.00000  Uiso   1.00
C432   C     0.92992   0.14983   0.76383   0.00000  Uiso   1.00
C433   C     0.94260   0.17898   0.84059   0.00000  Uiso   1.00
C434   C     0.97832   0.19697   0.83868   0.00000  Uiso   1.00
C435   C     0.87746   0.15325   0.66298   0.00000  Uiso   1.00
C436   C     0.84603   0.18529   0.65494   0.00000  Uiso   1.00
C437   C     0.83758   0.20619   0.56812   0.00000  Uiso   1.00
H438   H     0.95001   0.09809   0.55231   0.00000  Uiso   1.00
H439   H     0.94275   0.98768   0.56729   0.00000  Uiso   1.00
H440   H     0.00504   0.14865   0.62702   0.00000  Uiso   1.00
H441   H     0.90848   0.15496   0.44140   0.00000  Uiso   1.00
H442   H     0.92491   0.87003   0.61742   0.00000  Uiso   1.00
H443   H     0.05624   0.20944   0.74335   0.00000  Uiso   1.00
H444   H     0.85264   0.22276   0.35193   0.00000  Uiso   1.00
H445   H     0.87451   0.13476   0.81050   0.00000  Uiso   1.00
H446   H     0.86310   0.02636   0.83964   0.00000  Uiso   1.00
H447   H     0.92539   0.18732   0.89937   0.00000  Uiso   1.00
H448   H     0.82884   0.19364   0.71375   0.00000  Uiso   1.00
H449   H     0.86027   0.90143   0.83847   0.00000  Uiso   1.00
H450   H     0.99160   0.24084   0.96440   0.00000  Uiso   1.00
H451   H     0.78800   0.25416   0.57299   0.00000  Uiso   1.00
O452   O     0.88646   0.81376   0.74248   0.00000  Uiso   1.00
O453   O     0.05876   0.25906   0.90768   0.00000  Uiso   1.00
O454   O     0.79164   0.27653   0.39416   0.00000  Uiso   1.00
N455   N     0.91126   0.89230   0.66543   0.00000  Uiso   1.00
N456   N     0.03405   0.20962   0.78317   0.00000  Uiso   1.00
N457   N     0.84370   0.22208   0.41724   0.00000  Uiso   1.00
N458   N     0.87647   0.90919   0.78438   0.00000  Uiso   1.00
N459   N     0.99926   0.22651   0.90212   0.00000  Uiso   1.00
N460   N     0.80892   0.23898   0.53619   0.00000  Uiso   1.00
C461   C     0.39257   0.90831   0.36913   0.00000  Uiso   1.00
C462   C     0.37598   0.96195   0.32619   0.00000  Uiso   1.00
C463   C     0.38189   0.01808   0.35475   0.00000  Uiso   1.00
C464   C     0.36420   0.06117   0.30647   0.00000  Uiso   1.00
C465   C     0.34191   0.14638   0.25105   0.00000  Uiso   1.00
C466   C     0.41203   0.87714   0.29134   0.00000  Uiso   1.00
C467   C     0.44825   0.86195   0.29060   0.00000  Uiso   1.00
C468   C     0.46091   0.83364   0.21298   0.00000  Uiso   1.00
C469   C     0.49459   0.78714   0.10349   0.00000  Uiso   1.00
C470   C     0.36098   0.86990   0.39629   0.00000  Uiso   1.00
C471   C     0.35428   0.84860   0.48379   0.00000  Uiso   1.00
C472   C     0.32396   0.81418   0.49453   0.00000  Uiso   1.00
C473   C     0.27837   0.75643   0.54798   0.00000  Uiso   1.00
C474   C     0.35065   0.88503   0.23260   0.00000  Uiso   1.00
C475   C     0.35321   0.94930   0.25203   0.00000  Uiso   1.00
C476   C     0.33550   0.99232   0.20369   0.00000  Uiso   1.00
C477   C     0.34138   0.04850   0.23218   0.00000  Uiso   1.00
C478   C     0.38926   0.86449   0.21718   0.00000  Uiso   1.00
C479   C     0.40187   0.83619   0.13955   0.00000  Uiso   1.00
C480   C     0.43810   0.82097   0.13869   0.00000  Uiso   1.00
C481   C     0.33820   0.85725   0.32213   0.00000  Uiso   1.00
C482   C     0.30789   0.82285   0.33273   0.00000  Uiso   1.00
C483   C     0.30115   0.80151   0.42023   0.00000  Uiso   1.00
H484   H     0.41030   0.91816   0.42686   0.00000  Uiso   1.00
H485   H     0.39951   0.02785   0.41214   0.00000  Uiso   1.00
H486   H     0.46587   0.87174   0.34800   0.00000  Uiso   1.00
H487   H     0.37191   0.85839   0.54116   0.00000  Uiso   1.00
H488   H     0.37752   0.14388   0.36309   0.00000  Uiso   1.00
H489   H     0.51743   0.81471   0.22788   0.00000  Uiso   1.00
H490   H     0.31930   0.78656   0.63518   0.00000  Uiso   1.00
H491   H     0.33292   0.87519   0.17486   0.00000  Uiso   1.00
H492   H     0.31788   0.98252   0.14631   0.00000  Uiso   1.00
H493   H     0.38424   0.82641   0.08218   0.00000  Uiso   1.00
H494   H     0.29028   0.81307   0.27533   0.00000  Uiso   1.00
H495   H     0.31127   0.10709   0.14733   0.00000  Uiso   1.00
H496   H     0.45118   0.77791   0.01212   0.00000  Uiso   1.00
H497   H     0.25304   0.74977   0.41942   0.00000  Uiso   1.00
O498   O     0.33591   0.19687   0.24095   0.00000  Uiso   1.00
O499   O     0.51946   0.76500   0.06357   0.00000  Uiso   1.00
O500   O     0.25951   0.72808   0.59795   0.00000  Uiso   1.00
N501   N     0.36399   0.12049   0.31624   0.00000  Uiso   1.00
N502   N     0.49479   0.81274   0.18982   0.00000  Uiso   1.00
N503   N     0.30956   0.78642   0.57061   0.00000  Uiso   1.00
N504   N     0.32834   0.10070   0.20014   0.00000  Uiso   1.00
N505   N     0.45914   0.79295   0.07372   0.00000  Uiso   1.00
N506   N     0.27391   0.76662   0.45451   0.00000  Uiso   1.00
C507   C     0.43271   0.60649   0.11146   0.00000  Uiso   1.00
C508   C     0.41830   0.55159   0.15539   0.00000  Uiso   1.00
C509   C     0.42555   0.49602   0.12609   0.00000  Uiso   1.00
C510   C     0.40979   0.45156   0.17550   0.00000  Uiso   1.00
C511   C     0.39079   0.36467   0.23219   0.00000  Uiso   1.00
C512   C     0.45214   0.63904   0.18785   0.00000  Uiso   1.00
C513   C     0.48785   0.65700   0.18583   0.00000  Uiso   1.00
C514   C     0.50057   0.68616   0.26257   0.00000  Uiso   1.00
C515   C     0.53412   0.73507   0.36962   0.00000  Uiso   1.00
C516   C     0.39968   0.64246   0.08700   0.00000  Uiso   1.00
C517   C     0.39128   0.66332   0.00018   0.00000  Uiso   1.00
C518   C     0.35984   0.69538   0.99201   0.00000  Uiso   1.00
C519   C     0.31193   0.74961   0.94247   0.00000  Uiso   1.00
C520   C     0.39181   0.62636   0.25134   0.00000  Uiso   1.00
C521   C     0.39608   0.56238   0.23137   0.00000  Uiso   1.00
C522   C     0.38030   0.51800   0.28085   0.00000  Uiso   1.00
C523   C     0.38753   0.46237   0.25161   0.00000  Uiso   1.00
C524   C     0.42992   0.64983   0.26383   0.00000  Uiso   1.00
C525   C     0.44260   0.67898   0.34059   0.00000  Uiso   1.00
C526   C     0.47832   0.69697   0.33868   0.00000  Uiso   1.00
C527   C     0.37746   0.65325   0.16298   0.00000  Uiso   1.00
C528   C     0.34603   0.68529   0.15494   0.00000  Uiso   1.00
C529   C     0.33758   0.70619   0.06812   0.00000  Uiso   1.00
H530   H     0.45001   0.59809   0.05231   0.00000  Uiso   1.00
H531   H     0.44275   0.48768   0.06729   0.00000  Uiso   1.00
H532   H     0.50504   0.64865   0.12702   0.00000  Uiso   1.00
H533   H     0.40848   0.65496   0.94140   0.00000  Uiso   1.00
H534   H     0.42491   0.37003   0.11742   0.00000  Uiso   1.00
H535   H     0.55624   0.70944   0.24335   0.00000  Uiso   1.00
H536   H     0.35264   0.72276   0.85193   0.00000  Uiso   1.00
H537   H     0.37451   0.63476   0.31050   0.00000  Uiso   1.00
H538   H     0.36310   0.52636   0.33964   0.00000  Uiso   1.00
H539   H     0.42539   0.68732   0.39937   0.00000  Uiso   1.00
H540   H     0.32884   0.69364   0.21375   0.00000  Uiso   1.00
H541   H     0.36027   0.40143   0.33847   0.00000  Uiso   1.00
H542   H     0.49160   0.74084   0.46440   0.00000  Uiso   1.00
H543   H     0.28800   0.75416   0.07299   0.00000  Uiso   1.00
O544   O     0.38646   0.31376   0.24248   0.00000  Uiso   1.00
O545   O     0.55876   0.75906   0.40768   0.00000  Uiso   1.00
O546   O     0.29164   0.77653   0.89416   0.00000  Uiso   1.00
N547   N     0.41126   0.39230   0.16543   0.00000  Uiso   1.00
N548   N     0.53405   0.70962   0.28317   0.00000  Uiso   1.00
N549   N     0.34370   0.72208   0.91724   0.00000  Uiso   1.00
N550   N     0.37647   0.40919   0.28438   0.00000  Uiso   1.00
N551   N     0.49926   0.72651   0.40212   0.00000  Uiso   1.00
N552   N     0.30892   0.73898   0.03619   0.00000  Uiso   1.00
C553   C     0.10743   0.59169   0.86913   0.00000  Uiso   1.00
C554   C     0.12402   0.53805   0.82619   0.00000  Uiso   1.00
C555   C     0.11811   0.48192   0.85475   0.00000  Uiso   1.00
C556   C     0.13580   0.43883   0.80647   0.00000  Uiso   1.00
C557   C     0.15809   0.35362   0.75105   0.00000  Uiso   1.00
C558   C     0.08797   0.62286   0.79134   0.00000  Uiso   1.00
C559   C     0.05175   0.63805   0.79060   0.00000  Uiso   1.00
C560   C     0.03909   0.66636   0.71298   0.00000  Uiso   1.00
C561   C     0.00541   0.71286   0.60349   0.00000  Uiso   1.00
C562   C     0.13902   0.63010   0.89629   0.00000  Uiso   1.00
C563   C     0.14572   0.65140   0.98379   0.00000  Uiso   1.00
C564   C     0.17604   0.68582   0.99453   0.00000  Uiso   1.00
C565   C     0.22163   0.74357   0.04798   0.00000  Uiso   1.00
C566   C     0.14935   0.61497   0.73260   0.00000  Uiso   1.00
C567   C     0.14679   0.55070   0.75203   0.00000  Uiso   1.00
C568   C     0.16450   0.50768   0.70369   0.00000  Uiso   1.00
C569   C     0.15862   0.45150   0.73218   0.00000  Uiso   1.00
C570   C     0.11074   0.63551   0.71718   0.00000  Uiso   1.00
C571   C     0.09813   0.66381   0.63955   0.00000  Uiso   1.00
C572   C     0.06190   0.67903   0.63869   0.00000  Uiso   1.00
C573   C     0.16180   0.64275   0.82213   0.00000  Uiso   1.00
C574   C     0.19211   0.67715   0.83273   0.00000  Uiso   1.00
C575   C     0.19885   0.69849   0.92023   0.00000  Uiso   1.00
H576   H     0.08970   0.58184   0.92686   0.00000  Uiso   1.00
H577   H     0.10049   0.47215   0.91214   0.00000  Uiso   1.00
H578   H     0.03413   0.62826   0.84800   0.00000  Uiso   1.00
H579   H     0.12809   0.64161   0.04116   0.00000  Uiso   1.00
H580   H     0.12248   0.35612   0.86309   0.00000  Uiso   1.00
H581   H     0.98257   0.68529   0.72788   0.00000  Uiso   1.00
H582   H     0.18070   0.71344   0.13518   0.00000  Uiso   1.00
H583   H     0.16708   0.62481   0.67486   0.00000  Uiso   1.00
H584   H     0.18212   0.51748   0.64631   0.00000  Uiso   1.00
H585   H     0.11576   0.67359   0.58218   0.00000  Uiso   1.00
H586   H     0.20972   0.68693   0.77533   0.00000  Uiso   1.00
H587   H     0.18873   0.39291   0.64733   0.00000  Uiso   1.00
H588   H     0.04882   0.72209   0.51212   0.00000  Uiso   1.00
H589   H     0.24696   0.75023   0.91942   0.00000  Uiso   1.00
O590   O     0.16409   0.30313   0.74095   0.00000  Uiso   1.00
O591   O     0.98054   0.73500   0.56357   0.00000  Uiso   1.00
O592   O     0.24049   0.77192   0.09795   0.00000  Uiso   1.00
N593   N     0.13601   0.37951   0.81624   0.00000  Uiso   1.00
N594   N     0.00521   0.68726   0.68982   0.00000  Uiso   1.00
N595   N     0.19044   0.71358   0.07061   0.00000  Uiso   1.00
N596   N     0.17166   0.39930   0.70014   0.00000  Uiso   1.00
N597   N     0.04086   0.70705   0.57372   0.00000  Uiso   1.00
N598   N     0.22609   0.73338   0.95451   0.00000  Uiso   1.00
C599   C     0.06729   0.89351   0.61146   0.00000  Uiso   1.00
C600   C     0.08170   0.94841   0.65539   0.00000  Uiso   1.00
C601   C     0.07445   0.00398   0.62609   0.00000  Uiso   1.00
C602   C     0.09021   0.04844   0.67550   0.00000  Uiso   1.00
C603   C     0.10921   0.13533   0.73219   0.00000  Uiso   1.00
C604   C     0.04786   0.86096   0.68785   0.00000  Uiso   1.00
C605   C     0.01215   0.84300   0.68583   0.00000  Uiso   1.00
C606   C     0.99943   0.81384   0.76257   0.00000  Uiso   1.00
C607   C     0.96588   0.76493   0.86962   0.00000  Uiso   1.00
C608   C     0.10032   0.85754   0.58700   0.00000  Uiso   1.00
C609   C     0.10872   0.83668   0.50018   0.00000  Uiso   1.00
C610   C     0.14016   0.80462   0.49201   0.00000  Uiso   1.00
C611   C     0.18807   0.75039   0.44247   0.00000  Uiso   1.00
C612   C     0.10819   0.87364   0.75134   0.00000  Uiso   1.00
C613   C     0.10392   0.93762   0.73137   0.00000  Uiso   1.00
C614   C     0.11970   0.98200   0.78085   0.00000  Uiso   1.00
C615   C     0.11247   0.03763   0.75161   0.00000  Uiso   1.00
C616   C     0.07008   0.85017   0.76383   0.00000  Uiso   1.00
C617   C     0.05740   0.82102   0.84059   0.00000  Uiso   1.00
C618   C     0.02168   0.80303   0.83868   0.00000  Uiso   1.00
C619   C     0.12254   0.84675   0.66298   0.00000  Uiso   1.00
C620   C     0.15397   0.81471   0.65494   0.00000  Uiso   1.00
C621   C     0.16242   0.79381   0.56812   0.00000  Uiso   1.00
H622   H     0.04999   0.90191   0.55231   0.00000  Uiso   1.00
H623   H     0.05725   0.01232   0.56729   0.00000  Uiso   1.00
H624   H     0.99496   0.85135   0.62702   0.00000  Uiso   1.00
H625   H     0.09152   0.84504   0.44140   0.00000  Uiso   1.00
H626   H     0.07509   0.12997   0.61742   0.00000  Uiso   1.00
H627   H     0.94376   0.79056   0.74335   0.00000  Uiso   1.00
H628   H     0.14736   0.77724   0.35193   0.00000  Uiso   1.00
H629   H     0.12549   0.86524   0.81050   0.00000  Uiso   1.00
H630   H     0.13690   0.97364   0.83964   0.00000  Uiso   1.00
H631   H     0.07461   0.81268   0.89937   0.00000  Uiso   1.00
H632   H     0.17116   0.80636   0.71375   0.00000  Uiso   1.00
H633   H     0.13973   0.09857   0.83847   0.00000  Uiso   1.00
H634   H     0.00840   0.75916   0.96440   0.00000  Uiso   1.00
H635   H     0.21200   0.74584   0.57299   0.00000  Uiso   1.00
O636   O     0.11354   0.18624   0.74248   0.00000  Uiso   1.00
O637   O     0.94124   0.74094   0.90768   0.00000  Uiso   1.00
O638   O     0.20836   0.72347   0.39416   0.00000  Uiso   1.00
N639   N     0.08874   0.10770   0.66543   0.00000  Uiso   1.00
N640   N     0.96595   0.79038   0.78317   0.00000  Uiso   1.00
N641   N     0.15630   0.77792   0.41724   0.00000  Uiso   1.00
N642   N     0.12353   0.09081   0.78438   0.00000  Uiso   1.00
N643   N     0.00074   0.77349   0.90212   0.00000  Uiso   1.00
N644   N     0.19108   0.76102   0.53619   0.00000  Uiso   1.00
C645   C     0.60743   0.09169   0.36913   0.00000  Uiso   1.00
C646   C     0.62402   0.03805   0.32619   0.00000  Uiso   1.00
C647   C     0.61811   0.98192   0.35475   0.00000  Uiso   1.00
C648   C     0.63580   0.93883   0.30647   0.00000  Uiso   1.00
C649   C     0.65809   0.85362   0.25105   0.00000  Uiso   1.00
C650   C     0.58797   0.12286   0.29134   0.00000  Uiso   1.00
C651   C     0.55175   0.13805   0.29060   0.00000  Uiso   1.00
C652   C     0.53909   0.16636   0.21298   0.00000  Uiso   1.00
C653   C     0.50541   0.21286   0.10349   0.00000  Uiso   1.00
C654   C     0.63902   0.13010   0.39629   0.00000  Uiso   1.00
C655   C     0.64572   0.15140   0.48379   0.00000  Uiso   1.00
C656   C     0.67604   0.18582   0.49453   0.00000  Uiso   1.00
C657   C     0.72163   0.24357   0.54798   0.00000  Uiso   1.00
C658   C     0.64935   0.11497   0.23260   0.00000  Uiso   1.00
C659   C     0.64679   0.05070   0.25203   0.00000  Uiso   1.00
C660   C     0.66450   0.00768   0.20369   0.00000  Uiso   1.00
C661   C     0.65862   0.95150   0.23218   0.00000  Uiso   1.00
C662   C     0.61074   0.13551   0.21718   0.00000  Uiso   1.00
C663   C     0.59813   0.16381   0.13955   0.00000  Uiso   1.00
C664   C     0.56190   0.17903   0.13869   0.00000  Uiso   1.00
C665   C     0.66180   0.14275   0.32213   0.00000  Uiso   1.00
C666   C     0.69211   0.17715   0.33273   0.00000  Uiso   1.00
C667   C     0.69885   0.19849   0.42023   0.00000  Uiso   1.00
H668   H     0.58970   0.08184   0.42686   0.00000  Uiso   1.00
H669   H     0.60049   0.97215   0.41214   0.00000  Uiso   1.00
H670   H     0.53413   0.12826   0.34800   0.00000  Uiso   1.00
H671   H     0.62809   0.14161   0.54116   0.00000  Uiso   1.00
H672   H     0.62248   0.85612   0.36309   0.00000  Uiso   1.00
H673   H     0.48257   0.18529   0.22788   0.00000  Uiso   1.00
H674   H     0.68070   0.21344   0.63518   0.00000  Uiso   1.00
H675   H     0.66708   0.12481   0.17486   0.00000  Uiso   1.00
H676   H     0.68212   0.01748   0.14631   0.00000  Uiso   1.00
H677   H     0.61576   0.17359   0.08218   0.00000  Uiso   1.00
H678   H     0.70972   0.18693   0.27533   0.00000  Uiso   1.00
H679   H     0.68873   0.89291   0.14733   0.00000  Uiso   1.00
H680   H     0.54882   0.22209   0.01212   0.00000  Uiso   1.00
H681   H     0.74696   0.25023   0.41942   0.00000  Uiso   1.00
O682   O     0.66409   0.80313   0.24095   0.00000  Uiso   1.00
O683   O     0.48054   0.23500   0.06357   0.00000  Uiso   1.00
O684   O     0.74049   0.27192   0.59795   0.00000  Uiso   1.00
N685   N     0.63601   0.87951   0.31624   0.00000  Uiso   1.00
N686   N     0.50521   0.18726   0.18982   0.00000  Uiso   1.00
N687   N     0.69044   0.21358   0.57061   0.00000  Uiso   1.00
N688   N     0.67166   0.89930   0.20014   0.00000  Uiso   1.00
N689   N     0.54086   0.20705   0.07372   0.00000  Uiso   1.00
N690   N     0.72609   0.23338   0.45451   0.00000  Uiso   1.00
C691   C     0.56729   0.39351   0.11146   0.00000  Uiso   1.00
C692   C     0.58170   0.44841   0.15539   0.00000  Uiso   1.00
C693   C     0.57445   0.50398   0.12609   0.00000  Uiso   1.00
C694   C     0.59021   0.54844   0.17550   0.00000  Uiso   1.00
C695   C     0.60921   0.63533   0.23219   0.00000  Uiso   1.00
C696   C     0.54786   0.36096   0.18785   0.00000  Uiso   1.00
C697   C     0.51215   0.34300   0.18583   0.00000  Uiso   1.00
C698   C     0.49943   0.31384   0.26257   0.00000  Uiso   1.00
C699   C     0.46588   0.26493   0.36962   0.00000  Uiso   1.00
C700   C     0.60032   0.35754   0.08700   0.00000  Uiso   1.00
C701   C     0.60872   0.33668   0.00018   0.00000  Uiso   1.00
C702   C     0.64016   0.30462   0.99201   0.00000  Uiso   1.00
C703   C     0.68807   0.25039   0.94247   0.00000  Uiso   1.00
C704   C     0.60819   0.37364   0.25134   0.00000  Uiso   1.00
C705   C     0.60392   0.43762   0.23137   0.00000  Uiso   1.00
C706   C     0.61970   0.48200   0.28085   0.00000  Uiso   1.00
C707   C     0.61247   0.53763   0.25161   0.00000  Uiso   1.00
C708   C     0.57008   0.35017   0.26383   0.00000  Uiso   1.00
C709   C     0.55740   0.32102   0.34059   0.00000  Uiso   1.00
C710   C     0.52168   0.30303   0.33868   0.00000  Uiso   1.00
C711   C     0.62254   0.34675   0.16298   0.00000  Uiso   1.00
C712   C     0.65397   0.31471   0.15494   0.00000  Uiso   1.00
C713   C     0.66242   0.29381   0.06812   0.00000  Uiso   1.00
H714   H     0.54999   0.40191   0.05231   0.00000  Uiso   1.00
H715   H     0.55725   0.51232   0.06729   0.00000  Uiso   1.00
H716   H     0.49496   0.35135   0.12702   0.00000  Uiso   1.00
H717   H     0.59152   0.34504   0.94140   0.00000  Uiso   1.00
H718   H     0.57509   0.62997   0.11742   0.00000  Uiso   1.00
H719   H     0.44376   0.29056   0.24335   0.00000  Uiso   1.00
H720   H     0.64736   0.27724   0.85193   0.00000  Uiso   1.00
H721   H     0.62549   0.36524   0.31050   0.00000  Uiso   1.00
H722   H     0.63690   0.47364   0.33964   0.00000  Uiso   1.00
H723   H     0.57461   0.31268   0.39937   0.00000  Uiso   1.00
H724   H     0.67116   0.30636   0.21375   0.00000  Uiso   1.00
H725   H     0.63973   0.59857   0.33847   0.00000  Uiso   1.00
H726   H     0.50840   0.25916   0.46440   0.00000  Uiso   1.00
H727   H     0.71200   0.24584   0.07299   0.00000  Uiso   1.00
O728   O     0.61354   0.68624   0.24248   0.00000  Uiso   1.00
O729   O     0.44124   0.24094   0.40768   0.00000  Uiso   1.00
O730   O     0.70836   0.22347   0.89416   0.00000  Uiso   1.00
N731   N     0.58874   0.60770   0.16543   0.00000  Uiso   1.00
N732   N     0.46595   0.29038   0.28317   0.00000  Uiso   1.00
N733   N     0.65630   0.27792   0.91724   0.00000  Uiso   1.00
N734   N     0.62353   0.59081   0.28438   0.00000  Uiso   1.00
N735   N     0.50074   0.27349   0.40212   0.00000  Uiso   1.00
N736   N     0.69108   0.26102   0.03619   0.00000  Uiso   1.00
