data_job_04898
_audit_creation_date              2018-12-19
_audit_creation_method            'Materials Studio'
_symmetry_space_group_name_H-M    'P1'
_symmetry_Int_Tables_number       1
_symmetry_cell_setting            triclinic
loop_
_symmetry_equiv_pos_as_xyz
  x,y,z
_cell_length_a                    49.8138
_cell_length_b                    22.8645
_cell_length_c                    9.7717
_cell_angle_alpha                 90.0000
_cell_angle_beta                  90.0000
_cell_angle_gamma                 90.0000
loop_
_atom_site_label
_atom_site_type_symbol
_atom_site_fract_x
_atom_site_fract_y
_atom_site_fract_z
_atom_site_U_iso_or_equiv
_atom_site_adp_type
_atom_site_occupancy
C1     C     0.18662   0.10950   0.70978   0.00000  Uiso   1.00
C2     C     0.21663   0.11456   0.68135   0.00000  Uiso   1.00
C3     C     0.23638   0.12524   0.77834   0.00000  Uiso   1.00
C4     C     0.26267   0.12830   0.73174   0.00000  Uiso   1.00
C5     C     0.30832   0.13730   0.70868   0.00000  Uiso   1.00
C6     C     0.17305   0.15475   0.61833   0.00000  Uiso   1.00
C7     C     0.15617   0.19922   0.66234   0.00000  Uiso   1.00
C8     C     0.14577   0.23611   0.56269   0.00000  Uiso   1.00
C9     C     0.12375   0.30749   0.44179   0.00000  Uiso   1.00
C10    C     0.17810   0.04992   0.65474   0.00000  Uiso   1.00
C11    C     0.16545   0.00624   0.72935   0.00000  Uiso   1.00
C12    C     0.15930   0.95488   0.66034   0.00000  Uiso   1.00
C13    C     0.14510   0.86348   0.59596   0.00000  Uiso   1.00
C14    C     0.19819   0.09596   0.45456   0.00000  Uiso   1.00
C15    C     0.22291   0.10721   0.54272   0.00000  Uiso   1.00
C16    C     0.24918   0.11025   0.49597   0.00000  Uiso   1.00
C17    C     0.26897   0.12093   0.59287   0.00000  Uiso   1.00
C18    C     0.17934   0.14740   0.47971   0.00000  Uiso   1.00
C19    C     0.16897   0.18423   0.37997   0.00000  Uiso   1.00
C20    C     0.15207   0.22874   0.42382   0.00000  Uiso   1.00
C21    C     0.18438   0.04256   0.51612   0.00000  Uiso   1.00
C22    C     0.17825   0.99126   0.44698   0.00000  Uiso   1.00
C23    C     0.16559   0.94751   0.52146   0.00000  Uiso   1.00
H24    H     0.18172   0.11523   0.81770   0.00000  Uiso   1.00
H25    H     0.23151   0.13093   0.88561   0.00000  Uiso   1.00
H26    H     0.15131   0.20490   0.76962   0.00000  Uiso   1.00
H27    H     0.16059   0.01195   0.83662   0.00000  Uiso   1.00
H28    H     0.28948   0.14512   0.89975   0.00000  Uiso   1.00
H29    H     0.12035   0.30106   0.65519   0.00000  Uiso   1.00
H30    H     0.13992   0.89420   0.79647   0.00000  Uiso   1.00
H31    H     0.20308   0.09023   0.34663   0.00000  Uiso   1.00
H32    H     0.25404   0.10456   0.38869   0.00000  Uiso   1.00
H33    H     0.17383   0.17852   0.27271   0.00000  Uiso   1.00
H34    H     0.18311   0.98558   0.33970   0.00000  Uiso   1.00
H35    H     0.30776   0.12371   0.49644   0.00000  Uiso   1.00
H36    H     0.13864   0.27966   0.25188   0.00000  Uiso   1.00
H37    H     0.15821   0.87279   0.39315   0.00000  Uiso   1.00
O38    O     0.33175   0.14431   0.73425   0.00000  Uiso   1.00
O39    O     0.10987   0.34889   0.41340   0.00000  Uiso   1.00
O40    O     0.13554   0.81510   0.59875   0.00000  Uiso   1.00
N41    N     0.28679   0.13810   0.79906   0.00000  Uiso   1.00
N42    N     0.12867   0.28390   0.57042   0.00000  Uiso   1.00
N43    N     0.14696   0.90353   0.70249   0.00000  Uiso   1.00
N44    N     0.29663   0.12658   0.58204   0.00000  Uiso   1.00
N45    N     0.13851   0.27239   0.35340   0.00000  Uiso   1.00
N46    N     0.15680   0.89201   0.48547   0.00000  Uiso   1.00
C47    C     0.18662   0.60950   0.20978   0.00000  Uiso   1.00
C48    C     0.21663   0.61456   0.18135   0.00000  Uiso   1.00
C49    C     0.23638   0.62524   0.27834   0.00000  Uiso   1.00
C50    C     0.26267   0.62830   0.23174   0.00000  Uiso   1.00
C51    C     0.30832   0.63730   0.20868   0.00000  Uiso   1.00
C52    C     0.17305   0.65475   0.11833   0.00000  Uiso   1.00
C53    C     0.15617   0.69922   0.16234   0.00000  Uiso   1.00
C54    C     0.14577   0.73611   0.06269   0.00000  Uiso   1.00
C55    C     0.12375   0.80749   0.94179   0.00000  Uiso   1.00
C56    C     0.17810   0.54992   0.15474   0.00000  Uiso   1.00
C57    C     0.16545   0.50624   0.22935   0.00000  Uiso   1.00
C58    C     0.15930   0.45488   0.16034   0.00000  Uiso   1.00
C59    C     0.14510   0.36348   0.09596   0.00000  Uiso   1.00
C60    C     0.19819   0.59596   0.95456   0.00000  Uiso   1.00
C61    C     0.22291   0.60721   0.04272   0.00000  Uiso   1.00
C62    C     0.24918   0.61025   0.99597   0.00000  Uiso   1.00
C63    C     0.26897   0.62093   0.09287   0.00000  Uiso   1.00
C64    C     0.17934   0.64740   0.97971   0.00000  Uiso   1.00
C65    C     0.16897   0.68423   0.87997   0.00000  Uiso   1.00
C66    C     0.15207   0.72874   0.92382   0.00000  Uiso   1.00
C67    C     0.18438   0.54256   0.01612   0.00000  Uiso   1.00
C68    C     0.17825   0.49126   0.94698   0.00000  Uiso   1.00
C69    C     0.16559   0.44751   0.02146   0.00000  Uiso   1.00
H70    H     0.18172   0.61523   0.31770   0.00000  Uiso   1.00
H71    H     0.23151   0.63093   0.38561   0.00000  Uiso   1.00
H72    H     0.15131   0.70490   0.26962   0.00000  Uiso   1.00
H73    H     0.16059   0.51195   0.33662   0.00000  Uiso   1.00
H74    H     0.28948   0.64512   0.39975   0.00000  Uiso   1.00
H75    H     0.12035   0.80106   0.15519   0.00000  Uiso   1.00
H76    H     0.13992   0.39420   0.29647   0.00000  Uiso   1.00
H77    H     0.20308   0.59023   0.84663   0.00000  Uiso   1.00
H78    H     0.25404   0.60456   0.88869   0.00000  Uiso   1.00
H79    H     0.17383   0.67852   0.77271   0.00000  Uiso   1.00
H80    H     0.18311   0.48558   0.83970   0.00000  Uiso   1.00
H81    H     0.30776   0.62371   0.99644   0.00000  Uiso   1.00
H82    H     0.13864   0.77966   0.75188   0.00000  Uiso   1.00
H83    H     0.15821   0.37279   0.89315   0.00000  Uiso   1.00
O84    O     0.33175   0.64431   0.23425   0.00000  Uiso   1.00
O85    O     0.10987   0.84889   0.91340   0.00000  Uiso   1.00
O86    O     0.13554   0.31510   0.09875   0.00000  Uiso   1.00
N87    N     0.28679   0.63810   0.29906   0.00000  Uiso   1.00
N88    N     0.12867   0.78390   0.07042   0.00000  Uiso   1.00
N89    N     0.14696   0.40353   0.20249   0.00000  Uiso   1.00
N90    N     0.29663   0.62658   0.08204   0.00000  Uiso   1.00
N91    N     0.13851   0.77239   0.85340   0.00000  Uiso   1.00
N92    N     0.15680   0.39201   0.98547   0.00000  Uiso   1.00
C93    C     0.68662   0.10950   0.20978   0.00000  Uiso   1.00
C94    C     0.71663   0.11456   0.18135   0.00000  Uiso   1.00
C95    C     0.73638   0.12524   0.27834   0.00000  Uiso   1.00
C96    C     0.76267   0.12830   0.23174   0.00000  Uiso   1.00
C97    C     0.80832   0.13730   0.20868   0.00000  Uiso   1.00
C98    C     0.67305   0.15475   0.11833   0.00000  Uiso   1.00
C99    C     0.65617   0.19922   0.16234   0.00000  Uiso   1.00
C100   C     0.64577   0.23611   0.06269   0.00000  Uiso   1.00
C101   C     0.62375   0.30749   0.94179   0.00000  Uiso   1.00
C102   C     0.67810   0.04992   0.15474   0.00000  Uiso   1.00
C103   C     0.66545   0.00624   0.22935   0.00000  Uiso   1.00
C104   C     0.65930   0.95488   0.16034   0.00000  Uiso   1.00
C105   C     0.64510   0.86348   0.09596   0.00000  Uiso   1.00
C106   C     0.69819   0.09596   0.95456   0.00000  Uiso   1.00
C107   C     0.72291   0.10721   0.04272   0.00000  Uiso   1.00
C108   C     0.74918   0.11025   0.99597   0.00000  Uiso   1.00
C109   C     0.76897   0.12093   0.09287   0.00000  Uiso   1.00
C110   C     0.67934   0.14740   0.97971   0.00000  Uiso   1.00
C111   C     0.66897   0.18423   0.87997   0.00000  Uiso   1.00
C112   C     0.65207   0.22874   0.92382   0.00000  Uiso   1.00
C113   C     0.68438   0.04256   0.01612   0.00000  Uiso   1.00
C114   C     0.67825   0.99126   0.94698   0.00000  Uiso   1.00
C115   C     0.66559   0.94751   0.02146   0.00000  Uiso   1.00
H116   H     0.68172   0.11523   0.31770   0.00000  Uiso   1.00
H117   H     0.73151   0.13093   0.38561   0.00000  Uiso   1.00
H118   H     0.65131   0.20490   0.26962   0.00000  Uiso   1.00
H119   H     0.66059   0.01195   0.33662   0.00000  Uiso   1.00
H120   H     0.78948   0.14512   0.39975   0.00000  Uiso   1.00
H121   H     0.62035   0.30106   0.15519   0.00000  Uiso   1.00
H122   H     0.63992   0.89420   0.29647   0.00000  Uiso   1.00
H123   H     0.70308   0.09023   0.84663   0.00000  Uiso   1.00
H124   H     0.75404   0.10456   0.88869   0.00000  Uiso   1.00
H125   H     0.67383   0.17852   0.77271   0.00000  Uiso   1.00
H126   H     0.68311   0.98558   0.83970   0.00000  Uiso   1.00
H127   H     0.80776   0.12371   0.99644   0.00000  Uiso   1.00
H128   H     0.63864   0.27966   0.75188   0.00000  Uiso   1.00
H129   H     0.65821   0.87279   0.89315   0.00000  Uiso   1.00
O130   O     0.83175   0.14431   0.23425   0.00000  Uiso   1.00
O131   O     0.60987   0.34889   0.91340   0.00000  Uiso   1.00
O132   O     0.63554   0.81510   0.09875   0.00000  Uiso   1.00
N133   N     0.78679   0.13810   0.29906   0.00000  Uiso   1.00
N134   N     0.62867   0.28390   0.07042   0.00000  Uiso   1.00
N135   N     0.64696   0.90353   0.20249   0.00000  Uiso   1.00
N136   N     0.79663   0.12658   0.08204   0.00000  Uiso   1.00
N137   N     0.63851   0.27239   0.85340   0.00000  Uiso   1.00
N138   N     0.65680   0.89201   0.98547   0.00000  Uiso   1.00
C139   C     0.68662   0.60950   0.70978   0.00000  Uiso   1.00
C140   C     0.71663   0.61456   0.68135   0.00000  Uiso   1.00
C141   C     0.73638   0.62524   0.77834   0.00000  Uiso   1.00
C142   C     0.76267   0.62830   0.73174   0.00000  Uiso   1.00
C143   C     0.80832   0.63730   0.70868   0.00000  Uiso   1.00
C144   C     0.67305   0.65475   0.61833   0.00000  Uiso   1.00
C145   C     0.65617   0.69922   0.66234   0.00000  Uiso   1.00
C146   C     0.64577   0.73611   0.56269   0.00000  Uiso   1.00
C147   C     0.62375   0.80749   0.44179   0.00000  Uiso   1.00
C148   C     0.67810   0.54992   0.65474   0.00000  Uiso   1.00
C149   C     0.66545   0.50624   0.72935   0.00000  Uiso   1.00
C150   C     0.65930   0.45488   0.66034   0.00000  Uiso   1.00
C151   C     0.64510   0.36348   0.59596   0.00000  Uiso   1.00
C152   C     0.69819   0.59596   0.45456   0.00000  Uiso   1.00
C153   C     0.72291   0.60721   0.54272   0.00000  Uiso   1.00
C154   C     0.74918   0.61025   0.49597   0.00000  Uiso   1.00
C155   C     0.76897   0.62093   0.59287   0.00000  Uiso   1.00
C156   C     0.67934   0.64740   0.47971   0.00000  Uiso   1.00
C157   C     0.66897   0.68423   0.37997   0.00000  Uiso   1.00
C158   C     0.65207   0.72874   0.42382   0.00000  Uiso   1.00
C159   C     0.68438   0.54256   0.51612   0.00000  Uiso   1.00
C160   C     0.67825   0.49126   0.44698   0.00000  Uiso   1.00
C161   C     0.66559   0.44751   0.52146   0.00000  Uiso   1.00
H162   H     0.68172   0.61523   0.81770   0.00000  Uiso   1.00
H163   H     0.73151   0.63093   0.88561   0.00000  Uiso   1.00
H164   H     0.65131   0.70490   0.76962   0.00000  Uiso   1.00
H165   H     0.66059   0.51195   0.83662   0.00000  Uiso   1.00
H166   H     0.78948   0.64512   0.89975   0.00000  Uiso   1.00
H167   H     0.62035   0.80106   0.65519   0.00000  Uiso   1.00
H168   H     0.63992   0.39420   0.79647   0.00000  Uiso   1.00
H169   H     0.70308   0.59023   0.34663   0.00000  Uiso   1.00
H170   H     0.75404   0.60456   0.38869   0.00000  Uiso   1.00
H171   H     0.67383   0.67852   0.27271   0.00000  Uiso   1.00
H172   H     0.68311   0.48558   0.33970   0.00000  Uiso   1.00
H173   H     0.80776   0.62371   0.49644   0.00000  Uiso   1.00
H174   H     0.63864   0.77966   0.25188   0.00000  Uiso   1.00
H175   H     0.65821   0.37279   0.39315   0.00000  Uiso   1.00
O176   O     0.83175   0.64431   0.73425   0.00000  Uiso   1.00
O177   O     0.60987   0.84889   0.41340   0.00000  Uiso   1.00
O178   O     0.63554   0.31510   0.59875   0.00000  Uiso   1.00
N179   N     0.78679   0.63810   0.79906   0.00000  Uiso   1.00
N180   N     0.62867   0.78390   0.57042   0.00000  Uiso   1.00
N181   N     0.64696   0.40353   0.70249   0.00000  Uiso   1.00
N182   N     0.79663   0.62658   0.58204   0.00000  Uiso   1.00
N183   N     0.63851   0.77239   0.35340   0.00000  Uiso   1.00
N184   N     0.65680   0.39201   0.48547   0.00000  Uiso   1.00
C185   C     0.81338   0.89050   0.70978   0.00000  Uiso   1.00
C186   C     0.78337   0.88544   0.68135   0.00000  Uiso   1.00
C187   C     0.76362   0.87476   0.77834   0.00000  Uiso   1.00
C188   C     0.73733   0.87170   0.73174   0.00000  Uiso   1.00
C189   C     0.69168   0.86270   0.70868   0.00000  Uiso   1.00
C190   C     0.82695   0.84525   0.61833   0.00000  Uiso   1.00
C191   C     0.84383   0.80078   0.66234   0.00000  Uiso   1.00
C192   C     0.85423   0.76389   0.56269   0.00000  Uiso   1.00
C193   C     0.87625   0.69251   0.44179   0.00000  Uiso   1.00
C194   C     0.82190   0.95008   0.65474   0.00000  Uiso   1.00
C195   C     0.83455   0.99376   0.72935   0.00000  Uiso   1.00
C196   C     0.84070   0.04512   0.66034   0.00000  Uiso   1.00
C197   C     0.85490   0.13652   0.59596   0.00000  Uiso   1.00
C198   C     0.80181   0.90404   0.45456   0.00000  Uiso   1.00
C199   C     0.77709   0.89279   0.54272   0.00000  Uiso   1.00
C200   C     0.75082   0.88975   0.49597   0.00000  Uiso   1.00
C201   C     0.73103   0.87907   0.59287   0.00000  Uiso   1.00
C202   C     0.82066   0.85260   0.47971   0.00000  Uiso   1.00
C203   C     0.83103   0.81577   0.37997   0.00000  Uiso   1.00
C204   C     0.84793   0.77126   0.42382   0.00000  Uiso   1.00
C205   C     0.81562   0.95744   0.51612   0.00000  Uiso   1.00
C206   C     0.82175   0.00874   0.44698   0.00000  Uiso   1.00
C207   C     0.83441   0.05249   0.52146   0.00000  Uiso   1.00
H208   H     0.81828   0.88477   0.81770   0.00000  Uiso   1.00
H209   H     0.76849   0.86907   0.88561   0.00000  Uiso   1.00
H210   H     0.84869   0.79510   0.76962   0.00000  Uiso   1.00
H211   H     0.83941   0.98805   0.83662   0.00000  Uiso   1.00
H212   H     0.71052   0.85488   0.89975   0.00000  Uiso   1.00
H213   H     0.87965   0.69894   0.65519   0.00000  Uiso   1.00
H214   H     0.86008   0.10580   0.79647   0.00000  Uiso   1.00
H215   H     0.79692   0.90977   0.34663   0.00000  Uiso   1.00
H216   H     0.74596   0.89544   0.38869   0.00000  Uiso   1.00
H217   H     0.82617   0.82148   0.27271   0.00000  Uiso   1.00
H218   H     0.81689   0.01442   0.33970   0.00000  Uiso   1.00
H219   H     0.69224   0.87629   0.49644   0.00000  Uiso   1.00
H220   H     0.86136   0.72034   0.25188   0.00000  Uiso   1.00
H221   H     0.84179   0.12721   0.39315   0.00000  Uiso   1.00
O222   O     0.66825   0.85569   0.73425   0.00000  Uiso   1.00
O223   O     0.89013   0.65111   0.41340   0.00000  Uiso   1.00
O224   O     0.86446   0.18490   0.59875   0.00000  Uiso   1.00
N225   N     0.71321   0.86190   0.79906   0.00000  Uiso   1.00
N226   N     0.87133   0.71610   0.57042   0.00000  Uiso   1.00
N227   N     0.85304   0.09647   0.70249   0.00000  Uiso   1.00
N228   N     0.70337   0.87342   0.58204   0.00000  Uiso   1.00
N229   N     0.86149   0.72761   0.35340   0.00000  Uiso   1.00
N230   N     0.84320   0.10799   0.48547   0.00000  Uiso   1.00
C231   C     0.81338   0.39050   0.20978   0.00000  Uiso   1.00
C232   C     0.78337   0.38544   0.18135   0.00000  Uiso   1.00
C233   C     0.76362   0.37476   0.27834   0.00000  Uiso   1.00
C234   C     0.73733   0.37170   0.23174   0.00000  Uiso   1.00
C235   C     0.69168   0.36270   0.20868   0.00000  Uiso   1.00
C236   C     0.82695   0.34525   0.11833   0.00000  Uiso   1.00
C237   C     0.84383   0.30078   0.16234   0.00000  Uiso   1.00
C238   C     0.85423   0.26389   0.06269   0.00000  Uiso   1.00
C239   C     0.87625   0.19251   0.94179   0.00000  Uiso   1.00
C240   C     0.82190   0.45008   0.15474   0.00000  Uiso   1.00
C241   C     0.83455   0.49376   0.22935   0.00000  Uiso   1.00
C242   C     0.84070   0.54512   0.16034   0.00000  Uiso   1.00
C243   C     0.85490   0.63652   0.09596   0.00000  Uiso   1.00
C244   C     0.80181   0.40404   0.95456   0.00000  Uiso   1.00
C245   C     0.77709   0.39279   0.04272   0.00000  Uiso   1.00
C246   C     0.75082   0.38975   0.99597   0.00000  Uiso   1.00
C247   C     0.73103   0.37907   0.09287   0.00000  Uiso   1.00
C248   C     0.82066   0.35260   0.97971   0.00000  Uiso   1.00
C249   C     0.83103   0.31577   0.87997   0.00000  Uiso   1.00
C250   C     0.84793   0.27126   0.92382   0.00000  Uiso   1.00
C251   C     0.81562   0.45744   0.01612   0.00000  Uiso   1.00
C252   C     0.82175   0.50874   0.94698   0.00000  Uiso   1.00
C253   C     0.83441   0.55249   0.02146   0.00000  Uiso   1.00
H254   H     0.81828   0.38477   0.31770   0.00000  Uiso   1.00
H255   H     0.76849   0.36907   0.38561   0.00000  Uiso   1.00
H256   H     0.84869   0.29510   0.26962   0.00000  Uiso   1.00
H257   H     0.83941   0.48805   0.33662   0.00000  Uiso   1.00
H258   H     0.71052   0.35488   0.39975   0.00000  Uiso   1.00
H259   H     0.87965   0.19894   0.15519   0.00000  Uiso   1.00
H260   H     0.86008   0.60580   0.29647   0.00000  Uiso   1.00
H261   H     0.79692   0.40977   0.84663   0.00000  Uiso   1.00
H262   H     0.74596   0.39544   0.88869   0.00000  Uiso   1.00
H263   H     0.82617   0.32148   0.77271   0.00000  Uiso   1.00
H264   H     0.81689   0.51442   0.83970   0.00000  Uiso   1.00
H265   H     0.69224   0.37629   0.99644   0.00000  Uiso   1.00
H266   H     0.86136   0.22034   0.75188   0.00000  Uiso   1.00
H267   H     0.84179   0.62721   0.89315   0.00000  Uiso   1.00
O268   O     0.66825   0.35569   0.23425   0.00000  Uiso   1.00
O269   O     0.89013   0.15111   0.91340   0.00000  Uiso   1.00
O270   O     0.86446   0.68490   0.09875   0.00000  Uiso   1.00
N271   N     0.71321   0.36190   0.29906   0.00000  Uiso   1.00
N272   N     0.87133   0.21610   0.07042   0.00000  Uiso   1.00
N273   N     0.85304   0.59647   0.20249   0.00000  Uiso   1.00
N274   N     0.70337   0.37342   0.08204   0.00000  Uiso   1.00
N275   N     0.86149   0.22761   0.85340   0.00000  Uiso   1.00
N276   N     0.84320   0.60799   0.98547   0.00000  Uiso   1.00
C277   C     0.31338   0.89050   0.20978   0.00000  Uiso   1.00
C278   C     0.28337   0.88544   0.18135   0.00000  Uiso   1.00
C279   C     0.26362   0.87476   0.27834   0.00000  Uiso   1.00
C280   C     0.23733   0.87170   0.23174   0.00000  Uiso   1.00
C281   C     0.19168   0.86270   0.20868   0.00000  Uiso   1.00
C282   C     0.32695   0.84525   0.11833   0.00000  Uiso   1.00
C283   C     0.34383   0.80078   0.16234   0.00000  Uiso   1.00
C284   C     0.35423   0.76389   0.06269   0.00000  Uiso   1.00
C285   C     0.37625   0.69251   0.94179   0.00000  Uiso   1.00
C286   C     0.32190   0.95008   0.15474   0.00000  Uiso   1.00
C287   C     0.33455   0.99376   0.22935   0.00000  Uiso   1.00
C288   C     0.34070   0.04512   0.16034   0.00000  Uiso   1.00
C289   C     0.35490   0.13652   0.09596   0.00000  Uiso   1.00
C290   C     0.30181   0.90404   0.95456   0.00000  Uiso   1.00
C291   C     0.27709   0.89279   0.04272   0.00000  Uiso   1.00
C292   C     0.25082   0.88975   0.99597   0.00000  Uiso   1.00
C293   C     0.23103   0.87907   0.09287   0.00000  Uiso   1.00
C294   C     0.32066   0.85260   0.97971   0.00000  Uiso   1.00
C295   C     0.33103   0.81577   0.87997   0.00000  Uiso   1.00
C296   C     0.34793   0.77126   0.92382   0.00000  Uiso   1.00
C297   C     0.31562   0.95744   0.01612   0.00000  Uiso   1.00
C298   C     0.32175   0.00874   0.94698   0.00000  Uiso   1.00
C299   C     0.33441   0.05249   0.02146   0.00000  Uiso   1.00
H300   H     0.31828   0.88477   0.31770   0.00000  Uiso   1.00
H301   H     0.26849   0.86907   0.38561   0.00000  Uiso   1.00
H302   H     0.34869   0.79510   0.26962   0.00000  Uiso   1.00
H303   H     0.33941   0.98805   0.33662   0.00000  Uiso   1.00
H304   H     0.21052   0.85488   0.39975   0.00000  Uiso   1.00
H305   H     0.37965   0.69894   0.15519   0.00000  Uiso   1.00
H306   H     0.36008   0.10580   0.29647   0.00000  Uiso   1.00
H307   H     0.29692   0.90977   0.84663   0.00000  Uiso   1.00
H308   H     0.24596   0.89544   0.88869   0.00000  Uiso   1.00
H309   H     0.32617   0.82148   0.77271   0.00000  Uiso   1.00
H310   H     0.31689   0.01442   0.83970   0.00000  Uiso   1.00
H311   H     0.19224   0.87629   0.99644   0.00000  Uiso   1.00
H312   H     0.36136   0.72034   0.75188   0.00000  Uiso   1.00
H313   H     0.34179   0.12721   0.89315   0.00000  Uiso   1.00
O314   O     0.16825   0.85569   0.23425   0.00000  Uiso   1.00
O315   O     0.39013   0.65111   0.91340   0.00000  Uiso   1.00
O316   O     0.36446   0.18490   0.09875   0.00000  Uiso   1.00
N317   N     0.21321   0.86190   0.29906   0.00000  Uiso   1.00
N318   N     0.37133   0.71610   0.07042   0.00000  Uiso   1.00
N319   N     0.35304   0.09647   0.20249   0.00000  Uiso   1.00
N320   N     0.20337   0.87342   0.08204   0.00000  Uiso   1.00
N321   N     0.36149   0.72761   0.85340   0.00000  Uiso   1.00
N322   N     0.34320   0.10799   0.98547   0.00000  Uiso   1.00
C323   C     0.31338   0.39050   0.70978   0.00000  Uiso   1.00
C324   C     0.28337   0.38544   0.68135   0.00000  Uiso   1.00
C325   C     0.26362   0.37476   0.77834   0.00000  Uiso   1.00
C326   C     0.23733   0.37170   0.73174   0.00000  Uiso   1.00
C327   C     0.19168   0.36270   0.70868   0.00000  Uiso   1.00
C328   C     0.32695   0.34525   0.61833   0.00000  Uiso   1.00
C329   C     0.34383   0.30078   0.66234   0.00000  Uiso   1.00
C330   C     0.35423   0.26389   0.56269   0.00000  Uiso   1.00
C331   C     0.37625   0.19251   0.44179   0.00000  Uiso   1.00
C332   C     0.32190   0.45008   0.65474   0.00000  Uiso   1.00
C333   C     0.33455   0.49376   0.72935   0.00000  Uiso   1.00
C334   C     0.34070   0.54512   0.66034   0.00000  Uiso   1.00
C335   C     0.35490   0.63652   0.59596   0.00000  Uiso   1.00
C336   C     0.30181   0.40404   0.45456   0.00000  Uiso   1.00
C337   C     0.27709   0.39279   0.54272   0.00000  Uiso   1.00
C338   C     0.25082   0.38975   0.49597   0.00000  Uiso   1.00
C339   C     0.23103   0.37907   0.59287   0.00000  Uiso   1.00
C340   C     0.32066   0.35260   0.47971   0.00000  Uiso   1.00
C341   C     0.33103   0.31577   0.37997   0.00000  Uiso   1.00
C342   C     0.34793   0.27126   0.42382   0.00000  Uiso   1.00
C343   C     0.31562   0.45744   0.51612   0.00000  Uiso   1.00
C344   C     0.32175   0.50874   0.44698   0.00000  Uiso   1.00
C345   C     0.33441   0.55249   0.52146   0.00000  Uiso   1.00
H346   H     0.31828   0.38477   0.81770   0.00000  Uiso   1.00
H347   H     0.26849   0.36907   0.88561   0.00000  Uiso   1.00
H348   H     0.34869   0.29510   0.76962   0.00000  Uiso   1.00
H349   H     0.33941   0.48805   0.83662   0.00000  Uiso   1.00
H350   H     0.21052   0.35488   0.89975   0.00000  Uiso   1.00
H351   H     0.37965   0.19894   0.65519   0.00000  Uiso   1.00
H352   H     0.36008   0.60580   0.79647   0.00000  Uiso   1.00
H353   H     0.29692   0.40977   0.34663   0.00000  Uiso   1.00
H354   H     0.24596   0.39544   0.38869   0.00000  Uiso   1.00
H355   H     0.32617   0.32148   0.27271   0.00000  Uiso   1.00
H356   H     0.31689   0.51442   0.33970   0.00000  Uiso   1.00
H357   H     0.19224   0.37629   0.49644   0.00000  Uiso   1.00
H358   H     0.36136   0.22034   0.25188   0.00000  Uiso   1.00
H359   H     0.34179   0.62721   0.39315   0.00000  Uiso   1.00
O360   O     0.16825   0.35569   0.73425   0.00000  Uiso   1.00
O361   O     0.39013   0.15111   0.41340   0.00000  Uiso   1.00
O362   O     0.36446   0.68490   0.59875   0.00000  Uiso   1.00
N363   N     0.21321   0.36190   0.79906   0.00000  Uiso   1.00
N364   N     0.37133   0.21610   0.57042   0.00000  Uiso   1.00
N365   N     0.35304   0.59647   0.70249   0.00000  Uiso   1.00
N366   N     0.20337   0.37342   0.58204   0.00000  Uiso   1.00
N367   N     0.36149   0.22761   0.35340   0.00000  Uiso   1.00
N368   N     0.34320   0.60799   0.48547   0.00000  Uiso   1.00
C369   C     0.43662   0.14050   0.95978   0.00000  Uiso   1.00
C370   C     0.46663   0.13544   0.93135   0.00000  Uiso   1.00
C371   C     0.48638   0.12476   0.02834   0.00000  Uiso   1.00
C372   C     0.51267   0.12170   0.98174   0.00000  Uiso   1.00
C373   C     0.55832   0.11270   0.95868   0.00000  Uiso   1.00
C374   C     0.42305   0.09525   0.86833   0.00000  Uiso   1.00
C375   C     0.40617   0.05078   0.91234   0.00000  Uiso   1.00
C376   C     0.39577   0.01389   0.81269   0.00000  Uiso   1.00
C377   C     0.37375   0.94251   0.69179   0.00000  Uiso   1.00
C378   C     0.42810   0.20008   0.90474   0.00000  Uiso   1.00
C379   C     0.41545   0.24376   0.97935   0.00000  Uiso   1.00
C380   C     0.40930   0.29512   0.91034   0.00000  Uiso   1.00
C381   C     0.39510   0.38652   0.84596   0.00000  Uiso   1.00
C382   C     0.44819   0.15404   0.70456   0.00000  Uiso   1.00
C383   C     0.47291   0.14279   0.79272   0.00000  Uiso   1.00
C384   C     0.49918   0.13975   0.74597   0.00000  Uiso   1.00
C385   C     0.51897   0.12907   0.84287   0.00000  Uiso   1.00
C386   C     0.42934   0.10260   0.72971   0.00000  Uiso   1.00
C387   C     0.41897   0.06577   0.62997   0.00000  Uiso   1.00
C388   C     0.40207   0.02126   0.67382   0.00000  Uiso   1.00
C389   C     0.43438   0.20744   0.76612   0.00000  Uiso   1.00
C390   C     0.42825   0.25874   0.69698   0.00000  Uiso   1.00
C391   C     0.41559   0.30249   0.77146   0.00000  Uiso   1.00
H392   H     0.43172   0.13477   0.06770   0.00000  Uiso   1.00
H393   H     0.48151   0.11907   0.13561   0.00000  Uiso   1.00
H394   H     0.40131   0.04510   0.01962   0.00000  Uiso   1.00
H395   H     0.41059   0.23805   0.08662   0.00000  Uiso   1.00
H396   H     0.53948   0.10488   0.14975   0.00000  Uiso   1.00
H397   H     0.37035   0.94894   0.90519   0.00000  Uiso   1.00
H398   H     0.38992   0.35580   0.04647   0.00000  Uiso   1.00
H399   H     0.45308   0.15977   0.59663   0.00000  Uiso   1.00
H400   H     0.50404   0.14544   0.63869   0.00000  Uiso   1.00
H401   H     0.42383   0.07148   0.52271   0.00000  Uiso   1.00
H402   H     0.43311   0.26442   0.58970   0.00000  Uiso   1.00
H403   H     0.55776   0.12629   0.74644   0.00000  Uiso   1.00
H404   H     0.38864   0.97034   0.50188   0.00000  Uiso   1.00
H405   H     0.40821   0.37721   0.64315   0.00000  Uiso   1.00
O406   O     0.58175   0.10569   0.98425   0.00000  Uiso   1.00
O407   O     0.35987   0.90111   0.66340   0.00000  Uiso   1.00
O408   O     0.38554   0.43490   0.84875   0.00000  Uiso   1.00
N409   N     0.53679   0.11190   0.04906   0.00000  Uiso   1.00
N410   N     0.37867   0.96610   0.82042   0.00000  Uiso   1.00
N411   N     0.39696   0.34647   0.95249   0.00000  Uiso   1.00
N412   N     0.54663   0.12342   0.83204   0.00000  Uiso   1.00
N413   N     0.38851   0.97761   0.60340   0.00000  Uiso   1.00
N414   N     0.40680   0.35799   0.73547   0.00000  Uiso   1.00
C415   C     0.43662   0.64050   0.45978   0.00000  Uiso   1.00
C416   C     0.46663   0.63544   0.43135   0.00000  Uiso   1.00
C417   C     0.48638   0.62476   0.52834   0.00000  Uiso   1.00
C418   C     0.51267   0.62170   0.48174   0.00000  Uiso   1.00
C419   C     0.55832   0.61270   0.45868   0.00000  Uiso   1.00
C420   C     0.42305   0.59525   0.36833   0.00000  Uiso   1.00
C421   C     0.40617   0.55078   0.41234   0.00000  Uiso   1.00
C422   C     0.39577   0.51389   0.31269   0.00000  Uiso   1.00
C423   C     0.37375   0.44251   0.19179   0.00000  Uiso   1.00
C424   C     0.42810   0.70008   0.40474   0.00000  Uiso   1.00
C425   C     0.41545   0.74376   0.47935   0.00000  Uiso   1.00
C426   C     0.40930   0.79512   0.41034   0.00000  Uiso   1.00
C427   C     0.39510   0.88652   0.34596   0.00000  Uiso   1.00
C428   C     0.44819   0.65404   0.20456   0.00000  Uiso   1.00
C429   C     0.47291   0.64279   0.29272   0.00000  Uiso   1.00
C430   C     0.49918   0.63975   0.24597   0.00000  Uiso   1.00
C431   C     0.51897   0.62907   0.34287   0.00000  Uiso   1.00
C432   C     0.42934   0.60260   0.22971   0.00000  Uiso   1.00
C433   C     0.41897   0.56577   0.12997   0.00000  Uiso   1.00
C434   C     0.40207   0.52126   0.17382   0.00000  Uiso   1.00
C435   C     0.43438   0.70744   0.26612   0.00000  Uiso   1.00
C436   C     0.42825   0.75874   0.19698   0.00000  Uiso   1.00
C437   C     0.41559   0.80249   0.27146   0.00000  Uiso   1.00
H438   H     0.43172   0.63477   0.56770   0.00000  Uiso   1.00
H439   H     0.48151   0.61907   0.63561   0.00000  Uiso   1.00
H440   H     0.40131   0.54510   0.51962   0.00000  Uiso   1.00
H441   H     0.41059   0.73805   0.58662   0.00000  Uiso   1.00
H442   H     0.53948   0.60488   0.64975   0.00000  Uiso   1.00
H443   H     0.37035   0.44894   0.40519   0.00000  Uiso   1.00
H444   H     0.38992   0.85580   0.54647   0.00000  Uiso   1.00
H445   H     0.45308   0.65977   0.09663   0.00000  Uiso   1.00
H446   H     0.50404   0.64544   0.13869   0.00000  Uiso   1.00
H447   H     0.42383   0.57148   0.02271   0.00000  Uiso   1.00
H448   H     0.43311   0.76442   0.08970   0.00000  Uiso   1.00
H449   H     0.55776   0.62629   0.24644   0.00000  Uiso   1.00
H450   H     0.38864   0.47034   0.00188   0.00000  Uiso   1.00
H451   H     0.40821   0.87721   0.14315   0.00000  Uiso   1.00
O452   O     0.58175   0.60569   0.48425   0.00000  Uiso   1.00
O453   O     0.35987   0.40111   0.16340   0.00000  Uiso   1.00
O454   O     0.38554   0.93490   0.34875   0.00000  Uiso   1.00
N455   N     0.53679   0.61190   0.54906   0.00000  Uiso   1.00
N456   N     0.37867   0.46610   0.32042   0.00000  Uiso   1.00
N457   N     0.39696   0.84647   0.45249   0.00000  Uiso   1.00
N458   N     0.54663   0.62342   0.33204   0.00000  Uiso   1.00
N459   N     0.38851   0.47761   0.10340   0.00000  Uiso   1.00
N460   N     0.40680   0.85799   0.23547   0.00000  Uiso   1.00
C461   C     0.93662   0.14050   0.45978   0.00000  Uiso   1.00
C462   C     0.96663   0.13544   0.43135   0.00000  Uiso   1.00
C463   C     0.98638   0.12476   0.52834   0.00000  Uiso   1.00
C464   C     0.01267   0.12170   0.48174   0.00000  Uiso   1.00
C465   C     0.05832   0.11270   0.45868   0.00000  Uiso   1.00
C466   C     0.92305   0.09525   0.36833   0.00000  Uiso   1.00
C467   C     0.90617   0.05078   0.41234   0.00000  Uiso   1.00
C468   C     0.89577   0.01389   0.31269   0.00000  Uiso   1.00
C469   C     0.87375   0.94251   0.19179   0.00000  Uiso   1.00
C470   C     0.92810   0.20008   0.40474   0.00000  Uiso   1.00
C471   C     0.91545   0.24376   0.47935   0.00000  Uiso   1.00
C472   C     0.90930   0.29512   0.41034   0.00000  Uiso   1.00
C473   C     0.89510   0.38652   0.34596   0.00000  Uiso   1.00
C474   C     0.94819   0.15404   0.20456   0.00000  Uiso   1.00
C475   C     0.97291   0.14279   0.29272   0.00000  Uiso   1.00
C476   C     0.99918   0.13975   0.24597   0.00000  Uiso   1.00
C477   C     0.01897   0.12907   0.34287   0.00000  Uiso   1.00
C478   C     0.92934   0.10260   0.22971   0.00000  Uiso   1.00
C479   C     0.91897   0.06577   0.12997   0.00000  Uiso   1.00
C480   C     0.90207   0.02126   0.17382   0.00000  Uiso   1.00
C481   C     0.93438   0.20744   0.26612   0.00000  Uiso   1.00
C482   C     0.92825   0.25874   0.19698   0.00000  Uiso   1.00
C483   C     0.91559   0.30249   0.27146   0.00000  Uiso   1.00
H484   H     0.93172   0.13477   0.56770   0.00000  Uiso   1.00
H485   H     0.98151   0.11907   0.63561   0.00000  Uiso   1.00
H486   H     0.90131   0.04510   0.51962   0.00000  Uiso   1.00
H487   H     0.91059   0.23805   0.58662   0.00000  Uiso   1.00
H488   H     0.03948   0.10488   0.64975   0.00000  Uiso   1.00
H489   H     0.87035   0.94894   0.40519   0.00000  Uiso   1.00
H490   H     0.88992   0.35580   0.54647   0.00000  Uiso   1.00
H491   H     0.95308   0.15977   0.09663   0.00000  Uiso   1.00
H492   H     0.00404   0.14544   0.13869   0.00000  Uiso   1.00
H493   H     0.92383   0.07148   0.02271   0.00000  Uiso   1.00
H494   H     0.93311   0.26442   0.08970   0.00000  Uiso   1.00
H495   H     0.05776   0.12629   0.24644   0.00000  Uiso   1.00
H496   H     0.88864   0.97034   0.00188   0.00000  Uiso   1.00
H497   H     0.90821   0.37721   0.14315   0.00000  Uiso   1.00
O498   O     0.08175   0.10569   0.48425   0.00000  Uiso   1.00
O499   O     0.85987   0.90111   0.16340   0.00000  Uiso   1.00
O500   O     0.88554   0.43490   0.34875   0.00000  Uiso   1.00
N501   N     0.03679   0.11190   0.54906   0.00000  Uiso   1.00
N502   N     0.87867   0.96610   0.32042   0.00000  Uiso   1.00
N503   N     0.89696   0.34647   0.45249   0.00000  Uiso   1.00
N504   N     0.04663   0.12342   0.33204   0.00000  Uiso   1.00
N505   N     0.88851   0.97761   0.10340   0.00000  Uiso   1.00
N506   N     0.90680   0.35799   0.23547   0.00000  Uiso   1.00
C507   C     0.93662   0.64050   0.95978   0.00000  Uiso   1.00
C508   C     0.96663   0.63544   0.93135   0.00000  Uiso   1.00
C509   C     0.98638   0.62476   0.02834   0.00000  Uiso   1.00
C510   C     0.01267   0.62170   0.98174   0.00000  Uiso   1.00
C511   C     0.05832   0.61270   0.95868   0.00000  Uiso   1.00
C512   C     0.92305   0.59525   0.86833   0.00000  Uiso   1.00
C513   C     0.90617   0.55078   0.91234   0.00000  Uiso   1.00
C514   C     0.89577   0.51389   0.81269   0.00000  Uiso   1.00
C515   C     0.87375   0.44251   0.69179   0.00000  Uiso   1.00
C516   C     0.92810   0.70008   0.90474   0.00000  Uiso   1.00
C517   C     0.91545   0.74376   0.97935   0.00000  Uiso   1.00
C518   C     0.90930   0.79512   0.91034   0.00000  Uiso   1.00
C519   C     0.89510   0.88652   0.84596   0.00000  Uiso   1.00
C520   C     0.94819   0.65404   0.70456   0.00000  Uiso   1.00
C521   C     0.97291   0.64279   0.79272   0.00000  Uiso   1.00
C522   C     0.99918   0.63975   0.74597   0.00000  Uiso   1.00
C523   C     0.01897   0.62907   0.84287   0.00000  Uiso   1.00
C524   C     0.92934   0.60260   0.72971   0.00000  Uiso   1.00
C525   C     0.91897   0.56577   0.62997   0.00000  Uiso   1.00
C526   C     0.90207   0.52126   0.67382   0.00000  Uiso   1.00
C527   C     0.93438   0.70744   0.76612   0.00000  Uiso   1.00
C528   C     0.92825   0.75874   0.69698   0.00000  Uiso   1.00
C529   C     0.91559   0.80249   0.77146   0.00000  Uiso   1.00
H530   H     0.93172   0.63477   0.06770   0.00000  Uiso   1.00
H531   H     0.98151   0.61907   0.13561   0.00000  Uiso   1.00
H532   H     0.90131   0.54510   0.01962   0.00000  Uiso   1.00
H533   H     0.91059   0.73805   0.08662   0.00000  Uiso   1.00
H534   H     0.03948   0.60488   0.14975   0.00000  Uiso   1.00
H535   H     0.87035   0.44894   0.90519   0.00000  Uiso   1.00
H536   H     0.88992   0.85580   0.04647   0.00000  Uiso   1.00
H537   H     0.95308   0.65977   0.59663   0.00000  Uiso   1.00
H538   H     0.00404   0.64544   0.63869   0.00000  Uiso   1.00
H539   H     0.92383   0.57148   0.52271   0.00000  Uiso   1.00
H540   H     0.93311   0.76442   0.58970   0.00000  Uiso   1.00
H541   H     0.05776   0.62629   0.74644   0.00000  Uiso   1.00
H542   H     0.88864   0.47034   0.50188   0.00000  Uiso   1.00
H543   H     0.90821   0.87721   0.64315   0.00000  Uiso   1.00
O544   O     0.08175   0.60569   0.98425   0.00000  Uiso   1.00
O545   O     0.85987   0.40111   0.66340   0.00000  Uiso   1.00
O546   O     0.88554   0.93490   0.84875   0.00000  Uiso   1.00
N547   N     0.03679   0.61190   0.04906   0.00000  Uiso   1.00
N548   N     0.87867   0.46610   0.82042   0.00000  Uiso   1.00
N549   N     0.89696   0.84647   0.95249   0.00000  Uiso   1.00
N550   N     0.04663   0.62342   0.83204   0.00000  Uiso   1.00
N551   N     0.88851   0.47761   0.60340   0.00000  Uiso   1.00
N552   N     0.90680   0.85799   0.73547   0.00000  Uiso   1.00
C553   C     0.06338   0.35950   0.95978   0.00000  Uiso   1.00
C554   C     0.03337   0.36456   0.93135   0.00000  Uiso   1.00
C555   C     0.01362   0.37524   0.02834   0.00000  Uiso   1.00
C556   C     0.98733   0.37830   0.98174   0.00000  Uiso   1.00
C557   C     0.94168   0.38730   0.95868   0.00000  Uiso   1.00
C558   C     0.07695   0.40475   0.86833   0.00000  Uiso   1.00
C559   C     0.09383   0.44922   0.91234   0.00000  Uiso   1.00
C560   C     0.10423   0.48611   0.81269   0.00000  Uiso   1.00
C561   C     0.12625   0.55749   0.69179   0.00000  Uiso   1.00
C562   C     0.07190   0.29992   0.90474   0.00000  Uiso   1.00
C563   C     0.08455   0.25624   0.97935   0.00000  Uiso   1.00
C564   C     0.09070   0.20488   0.91034   0.00000  Uiso   1.00
C565   C     0.10490   0.11348   0.84596   0.00000  Uiso   1.00
C566   C     0.05181   0.34596   0.70456   0.00000  Uiso   1.00
C567   C     0.02709   0.35721   0.79272   0.00000  Uiso   1.00
C568   C     0.00082   0.36025   0.74597   0.00000  Uiso   1.00
C569   C     0.98103   0.37093   0.84287   0.00000  Uiso   1.00
C570   C     0.07066   0.39740   0.72971   0.00000  Uiso   1.00
C571   C     0.08103   0.43423   0.62997   0.00000  Uiso   1.00
C572   C     0.09793   0.47874   0.67382   0.00000  Uiso   1.00
C573   C     0.06562   0.29256   0.76612   0.00000  Uiso   1.00
C574   C     0.07175   0.24126   0.69698   0.00000  Uiso   1.00
C575   C     0.08441   0.19751   0.77146   0.00000  Uiso   1.00
H576   H     0.06828   0.36523   0.06770   0.00000  Uiso   1.00
H577   H     0.01849   0.38093   0.13561   0.00000  Uiso   1.00
H578   H     0.09869   0.45490   0.01962   0.00000  Uiso   1.00
H579   H     0.08941   0.26195   0.08662   0.00000  Uiso   1.00
H580   H     0.96052   0.39512   0.14975   0.00000  Uiso   1.00
H581   H     0.12965   0.55106   0.90519   0.00000  Uiso   1.00
H582   H     0.11008   0.14420   0.04647   0.00000  Uiso   1.00
H583   H     0.04692   0.34023   0.59663   0.00000  Uiso   1.00
H584   H     0.99596   0.35456   0.63869   0.00000  Uiso   1.00
H585   H     0.07617   0.42852   0.52271   0.00000  Uiso   1.00
H586   H     0.06689   0.23558   0.58970   0.00000  Uiso   1.00
H587   H     0.94224   0.37371   0.74644   0.00000  Uiso   1.00
H588   H     0.11136   0.52966   0.50188   0.00000  Uiso   1.00
H589   H     0.09179   0.12279   0.64315   0.00000  Uiso   1.00
O590   O     0.91825   0.39431   0.98425   0.00000  Uiso   1.00
O591   O     0.14013   0.59889   0.66340   0.00000  Uiso   1.00
O592   O     0.11446   0.06510   0.84875   0.00000  Uiso   1.00
N593   N     0.96321   0.38810   0.04906   0.00000  Uiso   1.00
N594   N     0.12133   0.53390   0.82042   0.00000  Uiso   1.00
N595   N     0.10304   0.15353   0.95249   0.00000  Uiso   1.00
N596   N     0.95337   0.37658   0.83204   0.00000  Uiso   1.00
N597   N     0.11149   0.52239   0.60340   0.00000  Uiso   1.00
N598   N     0.09320   0.14201   0.73547   0.00000  Uiso   1.00
C599   C     0.06338   0.85950   0.45978   0.00000  Uiso   1.00
C600   C     0.03337   0.86456   0.43135   0.00000  Uiso   1.00
C601   C     0.01362   0.87524   0.52834   0.00000  Uiso   1.00
C602   C     0.98733   0.87830   0.48174   0.00000  Uiso   1.00
C603   C     0.94168   0.88730   0.45868   0.00000  Uiso   1.00
C604   C     0.07695   0.90475   0.36833   0.00000  Uiso   1.00
C605   C     0.09383   0.94922   0.41234   0.00000  Uiso   1.00
C606   C     0.10423   0.98611   0.31269   0.00000  Uiso   1.00
C607   C     0.12625   0.05749   0.19179   0.00000  Uiso   1.00
C608   C     0.07190   0.79992   0.40474   0.00000  Uiso   1.00
C609   C     0.08455   0.75624   0.47935   0.00000  Uiso   1.00
C610   C     0.09070   0.70488   0.41034   0.00000  Uiso   1.00
C611   C     0.10490   0.61348   0.34596   0.00000  Uiso   1.00
C612   C     0.05181   0.84596   0.20456   0.00000  Uiso   1.00
C613   C     0.02709   0.85721   0.29272   0.00000  Uiso   1.00
C614   C     0.00082   0.86025   0.24597   0.00000  Uiso   1.00
C615   C     0.98103   0.87093   0.34287   0.00000  Uiso   1.00
C616   C     0.07066   0.89740   0.22971   0.00000  Uiso   1.00
C617   C     0.08103   0.93423   0.12997   0.00000  Uiso   1.00
C618   C     0.09793   0.97874   0.17382   0.00000  Uiso   1.00
C619   C     0.06562   0.79256   0.26612   0.00000  Uiso   1.00
C620   C     0.07175   0.74126   0.19698   0.00000  Uiso   1.00
C621   C     0.08441   0.69751   0.27146   0.00000  Uiso   1.00
H622   H     0.06828   0.86523   0.56770   0.00000  Uiso   1.00
H623   H     0.01849   0.88093   0.63561   0.00000  Uiso   1.00
H624   H     0.09869   0.95490   0.51962   0.00000  Uiso   1.00
H625   H     0.08941   0.76195   0.58662   0.00000  Uiso   1.00
H626   H     0.96052   0.89512   0.64975   0.00000  Uiso   1.00
H627   H     0.12965   0.05106   0.40519   0.00000  Uiso   1.00
H628   H     0.11008   0.64420   0.54647   0.00000  Uiso   1.00
H629   H     0.04692   0.84023   0.09663   0.00000  Uiso   1.00
H630   H     0.99596   0.85456   0.13869   0.00000  Uiso   1.00
H631   H     0.07617   0.92852   0.02271   0.00000  Uiso   1.00
H632   H     0.06689   0.73558   0.08970   0.00000  Uiso   1.00
H633   H     0.94224   0.87371   0.24644   0.00000  Uiso   1.00
H634   H     0.11136   0.02966   0.00188   0.00000  Uiso   1.00
H635   H     0.09179   0.62279   0.14315   0.00000  Uiso   1.00
O636   O     0.91825   0.89431   0.48425   0.00000  Uiso   1.00
O637   O     0.14013   0.09889   0.16340   0.00000  Uiso   1.00
O638   O     0.11446   0.56510   0.34875   0.00000  Uiso   1.00
N639   N     0.96321   0.88810   0.54906   0.00000  Uiso   1.00
N640   N     0.12133   0.03390   0.32042   0.00000  Uiso   1.00
N641   N     0.10304   0.65353   0.45249   0.00000  Uiso   1.00
N642   N     0.95337   0.87658   0.33204   0.00000  Uiso   1.00
N643   N     0.11149   0.02239   0.10340   0.00000  Uiso   1.00
N644   N     0.09320   0.64201   0.23547   0.00000  Uiso   1.00
C645   C     0.56338   0.35950   0.45978   0.00000  Uiso   1.00
C646   C     0.53337   0.36456   0.43135   0.00000  Uiso   1.00
C647   C     0.51362   0.37524   0.52834   0.00000  Uiso   1.00
C648   C     0.48733   0.37830   0.48174   0.00000  Uiso   1.00
C649   C     0.44168   0.38730   0.45868   0.00000  Uiso   1.00
C650   C     0.57695   0.40475   0.36833   0.00000  Uiso   1.00
C651   C     0.59383   0.44922   0.41234   0.00000  Uiso   1.00
C652   C     0.60423   0.48611   0.31269   0.00000  Uiso   1.00
C653   C     0.62625   0.55749   0.19179   0.00000  Uiso   1.00
C654   C     0.57190   0.29992   0.40474   0.00000  Uiso   1.00
C655   C     0.58455   0.25624   0.47935   0.00000  Uiso   1.00
C656   C     0.59070   0.20488   0.41034   0.00000  Uiso   1.00
C657   C     0.60490   0.11348   0.34596   0.00000  Uiso   1.00
C658   C     0.55181   0.34596   0.20456   0.00000  Uiso   1.00
C659   C     0.52709   0.35721   0.29272   0.00000  Uiso   1.00
C660   C     0.50082   0.36025   0.24597   0.00000  Uiso   1.00
C661   C     0.48103   0.37093   0.34287   0.00000  Uiso   1.00
C662   C     0.57066   0.39740   0.22971   0.00000  Uiso   1.00
C663   C     0.58103   0.43423   0.12997   0.00000  Uiso   1.00
C664   C     0.59793   0.47874   0.17382   0.00000  Uiso   1.00
C665   C     0.56562   0.29256   0.26612   0.00000  Uiso   1.00
C666   C     0.57175   0.24126   0.19698   0.00000  Uiso   1.00
C667   C     0.58441   0.19751   0.27146   0.00000  Uiso   1.00
H668   H     0.56828   0.36523   0.56770   0.00000  Uiso   1.00
H669   H     0.51849   0.38093   0.63561   0.00000  Uiso   1.00
H670   H     0.59869   0.45490   0.51962   0.00000  Uiso   1.00
H671   H     0.58941   0.26195   0.58662   0.00000  Uiso   1.00
H672   H     0.46052   0.39512   0.64975   0.00000  Uiso   1.00
H673   H     0.62965   0.55106   0.40519   0.00000  Uiso   1.00
H674   H     0.61008   0.14420   0.54647   0.00000  Uiso   1.00
H675   H     0.54692   0.34023   0.09663   0.00000  Uiso   1.00
H676   H     0.49596   0.35456   0.13869   0.00000  Uiso   1.00
H677   H     0.57617   0.42852   0.02271   0.00000  Uiso   1.00
H678   H     0.56689   0.23558   0.08970   0.00000  Uiso   1.00
H679   H     0.44224   0.37371   0.24644   0.00000  Uiso   1.00
H680   H     0.61136   0.52966   0.00188   0.00000  Uiso   1.00
H681   H     0.59179   0.12279   0.14315   0.00000  Uiso   1.00
O682   O     0.41825   0.39431   0.48425   0.00000  Uiso   1.00
O683   O     0.64013   0.59889   0.16340   0.00000  Uiso   1.00
O684   O     0.61446   0.06510   0.34875   0.00000  Uiso   1.00
N685   N     0.46321   0.38810   0.54906   0.00000  Uiso   1.00
N686   N     0.62133   0.53390   0.32042   0.00000  Uiso   1.00
N687   N     0.60304   0.15353   0.45249   0.00000  Uiso   1.00
N688   N     0.45337   0.37658   0.33204   0.00000  Uiso   1.00
N689   N     0.61149   0.52239   0.10340   0.00000  Uiso   1.00
N690   N     0.59320   0.14201   0.23547   0.00000  Uiso   1.00
C691   C     0.56338   0.85950   0.95978   0.00000  Uiso   1.00
C692   C     0.53337   0.86456   0.93135   0.00000  Uiso   1.00
C693   C     0.51362   0.87524   0.02834   0.00000  Uiso   1.00
C694   C     0.48733   0.87830   0.98174   0.00000  Uiso   1.00
C695   C     0.44168   0.88730   0.95868   0.00000  Uiso   1.00
C696   C     0.57695   0.90475   0.86833   0.00000  Uiso   1.00
C697   C     0.59383   0.94922   0.91234   0.00000  Uiso   1.00
C698   C     0.60423   0.98611   0.81269   0.00000  Uiso   1.00
C699   C     0.62625   0.05749   0.69179   0.00000  Uiso   1.00
C700   C     0.57190   0.79992   0.90474   0.00000  Uiso   1.00
C701   C     0.58455   0.75624   0.97935   0.00000  Uiso   1.00
C702   C     0.59070   0.70488   0.91034   0.00000  Uiso   1.00
C703   C     0.60490   0.61348   0.84596   0.00000  Uiso   1.00
C704   C     0.55181   0.84596   0.70456   0.00000  Uiso   1.00
C705   C     0.52709   0.85721   0.79272   0.00000  Uiso   1.00
C706   C     0.50082   0.86025   0.74597   0.00000  Uiso   1.00
C707   C     0.48103   0.87093   0.84287   0.00000  Uiso   1.00
C708   C     0.57066   0.89740   0.72971   0.00000  Uiso   1.00
C709   C     0.58103   0.93423   0.62997   0.00000  Uiso   1.00
C710   C     0.59793   0.97874   0.67382   0.00000  Uiso   1.00
C711   C     0.56562   0.79256   0.76612   0.00000  Uiso   1.00
C712   C     0.57175   0.74126   0.69698   0.00000  Uiso   1.00
C713   C     0.58441   0.69751   0.77146   0.00000  Uiso   1.00
H714   H     0.56828   0.86523   0.06770   0.00000  Uiso   1.00
H715   H     0.51849   0.88093   0.13561   0.00000  Uiso   1.00
H716   H     0.59869   0.95490   0.01962   0.00000  Uiso   1.00
H717   H     0.58941   0.76195   0.08662   0.00000  Uiso   1.00
H718   H     0.46052   0.89512   0.14975   0.00000  Uiso   1.00
H719   H     0.62965   0.05106   0.90519   0.00000  Uiso   1.00
H720   H     0.61008   0.64420   0.04647   0.00000  Uiso   1.00
H721   H     0.54692   0.84023   0.59663   0.00000  Uiso   1.00
H722   H     0.49596   0.85456   0.63869   0.00000  Uiso   1.00
H723   H     0.57617   0.92852   0.52271   0.00000  Uiso   1.00
H724   H     0.56689   0.73558   0.58970   0.00000  Uiso   1.00
H725   H     0.44224   0.87371   0.74644   0.00000  Uiso   1.00
H726   H     0.61136   0.02966   0.50188   0.00000  Uiso   1.00
H727   H     0.59179   0.62279   0.64315   0.00000  Uiso   1.00
O728   O     0.41825   0.89431   0.98425   0.00000  Uiso   1.00
O729   O     0.64013   0.09889   0.66340   0.00000  Uiso   1.00
O730   O     0.61446   0.56510   0.84875   0.00000  Uiso   1.00
N731   N     0.46321   0.88810   0.04906   0.00000  Uiso   1.00
N732   N     0.62133   0.03390   0.82042   0.00000  Uiso   1.00
N733   N     0.60304   0.65353   0.95249   0.00000  Uiso   1.00
N734   N     0.45337   0.87658   0.83204   0.00000  Uiso   1.00
N735   N     0.61149   0.02239   0.60340   0.00000  Uiso   1.00
N736   N     0.59320   0.64201   0.73547   0.00000  Uiso   1.00
