data_job_00515
_audit_creation_date              2018-12-19
_audit_creation_method            'Materials Studio'
_symmetry_space_group_name_H-M    'P1'
_symmetry_Int_Tables_number       1
_symmetry_cell_setting            triclinic
loop_
_symmetry_equiv_pos_as_xyz
  x,y,z
_cell_length_a                    21.5130
_cell_length_b                    12.9285
_cell_length_c                    30.8347
_cell_angle_alpha                 90.0000
_cell_angle_beta                  90.0000
_cell_angle_gamma                 90.0000
loop_
_atom_site_label
_atom_site_type_symbol
_atom_site_fract_x
_atom_site_fract_y
_atom_site_fract_z
_atom_site_U_iso_or_equiv
_atom_site_adp_type
_atom_site_occupancy
C1     C     0.14633   0.25004   0.08867   0.00000  Uiso   1.00
C2     C     0.11445   0.14538   0.09368   0.00000  Uiso   1.00
C3     C     0.06501   0.10969   0.06894   0.00000  Uiso   1.00
C4     C     0.04241   0.01177   0.07860   0.00000  Uiso   1.00
C5     C     0.98893   0.85840   0.08134   0.00000  Uiso   1.00
C6     C     0.14226   0.30225   0.13293   0.00000  Uiso   1.00
C7     C     0.11621   0.39846   0.14118   0.00000  Uiso   1.00
C8     C     0.11702   0.43261   0.18387   0.00000  Uiso   1.00
C9     C     0.10676   0.52281   0.24754   0.00000  Uiso   1.00
C10    C     0.21502   0.22683   0.08130   0.00000  Uiso   1.00
C11    C     0.25016   0.25966   0.04615   0.00000  Uiso   1.00
C12    C     0.31223   0.23032   0.04538   0.00000  Uiso   1.00
C13    C     0.41495   0.20343   0.02889   0.00000  Uiso   1.00
C14    C     0.19410   0.13961   0.14980   0.00000  Uiso   1.00
C15    C     0.14040   0.08540   0.12689   0.00000  Uiso   1.00
C16    C     0.11786   0.98751   0.13658   0.00000  Uiso   1.00
C17    C     0.06840   0.95168   0.11186   0.00000  Uiso   1.00
C18    C     0.16820   0.24227   0.16613   0.00000  Uiso   1.00
C19    C     0.16906   0.27628   0.20882   0.00000  Uiso   1.00
C20    C     0.14301   0.37252   0.21713   0.00000  Uiso   1.00
C21    C     0.24097   0.16685   0.11450   0.00000  Uiso   1.00
C22    C     0.30300   0.13747   0.11379   0.00000  Uiso   1.00
C23    C     0.33823   0.17024   0.07865   0.00000  Uiso   1.00
H24    H     0.12613   0.29675   0.06282   0.00000  Uiso   1.00
H25    H     0.04494   0.15614   0.04325   0.00000  Uiso   1.00
H26    H     0.09614   0.44487   0.11548   0.00000  Uiso   1.00
H27    H     0.23006   0.30607   0.02046   0.00000  Uiso   1.00
H28    H     0.96636   0.97380   0.03621   0.00000  Uiso   1.00
H29    H     0.07432   0.58263   0.18850   0.00000  Uiso   1.00
H30    H     0.35673   0.28996   0.98814   0.00000  Uiso   1.00
H31    H     0.21430   0.09292   0.17566   0.00000  Uiso   1.00
H32    H     0.13795   0.94111   0.16228   0.00000  Uiso   1.00
H33    H     0.18914   0.22985   0.23450   0.00000  Uiso   1.00
H34    H     0.32307   0.09105   0.13949   0.00000  Uiso   1.00
H35    H     0.04184   0.79929   0.13282   0.00000  Uiso   1.00
H36    H     0.14981   0.40811   0.28511   0.00000  Uiso   1.00
H37    H     0.43221   0.11544   0.08475   0.00000  Uiso   1.00
O38    O     0.95227   0.79038   0.07369   0.00000  Uiso   1.00
O39    O     0.09392   0.58914   0.27348   0.00000  Uiso   1.00
O40    O     0.46444   0.20516   0.01062   0.00000  Uiso   1.00
N41    N     0.99461   0.95356   0.06078   0.00000  Uiso   1.00
N42    N     0.09554   0.52276   0.20316   0.00000  Uiso   1.00
N43    N     0.35957   0.24916   0.01585   0.00000  Uiso   1.00
N44    N     0.03523   0.85965   0.11276   0.00000  Uiso   1.00
N45    N     0.13616   0.42885   0.25514   0.00000  Uiso   1.00
N46    N     0.40019   0.15526   0.06783   0.00000  Uiso   1.00
C47    C     0.83791   0.06945   0.10052   0.00000  Uiso   1.00
C48    C     0.85942   0.17972   0.10965   0.00000  Uiso   1.00
C49    C     0.91384   0.22454   0.09446   0.00000  Uiso   1.00
C50    C     0.92514   0.32633   0.10644   0.00000  Uiso   1.00
C51    C     0.96489   0.48917   0.11664   0.00000  Uiso   1.00
C52    C     0.82826   0.01901   0.14472   0.00000  Uiso   1.00
C53    C     0.85649   0.92869   0.15901   0.00000  Uiso   1.00
C54    C     0.84155   0.89520   0.20050   0.00000  Uiso   1.00
C55    C     0.83290   0.80849   0.26513   0.00000  Uiso   1.00
C56    C     0.77348   0.07891   0.08029   0.00000  Uiso   1.00
C57    C     0.75564   0.03895   0.04042   0.00000  Uiso   1.00
C58    C     0.69458   0.05587   0.02767   0.00000  Uiso   1.00
C59    C     0.60087   0.06218   0.99227   0.00000  Uiso   1.00
C60    C     0.76120   0.17054   0.14880   0.00000  Uiso   1.00
C61    C     0.81775   0.23462   0.13588   0.00000  Uiso   1.00
C62    C     0.82897   0.33638   0.14788   0.00000  Uiso   1.00
C63    C     0.88340   0.38134   0.13271   0.00000  Uiso   1.00
C64    C     0.78660   0.07391   0.17094   0.00000  Uiso   1.00
C65    C     0.77162   0.04054   0.21242   0.00000  Uiso   1.00
C66    C     0.79981   0.95020   0.22677   0.00000  Uiso   1.00
C67    C     0.73182   0.13382   0.10651   0.00000  Uiso   1.00
C68    C     0.67077   0.15080   0.09383   0.00000  Uiso   1.00
C69    C     0.65284   0.11088   0.05394   0.00000  Uiso   1.00
H70    H     0.87035   0.02670   0.08011   0.00000  Uiso   1.00
H71    H     0.94608   0.18201   0.07417   0.00000  Uiso   1.00
H72    H     0.88873   0.88621   0.13871   0.00000  Uiso   1.00
H73    H     0.78790   0.99646   0.02013   0.00000  Uiso   1.00
H74    H     0.01167   0.37841   0.07917   0.00000  Uiso   1.00
H75    H     0.89073   0.75468   0.21523   0.00000  Uiso   1.00
H76    H     0.67811   0.98715   0.96520   0.00000  Uiso   1.00
H77    H     0.72876   0.21329   0.16922   0.00000  Uiso   1.00
H78    H     0.79672   0.37885   0.16817   0.00000  Uiso   1.00
H79    H     0.73937   0.08304   0.23270   0.00000  Uiso   1.00
H80    H     0.63854   0.19329   0.11413   0.00000  Uiso   1.00
H81    H     0.89045   0.53817   0.15546   0.00000  Uiso   1.00
H82    H     0.76950   0.91443   0.29153   0.00000  Uiso   1.00
H83    H     0.55688   0.14691   0.04149   0.00000  Uiso   1.00
O84    O     0.99833   0.56382   0.11503   0.00000  Uiso   1.00
O85    O     0.83964   0.74550   0.29354   0.00000  Uiso   1.00
O86    O     0.56070   0.05051   0.96550   0.00000  Uiso   1.00
N87    N     0.97381   0.39330   0.09726   0.00000  Uiso   1.00
N88    N     0.86074   0.81015   0.22448   0.00000  Uiso   1.00
N89    N     0.66195   0.02747   0.99072   0.00000  Uiso   1.00
N90    N     0.90858   0.47926   0.13831   0.00000  Uiso   1.00
N91    N     0.79551   0.89611   0.26553   0.00000  Uiso   1.00
N92    N     0.59672   0.11344   0.03177   0.00000  Uiso   1.00
C93    C     0.35367   0.24996   0.58867   0.00000  Uiso   1.00
C94    C     0.38555   0.35462   0.59368   0.00000  Uiso   1.00
C95    C     0.43499   0.39031   0.56894   0.00000  Uiso   1.00
C96    C     0.45759   0.48823   0.57860   0.00000  Uiso   1.00
C97    C     0.51107   0.64160   0.58134   0.00000  Uiso   1.00
C98    C     0.35774   0.19775   0.63293   0.00000  Uiso   1.00
C99    C     0.38379   0.10154   0.64118   0.00000  Uiso   1.00
C100   C     0.38298   0.06739   0.68387   0.00000  Uiso   1.00
C101   C     0.39324   0.97719   0.74754   0.00000  Uiso   1.00
C102   C     0.28498   0.27317   0.58130   0.00000  Uiso   1.00
C103   C     0.24984   0.24034   0.54615   0.00000  Uiso   1.00
C104   C     0.18777   0.26968   0.54538   0.00000  Uiso   1.00
C105   C     0.08505   0.29657   0.52889   0.00000  Uiso   1.00
C106   C     0.30590   0.36039   0.64980   0.00000  Uiso   1.00
C107   C     0.35960   0.41460   0.62689   0.00000  Uiso   1.00
C108   C     0.38214   0.51249   0.63658   0.00000  Uiso   1.00
C109   C     0.43160   0.54832   0.61186   0.00000  Uiso   1.00
C110   C     0.33180   0.25773   0.66613   0.00000  Uiso   1.00
C111   C     0.33094   0.22372   0.70882   0.00000  Uiso   1.00
C112   C     0.35699   0.12748   0.71713   0.00000  Uiso   1.00
C113   C     0.25903   0.33315   0.61450   0.00000  Uiso   1.00
C114   C     0.19700   0.36253   0.61379   0.00000  Uiso   1.00
C115   C     0.16177   0.32976   0.57865   0.00000  Uiso   1.00
H116   H     0.37387   0.20325   0.56282   0.00000  Uiso   1.00
H117   H     0.45506   0.34386   0.54325   0.00000  Uiso   1.00
H118   H     0.40386   0.05513   0.61548   0.00000  Uiso   1.00
H119   H     0.26994   0.19393   0.52046   0.00000  Uiso   1.00
H120   H     0.53364   0.52620   0.53621   0.00000  Uiso   1.00
H121   H     0.42568   0.91737   0.68850   0.00000  Uiso   1.00
H122   H     0.14327   0.21004   0.48814   0.00000  Uiso   1.00
H123   H     0.28570   0.40708   0.67566   0.00000  Uiso   1.00
H124   H     0.36205   0.55889   0.66228   0.00000  Uiso   1.00
H125   H     0.31086   0.27015   0.73450   0.00000  Uiso   1.00
H126   H     0.17693   0.40895   0.63949   0.00000  Uiso   1.00
H127   H     0.45816   0.70071   0.63282   0.00000  Uiso   1.00
H128   H     0.35019   0.09189   0.78511   0.00000  Uiso   1.00
H129   H     0.06779   0.38456   0.58475   0.00000  Uiso   1.00
O130   O     0.54773   0.70962   0.57369   0.00000  Uiso   1.00
O131   O     0.40608   0.91086   0.77348   0.00000  Uiso   1.00
O132   O     0.03556   0.29484   0.51062   0.00000  Uiso   1.00
N133   N     0.50539   0.54644   0.56078   0.00000  Uiso   1.00
N134   N     0.40446   0.97724   0.70316   0.00000  Uiso   1.00
N135   N     0.14043   0.25084   0.51585   0.00000  Uiso   1.00
N136   N     0.46477   0.64035   0.61276   0.00000  Uiso   1.00
N137   N     0.36384   0.07115   0.75514   0.00000  Uiso   1.00
N138   N     0.09981   0.34474   0.56783   0.00000  Uiso   1.00
C139   C     0.66209   0.43055   0.60052   0.00000  Uiso   1.00
C140   C     0.64058   0.32028   0.60965   0.00000  Uiso   1.00
C141   C     0.58616   0.27546   0.59446   0.00000  Uiso   1.00
C142   C     0.57486   0.17367   0.60644   0.00000  Uiso   1.00
C143   C     0.53511   0.01083   0.61664   0.00000  Uiso   1.00
C144   C     0.67174   0.48099   0.64472   0.00000  Uiso   1.00
C145   C     0.64351   0.57131   0.65901   0.00000  Uiso   1.00
C146   C     0.65845   0.60480   0.70050   0.00000  Uiso   1.00
C147   C     0.66710   0.69151   0.76513   0.00000  Uiso   1.00
C148   C     0.72652   0.42109   0.58029   0.00000  Uiso   1.00
C149   C     0.74436   0.46105   0.54042   0.00000  Uiso   1.00
C150   C     0.80542   0.44413   0.52767   0.00000  Uiso   1.00
C151   C     0.89913   0.43782   0.49227   0.00000  Uiso   1.00
C152   C     0.73880   0.32946   0.64880   0.00000  Uiso   1.00
C153   C     0.68225   0.26538   0.63588   0.00000  Uiso   1.00
C154   C     0.67103   0.16362   0.64788   0.00000  Uiso   1.00
C155   C     0.61660   0.11866   0.63271   0.00000  Uiso   1.00
C156   C     0.71340   0.42609   0.67094   0.00000  Uiso   1.00
C157   C     0.72838   0.45946   0.71242   0.00000  Uiso   1.00
C158   C     0.70019   0.54980   0.72677   0.00000  Uiso   1.00
C159   C     0.76818   0.36618   0.60651   0.00000  Uiso   1.00
C160   C     0.82923   0.34920   0.59383   0.00000  Uiso   1.00
C161   C     0.84716   0.38912   0.55394   0.00000  Uiso   1.00
H162   H     0.62965   0.47330   0.58011   0.00000  Uiso   1.00
H163   H     0.55392   0.31799   0.57417   0.00000  Uiso   1.00
H164   H     0.61127   0.61379   0.63871   0.00000  Uiso   1.00
H165   H     0.71210   0.50354   0.52013   0.00000  Uiso   1.00
H166   H     0.48833   0.12159   0.57917   0.00000  Uiso   1.00
H167   H     0.60927   0.74532   0.71523   0.00000  Uiso   1.00
H168   H     0.82189   0.51285   0.46520   0.00000  Uiso   1.00
H169   H     0.77124   0.28671   0.66922   0.00000  Uiso   1.00
H170   H     0.70328   0.12115   0.66817   0.00000  Uiso   1.00
H171   H     0.76063   0.41696   0.73270   0.00000  Uiso   1.00
H172   H     0.86146   0.30671   0.61413   0.00000  Uiso   1.00
H173   H     0.60955   0.96183   0.65546   0.00000  Uiso   1.00
H174   H     0.73050   0.58557   0.79153   0.00000  Uiso   1.00
H175   H     0.94312   0.35309   0.54149   0.00000  Uiso   1.00
O176   O     0.50167   0.93618   0.61503   0.00000  Uiso   1.00
O177   O     0.66036   0.75450   0.79354   0.00000  Uiso   1.00
O178   O     0.93930   0.44949   0.46550   0.00000  Uiso   1.00
N179   N     0.52619   0.10670   0.59726   0.00000  Uiso   1.00
N180   N     0.63926   0.68985   0.72448   0.00000  Uiso   1.00
N181   N     0.83805   0.47253   0.49072   0.00000  Uiso   1.00
N182   N     0.59142   0.02074   0.63831   0.00000  Uiso   1.00
N183   N     0.70449   0.60389   0.76553   0.00000  Uiso   1.00
N184   N     0.90328   0.38656   0.53177   0.00000  Uiso   1.00
C185   C     0.85367   0.25004   0.41133   0.00000  Uiso   1.00
C186   C     0.88555   0.14538   0.40632   0.00000  Uiso   1.00
C187   C     0.93499   0.10969   0.43106   0.00000  Uiso   1.00
C188   C     0.95759   0.01177   0.42140   0.00000  Uiso   1.00
C189   C     0.01107   0.85840   0.41866   0.00000  Uiso   1.00
C190   C     0.85774   0.30225   0.36707   0.00000  Uiso   1.00
C191   C     0.88379   0.39846   0.35882   0.00000  Uiso   1.00
C192   C     0.88298   0.43261   0.31613   0.00000  Uiso   1.00
C193   C     0.89324   0.52281   0.25246   0.00000  Uiso   1.00
C194   C     0.78498   0.22683   0.41870   0.00000  Uiso   1.00
C195   C     0.74984   0.25966   0.45385   0.00000  Uiso   1.00
C196   C     0.68777   0.23032   0.45462   0.00000  Uiso   1.00
C197   C     0.58505   0.20343   0.47111   0.00000  Uiso   1.00
C198   C     0.80590   0.13961   0.35020   0.00000  Uiso   1.00
C199   C     0.85960   0.08540   0.37311   0.00000  Uiso   1.00
C200   C     0.88214   0.98751   0.36342   0.00000  Uiso   1.00
C201   C     0.93160   0.95168   0.38814   0.00000  Uiso   1.00
C202   C     0.83180   0.24227   0.33387   0.00000  Uiso   1.00
C203   C     0.83094   0.27628   0.29118   0.00000  Uiso   1.00
C204   C     0.85699   0.37252   0.28287   0.00000  Uiso   1.00
C205   C     0.75903   0.16685   0.38550   0.00000  Uiso   1.00
C206   C     0.69700   0.13747   0.38621   0.00000  Uiso   1.00
C207   C     0.66177   0.17024   0.42135   0.00000  Uiso   1.00
H208   H     0.87387   0.29675   0.43718   0.00000  Uiso   1.00
H209   H     0.95506   0.15614   0.45675   0.00000  Uiso   1.00
H210   H     0.90386   0.44487   0.38452   0.00000  Uiso   1.00
H211   H     0.76994   0.30607   0.47954   0.00000  Uiso   1.00
H212   H     0.03364   0.97380   0.46379   0.00000  Uiso   1.00
H213   H     0.92568   0.58263   0.31150   0.00000  Uiso   1.00
H214   H     0.64327   0.28996   0.51186   0.00000  Uiso   1.00
H215   H     0.78570   0.09292   0.32434   0.00000  Uiso   1.00
H216   H     0.86205   0.94111   0.33772   0.00000  Uiso   1.00
H217   H     0.81086   0.22985   0.26550   0.00000  Uiso   1.00
H218   H     0.67693   0.09105   0.36051   0.00000  Uiso   1.00
H219   H     0.95816   0.79929   0.36718   0.00000  Uiso   1.00
H220   H     0.85019   0.40811   0.21489   0.00000  Uiso   1.00
H221   H     0.56779   0.11544   0.41525   0.00000  Uiso   1.00
O222   O     0.04773   0.79038   0.42631   0.00000  Uiso   1.00
O223   O     0.90608   0.58914   0.22652   0.00000  Uiso   1.00
O224   O     0.53556   0.20516   0.48938   0.00000  Uiso   1.00
N225   N     0.00539   0.95356   0.43922   0.00000  Uiso   1.00
N226   N     0.90446   0.52276   0.29684   0.00000  Uiso   1.00
N227   N     0.64043   0.24916   0.48415   0.00000  Uiso   1.00
N228   N     0.96477   0.85965   0.38724   0.00000  Uiso   1.00
N229   N     0.86384   0.42885   0.24486   0.00000  Uiso   1.00
N230   N     0.59981   0.15526   0.43217   0.00000  Uiso   1.00
C231   C     0.16209   0.06945   0.39948   0.00000  Uiso   1.00
C232   C     0.14058   0.17972   0.39035   0.00000  Uiso   1.00
C233   C     0.08616   0.22454   0.40554   0.00000  Uiso   1.00
C234   C     0.07486   0.32633   0.39356   0.00000  Uiso   1.00
C235   C     0.03511   0.48917   0.38336   0.00000  Uiso   1.00
C236   C     0.17174   0.01901   0.35528   0.00000  Uiso   1.00
C237   C     0.14351   0.92869   0.34099   0.00000  Uiso   1.00
C238   C     0.15845   0.89520   0.29950   0.00000  Uiso   1.00
C239   C     0.16710   0.80849   0.23487   0.00000  Uiso   1.00
C240   C     0.22652   0.07891   0.41971   0.00000  Uiso   1.00
C241   C     0.24436   0.03895   0.45958   0.00000  Uiso   1.00
C242   C     0.30542   0.05587   0.47233   0.00000  Uiso   1.00
C243   C     0.39913   0.06218   0.50773   0.00000  Uiso   1.00
C244   C     0.23880   0.17054   0.35120   0.00000  Uiso   1.00
C245   C     0.18225   0.23462   0.36412   0.00000  Uiso   1.00
C246   C     0.17103   0.33638   0.35212   0.00000  Uiso   1.00
C247   C     0.11660   0.38134   0.36729   0.00000  Uiso   1.00
C248   C     0.21340   0.07391   0.32906   0.00000  Uiso   1.00
C249   C     0.22838   0.04054   0.28758   0.00000  Uiso   1.00
C250   C     0.20019   0.95020   0.27323   0.00000  Uiso   1.00
C251   C     0.26818   0.13382   0.39349   0.00000  Uiso   1.00
C252   C     0.32923   0.15080   0.40617   0.00000  Uiso   1.00
C253   C     0.34716   0.11088   0.44606   0.00000  Uiso   1.00
H254   H     0.12965   0.02670   0.41989   0.00000  Uiso   1.00
H255   H     0.05392   0.18201   0.42583   0.00000  Uiso   1.00
H256   H     0.11127   0.88621   0.36129   0.00000  Uiso   1.00
H257   H     0.21210   0.99646   0.47987   0.00000  Uiso   1.00
H258   H     0.98833   0.37841   0.42083   0.00000  Uiso   1.00
H259   H     0.10927   0.75468   0.28477   0.00000  Uiso   1.00
H260   H     0.32189   0.98715   0.53480   0.00000  Uiso   1.00
H261   H     0.27124   0.21329   0.33078   0.00000  Uiso   1.00
H262   H     0.20328   0.37885   0.33183   0.00000  Uiso   1.00
H263   H     0.26063   0.08304   0.26730   0.00000  Uiso   1.00
H264   H     0.36146   0.19329   0.38587   0.00000  Uiso   1.00
H265   H     0.10955   0.53817   0.34454   0.00000  Uiso   1.00
H266   H     0.23050   0.91443   0.20847   0.00000  Uiso   1.00
H267   H     0.44312   0.14691   0.45851   0.00000  Uiso   1.00
O268   O     0.00167   0.56382   0.38497   0.00000  Uiso   1.00
O269   O     0.16036   0.74550   0.20646   0.00000  Uiso   1.00
O270   O     0.43930   0.05051   0.53450   0.00000  Uiso   1.00
N271   N     0.02619   0.39330   0.40274   0.00000  Uiso   1.00
N272   N     0.13926   0.81015   0.27552   0.00000  Uiso   1.00
N273   N     0.33805   0.02747   0.50928   0.00000  Uiso   1.00
N274   N     0.09142   0.47926   0.36169   0.00000  Uiso   1.00
N275   N     0.20449   0.89611   0.23447   0.00000  Uiso   1.00
N276   N     0.40328   0.11344   0.46823   0.00000  Uiso   1.00
C277   C     0.64633   0.24996   0.91133   0.00000  Uiso   1.00
C278   C     0.61445   0.35462   0.90632   0.00000  Uiso   1.00
C279   C     0.56501   0.39031   0.93106   0.00000  Uiso   1.00
C280   C     0.54241   0.48823   0.92140   0.00000  Uiso   1.00
C281   C     0.48893   0.64160   0.91866   0.00000  Uiso   1.00
C282   C     0.64226   0.19775   0.86707   0.00000  Uiso   1.00
C283   C     0.61621   0.10154   0.85882   0.00000  Uiso   1.00
C284   C     0.61702   0.06739   0.81613   0.00000  Uiso   1.00
C285   C     0.60676   0.97719   0.75246   0.00000  Uiso   1.00
C286   C     0.71502   0.27317   0.91870   0.00000  Uiso   1.00
C287   C     0.75016   0.24034   0.95385   0.00000  Uiso   1.00
C288   C     0.81223   0.26968   0.95462   0.00000  Uiso   1.00
C289   C     0.91495   0.29657   0.97111   0.00000  Uiso   1.00
C290   C     0.69410   0.36039   0.85020   0.00000  Uiso   1.00
C291   C     0.64040   0.41460   0.87311   0.00000  Uiso   1.00
C292   C     0.61786   0.51249   0.86342   0.00000  Uiso   1.00
C293   C     0.56840   0.54832   0.88814   0.00000  Uiso   1.00
C294   C     0.66820   0.25773   0.83387   0.00000  Uiso   1.00
C295   C     0.66906   0.22372   0.79118   0.00000  Uiso   1.00
C296   C     0.64301   0.12748   0.78287   0.00000  Uiso   1.00
C297   C     0.74097   0.33315   0.88550   0.00000  Uiso   1.00
C298   C     0.80300   0.36253   0.88621   0.00000  Uiso   1.00
C299   C     0.83823   0.32976   0.92135   0.00000  Uiso   1.00
H300   H     0.62613   0.20325   0.93718   0.00000  Uiso   1.00
H301   H     0.54494   0.34386   0.95675   0.00000  Uiso   1.00
H302   H     0.59614   0.05513   0.88452   0.00000  Uiso   1.00
H303   H     0.73006   0.19393   0.97954   0.00000  Uiso   1.00
H304   H     0.46636   0.52620   0.96379   0.00000  Uiso   1.00
H305   H     0.57432   0.91737   0.81150   0.00000  Uiso   1.00
H306   H     0.85673   0.21004   0.01186   0.00000  Uiso   1.00
H307   H     0.71430   0.40708   0.82434   0.00000  Uiso   1.00
H308   H     0.63795   0.55889   0.83772   0.00000  Uiso   1.00
H309   H     0.68914   0.27015   0.76550   0.00000  Uiso   1.00
H310   H     0.82307   0.40895   0.86051   0.00000  Uiso   1.00
H311   H     0.54184   0.70071   0.86718   0.00000  Uiso   1.00
H312   H     0.64981   0.09189   0.71489   0.00000  Uiso   1.00
H313   H     0.93221   0.38456   0.91525   0.00000  Uiso   1.00
O314   O     0.45227   0.70962   0.92631   0.00000  Uiso   1.00
O315   O     0.59392   0.91086   0.72652   0.00000  Uiso   1.00
O316   O     0.96444   0.29484   0.98938   0.00000  Uiso   1.00
N317   N     0.49461   0.54644   0.93922   0.00000  Uiso   1.00
N318   N     0.59554   0.97724   0.79684   0.00000  Uiso   1.00
N319   N     0.85957   0.25084   0.98415   0.00000  Uiso   1.00
N320   N     0.53523   0.64035   0.88724   0.00000  Uiso   1.00
N321   N     0.63616   0.07115   0.74486   0.00000  Uiso   1.00
N322   N     0.90019   0.34474   0.93217   0.00000  Uiso   1.00
C323   C     0.33791   0.43055   0.89948   0.00000  Uiso   1.00
C324   C     0.35942   0.32028   0.89035   0.00000  Uiso   1.00
C325   C     0.41384   0.27546   0.90554   0.00000  Uiso   1.00
C326   C     0.42514   0.17367   0.89356   0.00000  Uiso   1.00
C327   C     0.46489   0.01083   0.88336   0.00000  Uiso   1.00
C328   C     0.32826   0.48099   0.85528   0.00000  Uiso   1.00
C329   C     0.35649   0.57131   0.84099   0.00000  Uiso   1.00
C330   C     0.34155   0.60480   0.79950   0.00000  Uiso   1.00
C331   C     0.33290   0.69151   0.73487   0.00000  Uiso   1.00
C332   C     0.27348   0.42109   0.91971   0.00000  Uiso   1.00
C333   C     0.25564   0.46105   0.95958   0.00000  Uiso   1.00
C334   C     0.19458   0.44413   0.97233   0.00000  Uiso   1.00
C335   C     0.10087   0.43782   0.00773   0.00000  Uiso   1.00
C336   C     0.26120   0.32946   0.85120   0.00000  Uiso   1.00
C337   C     0.31775   0.26538   0.86412   0.00000  Uiso   1.00
C338   C     0.32897   0.16362   0.85212   0.00000  Uiso   1.00
C339   C     0.38340   0.11866   0.86729   0.00000  Uiso   1.00
C340   C     0.28660   0.42609   0.82906   0.00000  Uiso   1.00
C341   C     0.27162   0.45946   0.78758   0.00000  Uiso   1.00
C342   C     0.29981   0.54980   0.77323   0.00000  Uiso   1.00
C343   C     0.23182   0.36618   0.89349   0.00000  Uiso   1.00
C344   C     0.17077   0.34920   0.90617   0.00000  Uiso   1.00
C345   C     0.15284   0.38912   0.94606   0.00000  Uiso   1.00
H346   H     0.37035   0.47330   0.91989   0.00000  Uiso   1.00
H347   H     0.44608   0.31799   0.92583   0.00000  Uiso   1.00
H348   H     0.38873   0.61379   0.86129   0.00000  Uiso   1.00
H349   H     0.28790   0.50354   0.97987   0.00000  Uiso   1.00
H350   H     0.51167   0.12159   0.92083   0.00000  Uiso   1.00
H351   H     0.39073   0.74532   0.78477   0.00000  Uiso   1.00
H352   H     0.17811   0.51285   0.03480   0.00000  Uiso   1.00
H353   H     0.22876   0.28671   0.83078   0.00000  Uiso   1.00
H354   H     0.29672   0.12115   0.83183   0.00000  Uiso   1.00
H355   H     0.23937   0.41696   0.76730   0.00000  Uiso   1.00
H356   H     0.13854   0.30671   0.88587   0.00000  Uiso   1.00
H357   H     0.39045   0.96183   0.84454   0.00000  Uiso   1.00
H358   H     0.26950   0.58557   0.70847   0.00000  Uiso   1.00
H359   H     0.05688   0.35309   0.95851   0.00000  Uiso   1.00
O360   O     0.49833   0.93618   0.88497   0.00000  Uiso   1.00
O361   O     0.33964   0.75450   0.70646   0.00000  Uiso   1.00
O362   O     0.06070   0.44949   0.03450   0.00000  Uiso   1.00
N363   N     0.47381   0.10670   0.90274   0.00000  Uiso   1.00
N364   N     0.36074   0.68985   0.77552   0.00000  Uiso   1.00
N365   N     0.16195   0.47253   0.00928   0.00000  Uiso   1.00
N366   N     0.40858   0.02074   0.86169   0.00000  Uiso   1.00
N367   N     0.29551   0.60389   0.73447   0.00000  Uiso   1.00
N368   N     0.09672   0.38656   0.96823   0.00000  Uiso   1.00
C369   C     0.85367   0.74996   0.91133   0.00000  Uiso   1.00
C370   C     0.88555   0.85462   0.90632   0.00000  Uiso   1.00
C371   C     0.93499   0.89031   0.93106   0.00000  Uiso   1.00
C372   C     0.95759   0.98823   0.92140   0.00000  Uiso   1.00
C373   C     0.01107   0.14160   0.91866   0.00000  Uiso   1.00
C374   C     0.85774   0.69775   0.86707   0.00000  Uiso   1.00
C375   C     0.88379   0.60154   0.85882   0.00000  Uiso   1.00
C376   C     0.88298   0.56739   0.81613   0.00000  Uiso   1.00
C377   C     0.89324   0.47719   0.75246   0.00000  Uiso   1.00
C378   C     0.78498   0.77317   0.91870   0.00000  Uiso   1.00
C379   C     0.74984   0.74034   0.95385   0.00000  Uiso   1.00
C380   C     0.68777   0.76968   0.95462   0.00000  Uiso   1.00
C381   C     0.58505   0.79657   0.97111   0.00000  Uiso   1.00
C382   C     0.80590   0.86039   0.85020   0.00000  Uiso   1.00
C383   C     0.85960   0.91460   0.87311   0.00000  Uiso   1.00
C384   C     0.88214   0.01249   0.86342   0.00000  Uiso   1.00
C385   C     0.93160   0.04832   0.88814   0.00000  Uiso   1.00
C386   C     0.83180   0.75773   0.83387   0.00000  Uiso   1.00
C387   C     0.83094   0.72372   0.79118   0.00000  Uiso   1.00
C388   C     0.85699   0.62748   0.78287   0.00000  Uiso   1.00
C389   C     0.75903   0.83315   0.88550   0.00000  Uiso   1.00
C390   C     0.69700   0.86253   0.88621   0.00000  Uiso   1.00
C391   C     0.66177   0.82976   0.92135   0.00000  Uiso   1.00
H392   H     0.87387   0.70325   0.93718   0.00000  Uiso   1.00
H393   H     0.95506   0.84386   0.95675   0.00000  Uiso   1.00
H394   H     0.90386   0.55513   0.88452   0.00000  Uiso   1.00
H395   H     0.76994   0.69393   0.97954   0.00000  Uiso   1.00
H396   H     0.03364   0.02620   0.96379   0.00000  Uiso   1.00
H397   H     0.92568   0.41737   0.81150   0.00000  Uiso   1.00
H398   H     0.64327   0.71004   0.01186   0.00000  Uiso   1.00
H399   H     0.78570   0.90708   0.82434   0.00000  Uiso   1.00
H400   H     0.86205   0.05889   0.83772   0.00000  Uiso   1.00
H401   H     0.81086   0.77015   0.76550   0.00000  Uiso   1.00
H402   H     0.67693   0.90895   0.86051   0.00000  Uiso   1.00
H403   H     0.95816   0.20071   0.86718   0.00000  Uiso   1.00
H404   H     0.85019   0.59189   0.71489   0.00000  Uiso   1.00
H405   H     0.56779   0.88456   0.91525   0.00000  Uiso   1.00
O406   O     0.04773   0.20962   0.92631   0.00000  Uiso   1.00
O407   O     0.90608   0.41086   0.72652   0.00000  Uiso   1.00
O408   O     0.53556   0.79484   0.98938   0.00000  Uiso   1.00
N409   N     0.00539   0.04644   0.93922   0.00000  Uiso   1.00
N410   N     0.90446   0.47724   0.79684   0.00000  Uiso   1.00
N411   N     0.64043   0.75084   0.98415   0.00000  Uiso   1.00
N412   N     0.96477   0.14035   0.88724   0.00000  Uiso   1.00
N413   N     0.86384   0.57115   0.74486   0.00000  Uiso   1.00
N414   N     0.59981   0.84474   0.93217   0.00000  Uiso   1.00
C415   C     0.16209   0.93055   0.89948   0.00000  Uiso   1.00
C416   C     0.14058   0.82028   0.89035   0.00000  Uiso   1.00
C417   C     0.08616   0.77546   0.90554   0.00000  Uiso   1.00
C418   C     0.07486   0.67367   0.89356   0.00000  Uiso   1.00
C419   C     0.03511   0.51083   0.88336   0.00000  Uiso   1.00
C420   C     0.17174   0.98099   0.85528   0.00000  Uiso   1.00
C421   C     0.14351   0.07131   0.84099   0.00000  Uiso   1.00
C422   C     0.15845   0.10480   0.79950   0.00000  Uiso   1.00
C423   C     0.16710   0.19151   0.73487   0.00000  Uiso   1.00
C424   C     0.22652   0.92109   0.91971   0.00000  Uiso   1.00
C425   C     0.24436   0.96105   0.95958   0.00000  Uiso   1.00
C426   C     0.30542   0.94413   0.97233   0.00000  Uiso   1.00
C427   C     0.39913   0.93782   0.00773   0.00000  Uiso   1.00
C428   C     0.23880   0.82946   0.85120   0.00000  Uiso   1.00
C429   C     0.18225   0.76538   0.86412   0.00000  Uiso   1.00
C430   C     0.17103   0.66362   0.85212   0.00000  Uiso   1.00
C431   C     0.11660   0.61866   0.86729   0.00000  Uiso   1.00
C432   C     0.21340   0.92609   0.82906   0.00000  Uiso   1.00
C433   C     0.22838   0.95946   0.78758   0.00000  Uiso   1.00
C434   C     0.20019   0.04980   0.77323   0.00000  Uiso   1.00
C435   C     0.26818   0.86618   0.89349   0.00000  Uiso   1.00
C436   C     0.32923   0.84920   0.90617   0.00000  Uiso   1.00
C437   C     0.34716   0.88912   0.94606   0.00000  Uiso   1.00
H438   H     0.12965   0.97330   0.91989   0.00000  Uiso   1.00
H439   H     0.05392   0.81799   0.92583   0.00000  Uiso   1.00
H440   H     0.11127   0.11379   0.86129   0.00000  Uiso   1.00
H441   H     0.21210   0.00354   0.97987   0.00000  Uiso   1.00
H442   H     0.98833   0.62159   0.92083   0.00000  Uiso   1.00
H443   H     0.10927   0.24532   0.78477   0.00000  Uiso   1.00
H444   H     0.32189   0.01285   0.03480   0.00000  Uiso   1.00
H445   H     0.27124   0.78671   0.83078   0.00000  Uiso   1.00
H446   H     0.20328   0.62115   0.83183   0.00000  Uiso   1.00
H447   H     0.26063   0.91696   0.76730   0.00000  Uiso   1.00
H448   H     0.36146   0.80671   0.88587   0.00000  Uiso   1.00
H449   H     0.10955   0.46183   0.84454   0.00000  Uiso   1.00
H450   H     0.23050   0.08557   0.70847   0.00000  Uiso   1.00
H451   H     0.44312   0.85309   0.95851   0.00000  Uiso   1.00
O452   O     0.00167   0.43618   0.88497   0.00000  Uiso   1.00
O453   O     0.16036   0.25450   0.70646   0.00000  Uiso   1.00
O454   O     0.43930   0.94949   0.03450   0.00000  Uiso   1.00
N455   N     0.02619   0.60670   0.90274   0.00000  Uiso   1.00
N456   N     0.13926   0.18985   0.77552   0.00000  Uiso   1.00
N457   N     0.33805   0.97253   0.00928   0.00000  Uiso   1.00
N458   N     0.09142   0.52074   0.86169   0.00000  Uiso   1.00
N459   N     0.20449   0.10389   0.73447   0.00000  Uiso   1.00
N460   N     0.40328   0.88656   0.96823   0.00000  Uiso   1.00
C461   C     0.64633   0.75004   0.41133   0.00000  Uiso   1.00
C462   C     0.61445   0.64538   0.40632   0.00000  Uiso   1.00
C463   C     0.56501   0.60969   0.43106   0.00000  Uiso   1.00
C464   C     0.54241   0.51177   0.42140   0.00000  Uiso   1.00
C465   C     0.48893   0.35840   0.41866   0.00000  Uiso   1.00
C466   C     0.64226   0.80225   0.36707   0.00000  Uiso   1.00
C467   C     0.61621   0.89846   0.35882   0.00000  Uiso   1.00
C468   C     0.61702   0.93261   0.31613   0.00000  Uiso   1.00
C469   C     0.60676   0.02281   0.25246   0.00000  Uiso   1.00
C470   C     0.71502   0.72683   0.41870   0.00000  Uiso   1.00
C471   C     0.75016   0.75966   0.45385   0.00000  Uiso   1.00
C472   C     0.81223   0.73032   0.45462   0.00000  Uiso   1.00
C473   C     0.91495   0.70343   0.47111   0.00000  Uiso   1.00
C474   C     0.69410   0.63961   0.35020   0.00000  Uiso   1.00
C475   C     0.64040   0.58540   0.37311   0.00000  Uiso   1.00
C476   C     0.61786   0.48751   0.36342   0.00000  Uiso   1.00
C477   C     0.56840   0.45168   0.38814   0.00000  Uiso   1.00
C478   C     0.66820   0.74227   0.33387   0.00000  Uiso   1.00
C479   C     0.66906   0.77628   0.29118   0.00000  Uiso   1.00
C480   C     0.64301   0.87252   0.28287   0.00000  Uiso   1.00
C481   C     0.74097   0.66685   0.38550   0.00000  Uiso   1.00
C482   C     0.80300   0.63747   0.38621   0.00000  Uiso   1.00
C483   C     0.83823   0.67024   0.42135   0.00000  Uiso   1.00
H484   H     0.62613   0.79675   0.43718   0.00000  Uiso   1.00
H485   H     0.54494   0.65614   0.45675   0.00000  Uiso   1.00
H486   H     0.59614   0.94487   0.38452   0.00000  Uiso   1.00
H487   H     0.73006   0.80607   0.47954   0.00000  Uiso   1.00
H488   H     0.46636   0.47380   0.46379   0.00000  Uiso   1.00
H489   H     0.57432   0.08263   0.31150   0.00000  Uiso   1.00
H490   H     0.85673   0.78996   0.51186   0.00000  Uiso   1.00
H491   H     0.71430   0.59292   0.32434   0.00000  Uiso   1.00
H492   H     0.63795   0.44111   0.33772   0.00000  Uiso   1.00
H493   H     0.68914   0.72985   0.26550   0.00000  Uiso   1.00
H494   H     0.82307   0.59105   0.36051   0.00000  Uiso   1.00
H495   H     0.54184   0.29929   0.36718   0.00000  Uiso   1.00
H496   H     0.64981   0.90811   0.21489   0.00000  Uiso   1.00
H497   H     0.93221   0.61544   0.41525   0.00000  Uiso   1.00
O498   O     0.45227   0.29038   0.42631   0.00000  Uiso   1.00
O499   O     0.59392   0.08914   0.22652   0.00000  Uiso   1.00
O500   O     0.96444   0.70516   0.48938   0.00000  Uiso   1.00
N501   N     0.49461   0.45356   0.43922   0.00000  Uiso   1.00
N502   N     0.59554   0.02276   0.29684   0.00000  Uiso   1.00
N503   N     0.85957   0.74916   0.48415   0.00000  Uiso   1.00
N504   N     0.53523   0.35965   0.38724   0.00000  Uiso   1.00
N505   N     0.63616   0.92885   0.24486   0.00000  Uiso   1.00
N506   N     0.90019   0.65526   0.43217   0.00000  Uiso   1.00
C507   C     0.33791   0.56945   0.39948   0.00000  Uiso   1.00
C508   C     0.35942   0.67972   0.39035   0.00000  Uiso   1.00
C509   C     0.41384   0.72454   0.40554   0.00000  Uiso   1.00
C510   C     0.42514   0.82633   0.39356   0.00000  Uiso   1.00
C511   C     0.46489   0.98917   0.38336   0.00000  Uiso   1.00
C512   C     0.32826   0.51901   0.35528   0.00000  Uiso   1.00
C513   C     0.35649   0.42869   0.34099   0.00000  Uiso   1.00
C514   C     0.34155   0.39520   0.29950   0.00000  Uiso   1.00
C515   C     0.33290   0.30849   0.23487   0.00000  Uiso   1.00
C516   C     0.27348   0.57891   0.41971   0.00000  Uiso   1.00
C517   C     0.25564   0.53895   0.45958   0.00000  Uiso   1.00
C518   C     0.19458   0.55587   0.47233   0.00000  Uiso   1.00
C519   C     0.10087   0.56218   0.50773   0.00000  Uiso   1.00
C520   C     0.26120   0.67054   0.35120   0.00000  Uiso   1.00
C521   C     0.31775   0.73462   0.36412   0.00000  Uiso   1.00
C522   C     0.32897   0.83638   0.35212   0.00000  Uiso   1.00
C523   C     0.38340   0.88134   0.36729   0.00000  Uiso   1.00
C524   C     0.28660   0.57391   0.32906   0.00000  Uiso   1.00
C525   C     0.27162   0.54054   0.28758   0.00000  Uiso   1.00
C526   C     0.29981   0.45020   0.27323   0.00000  Uiso   1.00
C527   C     0.23182   0.63382   0.39349   0.00000  Uiso   1.00
C528   C     0.17077   0.65080   0.40617   0.00000  Uiso   1.00
C529   C     0.15284   0.61088   0.44606   0.00000  Uiso   1.00
H530   H     0.37035   0.52670   0.41989   0.00000  Uiso   1.00
H531   H     0.44608   0.68201   0.42583   0.00000  Uiso   1.00
H532   H     0.38873   0.38621   0.36129   0.00000  Uiso   1.00
H533   H     0.28790   0.49646   0.47987   0.00000  Uiso   1.00
H534   H     0.51167   0.87841   0.42083   0.00000  Uiso   1.00
H535   H     0.39073   0.25468   0.28477   0.00000  Uiso   1.00
H536   H     0.17811   0.48715   0.53480   0.00000  Uiso   1.00
H537   H     0.22876   0.71329   0.33078   0.00000  Uiso   1.00
H538   H     0.29672   0.87885   0.33183   0.00000  Uiso   1.00
H539   H     0.23937   0.58304   0.26730   0.00000  Uiso   1.00
H540   H     0.13854   0.69329   0.38587   0.00000  Uiso   1.00
H541   H     0.39045   0.03817   0.34454   0.00000  Uiso   1.00
H542   H     0.26950   0.41443   0.20847   0.00000  Uiso   1.00
H543   H     0.05688   0.64691   0.45851   0.00000  Uiso   1.00
O544   O     0.49833   0.06382   0.38497   0.00000  Uiso   1.00
O545   O     0.33964   0.24550   0.20646   0.00000  Uiso   1.00
O546   O     0.06070   0.55051   0.53450   0.00000  Uiso   1.00
N547   N     0.47381   0.89330   0.40274   0.00000  Uiso   1.00
N548   N     0.36074   0.31015   0.27552   0.00000  Uiso   1.00
N549   N     0.16195   0.52747   0.50928   0.00000  Uiso   1.00
N550   N     0.40858   0.97926   0.36169   0.00000  Uiso   1.00
N551   N     0.29551   0.39611   0.23447   0.00000  Uiso   1.00
N552   N     0.09672   0.61344   0.46823   0.00000  Uiso   1.00
C553   C     0.14633   0.74996   0.58867   0.00000  Uiso   1.00
C554   C     0.11445   0.85462   0.59368   0.00000  Uiso   1.00
C555   C     0.06501   0.89031   0.56894   0.00000  Uiso   1.00
C556   C     0.04241   0.98823   0.57860   0.00000  Uiso   1.00
C557   C     0.98893   0.14160   0.58134   0.00000  Uiso   1.00
C558   C     0.14226   0.69775   0.63293   0.00000  Uiso   1.00
C559   C     0.11621   0.60154   0.64118   0.00000  Uiso   1.00
C560   C     0.11702   0.56739   0.68387   0.00000  Uiso   1.00
C561   C     0.10676   0.47719   0.74754   0.00000  Uiso   1.00
C562   C     0.21502   0.77317   0.58130   0.00000  Uiso   1.00
C563   C     0.25016   0.74034   0.54615   0.00000  Uiso   1.00
C564   C     0.31223   0.76968   0.54538   0.00000  Uiso   1.00
C565   C     0.41495   0.79657   0.52889   0.00000  Uiso   1.00
C566   C     0.19410   0.86039   0.64980   0.00000  Uiso   1.00
C567   C     0.14040   0.91460   0.62689   0.00000  Uiso   1.00
C568   C     0.11786   0.01249   0.63658   0.00000  Uiso   1.00
C569   C     0.06840   0.04832   0.61186   0.00000  Uiso   1.00
C570   C     0.16820   0.75773   0.66613   0.00000  Uiso   1.00
C571   C     0.16906   0.72372   0.70882   0.00000  Uiso   1.00
C572   C     0.14301   0.62748   0.71713   0.00000  Uiso   1.00
C573   C     0.24097   0.83315   0.61450   0.00000  Uiso   1.00
C574   C     0.30300   0.86253   0.61379   0.00000  Uiso   1.00
C575   C     0.33823   0.82976   0.57865   0.00000  Uiso   1.00
H576   H     0.12613   0.70325   0.56282   0.00000  Uiso   1.00
H577   H     0.04494   0.84386   0.54325   0.00000  Uiso   1.00
H578   H     0.09614   0.55513   0.61548   0.00000  Uiso   1.00
H579   H     0.23006   0.69393   0.52046   0.00000  Uiso   1.00
H580   H     0.96636   0.02620   0.53621   0.00000  Uiso   1.00
H581   H     0.07432   0.41737   0.68850   0.00000  Uiso   1.00
H582   H     0.35673   0.71004   0.48814   0.00000  Uiso   1.00
H583   H     0.21430   0.90708   0.67566   0.00000  Uiso   1.00
H584   H     0.13795   0.05889   0.66228   0.00000  Uiso   1.00
H585   H     0.18914   0.77015   0.73450   0.00000  Uiso   1.00
H586   H     0.32307   0.90895   0.63949   0.00000  Uiso   1.00
H587   H     0.04184   0.20071   0.63282   0.00000  Uiso   1.00
H588   H     0.14981   0.59189   0.78511   0.00000  Uiso   1.00
H589   H     0.43221   0.88456   0.58475   0.00000  Uiso   1.00
O590   O     0.95227   0.20962   0.57369   0.00000  Uiso   1.00
O591   O     0.09392   0.41086   0.77348   0.00000  Uiso   1.00
O592   O     0.46444   0.79484   0.51062   0.00000  Uiso   1.00
N593   N     0.99461   0.04644   0.56078   0.00000  Uiso   1.00
N594   N     0.09554   0.47724   0.70316   0.00000  Uiso   1.00
N595   N     0.35957   0.75084   0.51585   0.00000  Uiso   1.00
N596   N     0.03523   0.14035   0.61276   0.00000  Uiso   1.00
N597   N     0.13616   0.57115   0.75514   0.00000  Uiso   1.00
N598   N     0.40019   0.84474   0.56783   0.00000  Uiso   1.00
C599   C     0.83791   0.93055   0.60052   0.00000  Uiso   1.00
C600   C     0.85942   0.82028   0.60965   0.00000  Uiso   1.00
C601   C     0.91384   0.77546   0.59446   0.00000  Uiso   1.00
C602   C     0.92514   0.67367   0.60644   0.00000  Uiso   1.00
C603   C     0.96489   0.51083   0.61664   0.00000  Uiso   1.00
C604   C     0.82826   0.98099   0.64472   0.00000  Uiso   1.00
C605   C     0.85649   0.07131   0.65901   0.00000  Uiso   1.00
C606   C     0.84155   0.10480   0.70050   0.00000  Uiso   1.00
C607   C     0.83290   0.19151   0.76513   0.00000  Uiso   1.00
C608   C     0.77348   0.92109   0.58029   0.00000  Uiso   1.00
C609   C     0.75564   0.96105   0.54042   0.00000  Uiso   1.00
C610   C     0.69458   0.94413   0.52767   0.00000  Uiso   1.00
C611   C     0.60087   0.93782   0.49227   0.00000  Uiso   1.00
C612   C     0.76120   0.82946   0.64880   0.00000  Uiso   1.00
C613   C     0.81775   0.76538   0.63588   0.00000  Uiso   1.00
C614   C     0.82897   0.66362   0.64788   0.00000  Uiso   1.00
C615   C     0.88340   0.61866   0.63271   0.00000  Uiso   1.00
C616   C     0.78660   0.92609   0.67094   0.00000  Uiso   1.00
C617   C     0.77162   0.95946   0.71242   0.00000  Uiso   1.00
C618   C     0.79981   0.04980   0.72677   0.00000  Uiso   1.00
C619   C     0.73182   0.86618   0.60651   0.00000  Uiso   1.00
C620   C     0.67077   0.84920   0.59383   0.00000  Uiso   1.00
C621   C     0.65284   0.88912   0.55394   0.00000  Uiso   1.00
H622   H     0.87035   0.97330   0.58011   0.00000  Uiso   1.00
H623   H     0.94608   0.81799   0.57417   0.00000  Uiso   1.00
H624   H     0.88873   0.11379   0.63871   0.00000  Uiso   1.00
H625   H     0.78790   0.00354   0.52013   0.00000  Uiso   1.00
H626   H     0.01167   0.62159   0.57917   0.00000  Uiso   1.00
H627   H     0.89073   0.24532   0.71523   0.00000  Uiso   1.00
H628   H     0.67811   0.01285   0.46520   0.00000  Uiso   1.00
H629   H     0.72876   0.78671   0.66922   0.00000  Uiso   1.00
H630   H     0.79672   0.62115   0.66817   0.00000  Uiso   1.00
H631   H     0.73937   0.91696   0.73270   0.00000  Uiso   1.00
H632   H     0.63854   0.80671   0.61413   0.00000  Uiso   1.00
H633   H     0.89045   0.46183   0.65546   0.00000  Uiso   1.00
H634   H     0.76950   0.08557   0.79153   0.00000  Uiso   1.00
H635   H     0.55688   0.85309   0.54149   0.00000  Uiso   1.00
O636   O     0.99833   0.43618   0.61503   0.00000  Uiso   1.00
O637   O     0.83964   0.25450   0.79354   0.00000  Uiso   1.00
O638   O     0.56070   0.94949   0.46550   0.00000  Uiso   1.00
N639   N     0.97381   0.60670   0.59726   0.00000  Uiso   1.00
N640   N     0.86074   0.18985   0.72448   0.00000  Uiso   1.00
N641   N     0.66195   0.97253   0.49072   0.00000  Uiso   1.00
N642   N     0.90858   0.52074   0.63831   0.00000  Uiso   1.00
N643   N     0.79551   0.10389   0.76553   0.00000  Uiso   1.00
N644   N     0.59672   0.88656   0.53177   0.00000  Uiso   1.00
C645   C     0.35367   0.75004   0.08867   0.00000  Uiso   1.00
C646   C     0.38555   0.64538   0.09368   0.00000  Uiso   1.00
C647   C     0.43499   0.60969   0.06894   0.00000  Uiso   1.00
C648   C     0.45759   0.51177   0.07860   0.00000  Uiso   1.00
C649   C     0.51107   0.35840   0.08134   0.00000  Uiso   1.00
C650   C     0.35774   0.80225   0.13293   0.00000  Uiso   1.00
C651   C     0.38379   0.89846   0.14118   0.00000  Uiso   1.00
C652   C     0.38298   0.93261   0.18387   0.00000  Uiso   1.00
C653   C     0.39324   0.02281   0.24754   0.00000  Uiso   1.00
C654   C     0.28498   0.72683   0.08130   0.00000  Uiso   1.00
C655   C     0.24984   0.75966   0.04615   0.00000  Uiso   1.00
C656   C     0.18777   0.73032   0.04538   0.00000  Uiso   1.00
C657   C     0.08505   0.70343   0.02889   0.00000  Uiso   1.00
C658   C     0.30590   0.63961   0.14980   0.00000  Uiso   1.00
C659   C     0.35960   0.58540   0.12689   0.00000  Uiso   1.00
C660   C     0.38214   0.48751   0.13658   0.00000  Uiso   1.00
C661   C     0.43160   0.45168   0.11186   0.00000  Uiso   1.00
C662   C     0.33180   0.74227   0.16613   0.00000  Uiso   1.00
C663   C     0.33094   0.77628   0.20882   0.00000  Uiso   1.00
C664   C     0.35699   0.87252   0.21713   0.00000  Uiso   1.00
C665   C     0.25903   0.66685   0.11450   0.00000  Uiso   1.00
C666   C     0.19700   0.63747   0.11379   0.00000  Uiso   1.00
C667   C     0.16177   0.67024   0.07865   0.00000  Uiso   1.00
H668   H     0.37387   0.79675   0.06282   0.00000  Uiso   1.00
H669   H     0.45506   0.65614   0.04325   0.00000  Uiso   1.00
H670   H     0.40386   0.94487   0.11548   0.00000  Uiso   1.00
H671   H     0.26994   0.80607   0.02046   0.00000  Uiso   1.00
H672   H     0.53364   0.47380   0.03621   0.00000  Uiso   1.00
H673   H     0.42568   0.08263   0.18850   0.00000  Uiso   1.00
H674   H     0.14327   0.78996   0.98814   0.00000  Uiso   1.00
H675   H     0.28570   0.59292   0.17566   0.00000  Uiso   1.00
H676   H     0.36205   0.44111   0.16228   0.00000  Uiso   1.00
H677   H     0.31086   0.72985   0.23450   0.00000  Uiso   1.00
H678   H     0.17693   0.59105   0.13949   0.00000  Uiso   1.00
H679   H     0.45816   0.29929   0.13282   0.00000  Uiso   1.00
H680   H     0.35019   0.90811   0.28511   0.00000  Uiso   1.00
H681   H     0.06779   0.61544   0.08475   0.00000  Uiso   1.00
O682   O     0.54773   0.29038   0.07369   0.00000  Uiso   1.00
O683   O     0.40608   0.08914   0.27348   0.00000  Uiso   1.00
O684   O     0.03556   0.70516   0.01062   0.00000  Uiso   1.00
N685   N     0.50539   0.45356   0.06078   0.00000  Uiso   1.00
N686   N     0.40446   0.02276   0.20316   0.00000  Uiso   1.00
N687   N     0.14043   0.74916   0.01585   0.00000  Uiso   1.00
N688   N     0.46477   0.35965   0.11276   0.00000  Uiso   1.00
N689   N     0.36384   0.92885   0.25514   0.00000  Uiso   1.00
N690   N     0.09981   0.65526   0.06783   0.00000  Uiso   1.00
C691   C     0.66209   0.56945   0.10052   0.00000  Uiso   1.00
C692   C     0.64058   0.67972   0.10965   0.00000  Uiso   1.00
C693   C     0.58616   0.72454   0.09446   0.00000  Uiso   1.00
C694   C     0.57486   0.82633   0.10644   0.00000  Uiso   1.00
C695   C     0.53511   0.98917   0.11664   0.00000  Uiso   1.00
C696   C     0.67174   0.51901   0.14472   0.00000  Uiso   1.00
C697   C     0.64351   0.42869   0.15901   0.00000  Uiso   1.00
C698   C     0.65845   0.39520   0.20050   0.00000  Uiso   1.00
C699   C     0.66710   0.30849   0.26513   0.00000  Uiso   1.00
C700   C     0.72652   0.57891   0.08029   0.00000  Uiso   1.00
C701   C     0.74436   0.53895   0.04042   0.00000  Uiso   1.00
C702   C     0.80542   0.55587   0.02767   0.00000  Uiso   1.00
C703   C     0.89913   0.56218   0.99227   0.00000  Uiso   1.00
C704   C     0.73880   0.67054   0.14880   0.00000  Uiso   1.00
C705   C     0.68225   0.73462   0.13588   0.00000  Uiso   1.00
C706   C     0.67103   0.83638   0.14788   0.00000  Uiso   1.00
C707   C     0.61660   0.88134   0.13271   0.00000  Uiso   1.00
C708   C     0.71340   0.57391   0.17094   0.00000  Uiso   1.00
C709   C     0.72838   0.54054   0.21242   0.00000  Uiso   1.00
C710   C     0.70019   0.45020   0.22677   0.00000  Uiso   1.00
C711   C     0.76818   0.63382   0.10651   0.00000  Uiso   1.00
C712   C     0.82923   0.65080   0.09383   0.00000  Uiso   1.00
C713   C     0.84716   0.61088   0.05394   0.00000  Uiso   1.00
H714   H     0.62965   0.52670   0.08011   0.00000  Uiso   1.00
H715   H     0.55392   0.68201   0.07417   0.00000  Uiso   1.00
H716   H     0.61127   0.38621   0.13871   0.00000  Uiso   1.00
H717   H     0.71210   0.49646   0.02013   0.00000  Uiso   1.00
H718   H     0.48833   0.87841   0.07917   0.00000  Uiso   1.00
H719   H     0.60927   0.25468   0.21523   0.00000  Uiso   1.00
H720   H     0.82189   0.48715   0.96520   0.00000  Uiso   1.00
H721   H     0.77124   0.71329   0.16922   0.00000  Uiso   1.00
H722   H     0.70328   0.87885   0.16817   0.00000  Uiso   1.00
H723   H     0.76063   0.58304   0.23270   0.00000  Uiso   1.00
H724   H     0.86146   0.69329   0.11413   0.00000  Uiso   1.00
H725   H     0.60955   0.03817   0.15546   0.00000  Uiso   1.00
H726   H     0.73050   0.41443   0.29153   0.00000  Uiso   1.00
H727   H     0.94312   0.64691   0.04149   0.00000  Uiso   1.00
O728   O     0.50167   0.06382   0.11503   0.00000  Uiso   1.00
O729   O     0.66036   0.24550   0.29354   0.00000  Uiso   1.00
O730   O     0.93930   0.55051   0.96550   0.00000  Uiso   1.00
N731   N     0.52619   0.89330   0.09726   0.00000  Uiso   1.00
N732   N     0.63926   0.31015   0.22448   0.00000  Uiso   1.00
N733   N     0.83805   0.52747   0.99072   0.00000  Uiso   1.00
N734   N     0.59142   0.97926   0.13831   0.00000  Uiso   1.00
N735   N     0.70449   0.39611   0.26553   0.00000  Uiso   1.00
N736   N     0.90328   0.61344   0.03177   0.00000  Uiso   1.00
