data_job_05809
_audit_creation_date              2018-12-19
_audit_creation_method            'Materials Studio'
_symmetry_space_group_name_H-M    'P1'
_symmetry_Int_Tables_number       1
_symmetry_cell_setting            triclinic
loop_
_symmetry_equiv_pos_as_xyz
  x,y,z
_cell_length_a                    35.0234
_cell_length_b                    35.0234
_cell_length_c                    9.6448
_cell_angle_alpha                 90.0000
_cell_angle_beta                  90.0000
_cell_angle_gamma                 90.0000
loop_
_atom_site_label
_atom_site_type_symbol
_atom_site_fract_x
_atom_site_fract_y
_atom_site_fract_z
_atom_site_U_iso_or_equiv
_atom_site_adp_type
_atom_site_occupancy
C1     C     0.16866   0.97249   0.09054   0.00000  Uiso   1.00
C2     C     0.12843   0.95960   0.12882   0.00000  Uiso   1.00
C3     C     0.10380   0.97848   0.21829   0.00000  Uiso   1.00
C4     C     0.06821   0.96206   0.23980   0.00000  Uiso   1.00
C5     C     0.00734   0.94723   0.30928   0.00000  Uiso   1.00
C6     C     0.19495   0.93927   0.12710   0.00000  Uiso   1.00
C7     C     0.22625   0.94105   0.21510   0.00000  Uiso   1.00
C8     C     0.24666   0.90751   0.23514   0.00000  Uiso   1.00
C9     C     0.28909   0.86112   0.30186   0.00000  Uiso   1.00
C10    C     0.16931   0.97560   0.93286   0.00000  Uiso   1.00
C11    C     0.17906   0.00793   0.85755   0.00000  Uiso   1.00
C12    C     0.17789   0.00498   0.71405   0.00000  Uiso   1.00
C13    C     0.18051   0.01500   0.47920   0.00000  Uiso   1.00
C14    C     0.14925   0.90977   0.96962   0.00000  Uiso   1.00
C15    C     0.11789   0.92554   0.06314   0.00000  Uiso   1.00
C16    C     0.08232   0.90909   0.08451   0.00000  Uiso   1.00
C17    C     0.05764   0.92793   0.17400   0.00000  Uiso   1.00
C18    C     0.18441   0.90520   0.06142   0.00000  Uiso   1.00
C19    C     0.20478   0.87165   0.08132   0.00000  Uiso   1.00
C20    C     0.23610   0.87338   0.16934   0.00000  Uiso   1.00
C21    C     0.15877   0.94153   0.86718   0.00000  Uiso   1.00
C22    C     0.15758   0.93853   0.72377   0.00000  Uiso   1.00
C23    C     0.16733   0.97085   0.64826   0.00000  Uiso   1.00
H24    H     0.17687   0.99901   0.14168   0.00000  Uiso   1.00
H25    H     0.11197   0.00484   0.26911   0.00000  Uiso   1.00
H26    H     0.23441   0.96741   0.26590   0.00000  Uiso   1.00
H27    H     0.18722   0.03428   0.90841   0.00000  Uiso   1.00
H28    H     0.03537   0.99628   0.38147   0.00000  Uiso   1.00
H29    H     0.29354   0.91737   0.37467   0.00000  Uiso   1.00
H30    H     0.19404   0.05838   0.62083   0.00000  Uiso   1.00
H31    H     0.14105   0.88324   0.91849   0.00000  Uiso   1.00
H32    H     0.07417   0.88272   0.03367   0.00000  Uiso   1.00
H33    H     0.19661   0.84530   0.03047   0.00000  Uiso   1.00
H34    H     0.14942   0.91217   0.67298   0.00000  Uiso   1.00
H35    H     0.00469   0.89716   0.19038   0.00000  Uiso   1.00
H36    H     0.26286   0.81825   0.18358   0.00000  Uiso   1.00
H37    H     0.16336   0.95926   0.42974   0.00000  Uiso   1.00
O38    O     0.97669   0.94846   0.36576   0.00000  Uiso   1.00
O39    O     0.31540   0.84494   0.35682   0.00000  Uiso   1.00
O40    O     0.18486   0.02994   0.36780   0.00000  Uiso   1.00
N41    N     0.03732   0.97302   0.32067   0.00000  Uiso   1.00
N42    N     0.27869   0.89925   0.31433   0.00000  Uiso   1.00
N43    N     0.18568   0.03108   0.60955   0.00000  Uiso   1.00
N44    N     0.02081   0.91969   0.21784   0.00000  Uiso   1.00
N45    N     0.26219   0.84591   0.21151   0.00000  Uiso   1.00
N46    N     0.16917   0.97774   0.50673   0.00000  Uiso   1.00
C47    C     0.66866   0.47249   0.59054   0.00000  Uiso   1.00
C48    C     0.62843   0.45960   0.62882   0.00000  Uiso   1.00
C49    C     0.60380   0.47848   0.71829   0.00000  Uiso   1.00
C50    C     0.56821   0.46206   0.73980   0.00000  Uiso   1.00
C51    C     0.50734   0.44723   0.80928   0.00000  Uiso   1.00
C52    C     0.69495   0.43927   0.62710   0.00000  Uiso   1.00
C53    C     0.72625   0.44105   0.71510   0.00000  Uiso   1.00
C54    C     0.74666   0.40751   0.73514   0.00000  Uiso   1.00
C55    C     0.78909   0.36112   0.80186   0.00000  Uiso   1.00
C56    C     0.66931   0.47560   0.43286   0.00000  Uiso   1.00
C57    C     0.67906   0.50793   0.35755   0.00000  Uiso   1.00
C58    C     0.67789   0.50498   0.21405   0.00000  Uiso   1.00
C59    C     0.68051   0.51500   0.97920   0.00000  Uiso   1.00
C60    C     0.64925   0.40977   0.46962   0.00000  Uiso   1.00
C61    C     0.61789   0.42554   0.56314   0.00000  Uiso   1.00
C62    C     0.58232   0.40909   0.58451   0.00000  Uiso   1.00
C63    C     0.55764   0.42793   0.67400   0.00000  Uiso   1.00
C64    C     0.68441   0.40520   0.56142   0.00000  Uiso   1.00
C65    C     0.70478   0.37165   0.58132   0.00000  Uiso   1.00
C66    C     0.73610   0.37338   0.66934   0.00000  Uiso   1.00
C67    C     0.65877   0.44153   0.36718   0.00000  Uiso   1.00
C68    C     0.65758   0.43853   0.22377   0.00000  Uiso   1.00
C69    C     0.66733   0.47085   0.14826   0.00000  Uiso   1.00
H70    H     0.67687   0.49901   0.64168   0.00000  Uiso   1.00
H71    H     0.61197   0.50484   0.76911   0.00000  Uiso   1.00
H72    H     0.73441   0.46741   0.76590   0.00000  Uiso   1.00
H73    H     0.68722   0.53428   0.40841   0.00000  Uiso   1.00
H74    H     0.53537   0.49628   0.88147   0.00000  Uiso   1.00
H75    H     0.79354   0.41737   0.87467   0.00000  Uiso   1.00
H76    H     0.69404   0.55838   0.12083   0.00000  Uiso   1.00
H77    H     0.64105   0.38324   0.41849   0.00000  Uiso   1.00
H78    H     0.57417   0.38272   0.53367   0.00000  Uiso   1.00
H79    H     0.69661   0.34530   0.53047   0.00000  Uiso   1.00
H80    H     0.64942   0.41217   0.17298   0.00000  Uiso   1.00
H81    H     0.50469   0.39716   0.69038   0.00000  Uiso   1.00
H82    H     0.76286   0.31825   0.68358   0.00000  Uiso   1.00
H83    H     0.66336   0.45926   0.92974   0.00000  Uiso   1.00
O84    O     0.47669   0.44846   0.86576   0.00000  Uiso   1.00
O85    O     0.81540   0.34494   0.85682   0.00000  Uiso   1.00
O86    O     0.68486   0.52994   0.86780   0.00000  Uiso   1.00
N87    N     0.53732   0.47302   0.82067   0.00000  Uiso   1.00
N88    N     0.77869   0.39925   0.81433   0.00000  Uiso   1.00
N89    N     0.68568   0.53108   0.10955   0.00000  Uiso   1.00
N90    N     0.52081   0.41969   0.71784   0.00000  Uiso   1.00
N91    N     0.76219   0.34591   0.71151   0.00000  Uiso   1.00
N92    N     0.66917   0.47774   0.00673   0.00000  Uiso   1.00
C93    C     0.33134   0.52751   0.59054   0.00000  Uiso   1.00
C94    C     0.37157   0.54040   0.62882   0.00000  Uiso   1.00
C95    C     0.39620   0.52152   0.71829   0.00000  Uiso   1.00
C96    C     0.43179   0.53794   0.73980   0.00000  Uiso   1.00
C97    C     0.49266   0.55277   0.80928   0.00000  Uiso   1.00
C98    C     0.30505   0.56073   0.62710   0.00000  Uiso   1.00
C99    C     0.27375   0.55895   0.71510   0.00000  Uiso   1.00
C100   C     0.25334   0.59249   0.73514   0.00000  Uiso   1.00
C101   C     0.21091   0.63888   0.80186   0.00000  Uiso   1.00
C102   C     0.33069   0.52440   0.43286   0.00000  Uiso   1.00
C103   C     0.32094   0.49207   0.35755   0.00000  Uiso   1.00
C104   C     0.32211   0.49502   0.21405   0.00000  Uiso   1.00
C105   C     0.31949   0.48500   0.97920   0.00000  Uiso   1.00
C106   C     0.35075   0.59023   0.46962   0.00000  Uiso   1.00
C107   C     0.38211   0.57446   0.56314   0.00000  Uiso   1.00
C108   C     0.41768   0.59091   0.58451   0.00000  Uiso   1.00
C109   C     0.44236   0.57207   0.67400   0.00000  Uiso   1.00
C110   C     0.31559   0.59480   0.56142   0.00000  Uiso   1.00
C111   C     0.29522   0.62835   0.58132   0.00000  Uiso   1.00
C112   C     0.26390   0.62662   0.66934   0.00000  Uiso   1.00
C113   C     0.34123   0.55847   0.36718   0.00000  Uiso   1.00
C114   C     0.34242   0.56147   0.22377   0.00000  Uiso   1.00
C115   C     0.33267   0.52915   0.14826   0.00000  Uiso   1.00
H116   H     0.32313   0.50099   0.64168   0.00000  Uiso   1.00
H117   H     0.38803   0.49516   0.76911   0.00000  Uiso   1.00
H118   H     0.26559   0.53259   0.76590   0.00000  Uiso   1.00
H119   H     0.31278   0.46572   0.40841   0.00000  Uiso   1.00
H120   H     0.46463   0.50372   0.88147   0.00000  Uiso   1.00
H121   H     0.20646   0.58263   0.87467   0.00000  Uiso   1.00
H122   H     0.30596   0.44162   0.12083   0.00000  Uiso   1.00
H123   H     0.35895   0.61676   0.41849   0.00000  Uiso   1.00
H124   H     0.42583   0.61728   0.53367   0.00000  Uiso   1.00
H125   H     0.30339   0.65470   0.53047   0.00000  Uiso   1.00
H126   H     0.35058   0.58783   0.17298   0.00000  Uiso   1.00
H127   H     0.49531   0.60284   0.69038   0.00000  Uiso   1.00
H128   H     0.23714   0.68175   0.68358   0.00000  Uiso   1.00
H129   H     0.33664   0.54074   0.92974   0.00000  Uiso   1.00
O130   O     0.52331   0.55154   0.86576   0.00000  Uiso   1.00
O131   O     0.18460   0.65506   0.85682   0.00000  Uiso   1.00
O132   O     0.31514   0.47006   0.86780   0.00000  Uiso   1.00
N133   N     0.46268   0.52698   0.82067   0.00000  Uiso   1.00
N134   N     0.22131   0.60075   0.81433   0.00000  Uiso   1.00
N135   N     0.31432   0.46892   0.10955   0.00000  Uiso   1.00
N136   N     0.47919   0.58031   0.71784   0.00000  Uiso   1.00
N137   N     0.23781   0.65409   0.71151   0.00000  Uiso   1.00
N138   N     0.33083   0.52226   0.00673   0.00000  Uiso   1.00
C139   C     0.83134   0.02751   0.09054   0.00000  Uiso   1.00
C140   C     0.87157   0.04040   0.12882   0.00000  Uiso   1.00
C141   C     0.89620   0.02152   0.21829   0.00000  Uiso   1.00
C142   C     0.93179   0.03794   0.23980   0.00000  Uiso   1.00
C143   C     0.99266   0.05277   0.30928   0.00000  Uiso   1.00
C144   C     0.80505   0.06073   0.12710   0.00000  Uiso   1.00
C145   C     0.77375   0.05895   0.21510   0.00000  Uiso   1.00
C146   C     0.75334   0.09249   0.23514   0.00000  Uiso   1.00
C147   C     0.71091   0.13888   0.30186   0.00000  Uiso   1.00
C148   C     0.83069   0.02440   0.93286   0.00000  Uiso   1.00
C149   C     0.82094   0.99207   0.85755   0.00000  Uiso   1.00
C150   C     0.82211   0.99502   0.71405   0.00000  Uiso   1.00
C151   C     0.81949   0.98500   0.47920   0.00000  Uiso   1.00
C152   C     0.85075   0.09023   0.96962   0.00000  Uiso   1.00
C153   C     0.88211   0.07446   0.06314   0.00000  Uiso   1.00
C154   C     0.91768   0.09091   0.08451   0.00000  Uiso   1.00
C155   C     0.94236   0.07207   0.17400   0.00000  Uiso   1.00
C156   C     0.81559   0.09480   0.06142   0.00000  Uiso   1.00
C157   C     0.79522   0.12835   0.08132   0.00000  Uiso   1.00
C158   C     0.76390   0.12662   0.16934   0.00000  Uiso   1.00
C159   C     0.84123   0.05847   0.86718   0.00000  Uiso   1.00
C160   C     0.84242   0.06147   0.72377   0.00000  Uiso   1.00
C161   C     0.83267   0.02915   0.64826   0.00000  Uiso   1.00
H162   H     0.82313   0.00099   0.14168   0.00000  Uiso   1.00
H163   H     0.88803   0.99516   0.26911   0.00000  Uiso   1.00
H164   H     0.76559   0.03259   0.26590   0.00000  Uiso   1.00
H165   H     0.81278   0.96572   0.90841   0.00000  Uiso   1.00
H166   H     0.96463   0.00372   0.38147   0.00000  Uiso   1.00
H167   H     0.70646   0.08263   0.37467   0.00000  Uiso   1.00
H168   H     0.80596   0.94162   0.62083   0.00000  Uiso   1.00
H169   H     0.85895   0.11676   0.91849   0.00000  Uiso   1.00
H170   H     0.92583   0.11728   0.03367   0.00000  Uiso   1.00
H171   H     0.80339   0.15470   0.03047   0.00000  Uiso   1.00
H172   H     0.85058   0.08783   0.67298   0.00000  Uiso   1.00
H173   H     0.99531   0.10284   0.19038   0.00000  Uiso   1.00
H174   H     0.73714   0.18175   0.18358   0.00000  Uiso   1.00
H175   H     0.83664   0.04074   0.42974   0.00000  Uiso   1.00
O176   O     0.02331   0.05154   0.36576   0.00000  Uiso   1.00
O177   O     0.68460   0.15506   0.35682   0.00000  Uiso   1.00
O178   O     0.81514   0.97006   0.36780   0.00000  Uiso   1.00
N179   N     0.96268   0.02698   0.32067   0.00000  Uiso   1.00
N180   N     0.72131   0.10075   0.31433   0.00000  Uiso   1.00
N181   N     0.81432   0.96892   0.60955   0.00000  Uiso   1.00
N182   N     0.97919   0.08031   0.21784   0.00000  Uiso   1.00
N183   N     0.73781   0.15409   0.21151   0.00000  Uiso   1.00
N184   N     0.83083   0.02226   0.50673   0.00000  Uiso   1.00
C185   C     0.02751   0.66866   0.34054   0.00000  Uiso   1.00
C186   C     0.04040   0.62843   0.37882   0.00000  Uiso   1.00
C187   C     0.02152   0.60380   0.46829   0.00000  Uiso   1.00
C188   C     0.03794   0.56821   0.48980   0.00000  Uiso   1.00
C189   C     0.05277   0.50734   0.55928   0.00000  Uiso   1.00
C190   C     0.06073   0.69495   0.37710   0.00000  Uiso   1.00
C191   C     0.05895   0.72625   0.46510   0.00000  Uiso   1.00
C192   C     0.09249   0.74666   0.48514   0.00000  Uiso   1.00
C193   C     0.13888   0.78909   0.55186   0.00000  Uiso   1.00
C194   C     0.02440   0.66931   0.18286   0.00000  Uiso   1.00
C195   C     0.99207   0.67906   0.10755   0.00000  Uiso   1.00
C196   C     0.99502   0.67789   0.96405   0.00000  Uiso   1.00
C197   C     0.98500   0.68051   0.72920   0.00000  Uiso   1.00
C198   C     0.09023   0.64925   0.21962   0.00000  Uiso   1.00
C199   C     0.07446   0.61789   0.31314   0.00000  Uiso   1.00
C200   C     0.09091   0.58232   0.33451   0.00000  Uiso   1.00
C201   C     0.07207   0.55764   0.42400   0.00000  Uiso   1.00
C202   C     0.09480   0.68441   0.31142   0.00000  Uiso   1.00
C203   C     0.12835   0.70478   0.33132   0.00000  Uiso   1.00
C204   C     0.12662   0.73610   0.41934   0.00000  Uiso   1.00
C205   C     0.05847   0.65877   0.11718   0.00000  Uiso   1.00
C206   C     0.06147   0.65758   0.97377   0.00000  Uiso   1.00
C207   C     0.02915   0.66733   0.89826   0.00000  Uiso   1.00
H208   H     0.00099   0.67687   0.39168   0.00000  Uiso   1.00
H209   H     0.99516   0.61197   0.51911   0.00000  Uiso   1.00
H210   H     0.03259   0.73441   0.51590   0.00000  Uiso   1.00
H211   H     0.96572   0.68722   0.15841   0.00000  Uiso   1.00
H212   H     0.00372   0.53537   0.63147   0.00000  Uiso   1.00
H213   H     0.08263   0.79354   0.62467   0.00000  Uiso   1.00
H214   H     0.94162   0.69404   0.87083   0.00000  Uiso   1.00
H215   H     0.11676   0.64105   0.16849   0.00000  Uiso   1.00
H216   H     0.11728   0.57417   0.28367   0.00000  Uiso   1.00
H217   H     0.15470   0.69661   0.28047   0.00000  Uiso   1.00
H218   H     0.08783   0.64942   0.92298   0.00000  Uiso   1.00
H219   H     0.10284   0.50469   0.44038   0.00000  Uiso   1.00
H220   H     0.18175   0.76286   0.43358   0.00000  Uiso   1.00
H221   H     0.04074   0.66336   0.67974   0.00000  Uiso   1.00
O222   O     0.05154   0.47669   0.61576   0.00000  Uiso   1.00
O223   O     0.15506   0.81540   0.60682   0.00000  Uiso   1.00
O224   O     0.97006   0.68486   0.61780   0.00000  Uiso   1.00
N225   N     0.02698   0.53732   0.57067   0.00000  Uiso   1.00
N226   N     0.10075   0.77869   0.56433   0.00000  Uiso   1.00
N227   N     0.96892   0.68568   0.85955   0.00000  Uiso   1.00
N228   N     0.08031   0.52081   0.46784   0.00000  Uiso   1.00
N229   N     0.15409   0.76219   0.46151   0.00000  Uiso   1.00
N230   N     0.02226   0.66917   0.75673   0.00000  Uiso   1.00
C231   C     0.52751   0.16866   0.84054   0.00000  Uiso   1.00
C232   C     0.54040   0.12843   0.87882   0.00000  Uiso   1.00
C233   C     0.52152   0.10380   0.96829   0.00000  Uiso   1.00
C234   C     0.53794   0.06821   0.98980   0.00000  Uiso   1.00
C235   C     0.55277   0.00734   0.05928   0.00000  Uiso   1.00
C236   C     0.56073   0.19495   0.87710   0.00000  Uiso   1.00
C237   C     0.55895   0.22625   0.96510   0.00000  Uiso   1.00
C238   C     0.59249   0.24666   0.98514   0.00000  Uiso   1.00
C239   C     0.63888   0.28909   0.05186   0.00000  Uiso   1.00
C240   C     0.52440   0.16931   0.68286   0.00000  Uiso   1.00
C241   C     0.49207   0.17906   0.60755   0.00000  Uiso   1.00
C242   C     0.49502   0.17789   0.46405   0.00000  Uiso   1.00
C243   C     0.48500   0.18051   0.22920   0.00000  Uiso   1.00
C244   C     0.59023   0.14925   0.71962   0.00000  Uiso   1.00
C245   C     0.57446   0.11789   0.81314   0.00000  Uiso   1.00
C246   C     0.59091   0.08232   0.83451   0.00000  Uiso   1.00
C247   C     0.57207   0.05764   0.92400   0.00000  Uiso   1.00
C248   C     0.59480   0.18441   0.81142   0.00000  Uiso   1.00
C249   C     0.62835   0.20478   0.83132   0.00000  Uiso   1.00
C250   C     0.62662   0.23610   0.91934   0.00000  Uiso   1.00
C251   C     0.55847   0.15877   0.61718   0.00000  Uiso   1.00
C252   C     0.56147   0.15758   0.47377   0.00000  Uiso   1.00
C253   C     0.52915   0.16733   0.39826   0.00000  Uiso   1.00
H254   H     0.50099   0.17687   0.89168   0.00000  Uiso   1.00
H255   H     0.49516   0.11197   0.01911   0.00000  Uiso   1.00
H256   H     0.53259   0.23441   0.01590   0.00000  Uiso   1.00
H257   H     0.46572   0.18722   0.65841   0.00000  Uiso   1.00
H258   H     0.50372   0.03537   0.13147   0.00000  Uiso   1.00
H259   H     0.58263   0.29354   0.12467   0.00000  Uiso   1.00
H260   H     0.44162   0.19404   0.37083   0.00000  Uiso   1.00
H261   H     0.61676   0.14105   0.66849   0.00000  Uiso   1.00
H262   H     0.61728   0.07417   0.78367   0.00000  Uiso   1.00
H263   H     0.65470   0.19661   0.78047   0.00000  Uiso   1.00
H264   H     0.58783   0.14942   0.42298   0.00000  Uiso   1.00
H265   H     0.60284   0.00469   0.94038   0.00000  Uiso   1.00
H266   H     0.68175   0.26286   0.93358   0.00000  Uiso   1.00
H267   H     0.54074   0.16336   0.17974   0.00000  Uiso   1.00
O268   O     0.55154   0.97669   0.11576   0.00000  Uiso   1.00
O269   O     0.65506   0.31540   0.10682   0.00000  Uiso   1.00
O270   O     0.47006   0.18486   0.11780   0.00000  Uiso   1.00
N271   N     0.52698   0.03732   0.07067   0.00000  Uiso   1.00
N272   N     0.60075   0.27869   0.06433   0.00000  Uiso   1.00
N273   N     0.46892   0.18568   0.35955   0.00000  Uiso   1.00
N274   N     0.58031   0.02081   0.96784   0.00000  Uiso   1.00
N275   N     0.65409   0.26219   0.96151   0.00000  Uiso   1.00
N276   N     0.52226   0.16917   0.25673   0.00000  Uiso   1.00
C277   C     0.47249   0.83134   0.84054   0.00000  Uiso   1.00
C278   C     0.45960   0.87157   0.87882   0.00000  Uiso   1.00
C279   C     0.47848   0.89620   0.96829   0.00000  Uiso   1.00
C280   C     0.46206   0.93179   0.98980   0.00000  Uiso   1.00
C281   C     0.44723   0.99266   0.05928   0.00000  Uiso   1.00
C282   C     0.43927   0.80505   0.87710   0.00000  Uiso   1.00
C283   C     0.44105   0.77375   0.96510   0.00000  Uiso   1.00
C284   C     0.40751   0.75334   0.98514   0.00000  Uiso   1.00
C285   C     0.36112   0.71091   0.05186   0.00000  Uiso   1.00
C286   C     0.47560   0.83069   0.68286   0.00000  Uiso   1.00
C287   C     0.50793   0.82094   0.60755   0.00000  Uiso   1.00
C288   C     0.50498   0.82211   0.46405   0.00000  Uiso   1.00
C289   C     0.51500   0.81949   0.22920   0.00000  Uiso   1.00
C290   C     0.40977   0.85075   0.71962   0.00000  Uiso   1.00
C291   C     0.42554   0.88211   0.81314   0.00000  Uiso   1.00
C292   C     0.40909   0.91768   0.83451   0.00000  Uiso   1.00
C293   C     0.42793   0.94236   0.92400   0.00000  Uiso   1.00
C294   C     0.40520   0.81559   0.81142   0.00000  Uiso   1.00
C295   C     0.37165   0.79522   0.83132   0.00000  Uiso   1.00
C296   C     0.37338   0.76390   0.91934   0.00000  Uiso   1.00
C297   C     0.44153   0.84123   0.61718   0.00000  Uiso   1.00
C298   C     0.43853   0.84242   0.47377   0.00000  Uiso   1.00
C299   C     0.47085   0.83267   0.39826   0.00000  Uiso   1.00
H300   H     0.49901   0.82313   0.89168   0.00000  Uiso   1.00
H301   H     0.50484   0.88803   0.01911   0.00000  Uiso   1.00
H302   H     0.46741   0.76559   0.01590   0.00000  Uiso   1.00
H303   H     0.53428   0.81278   0.65841   0.00000  Uiso   1.00
H304   H     0.49628   0.96463   0.13147   0.00000  Uiso   1.00
H305   H     0.41737   0.70646   0.12467   0.00000  Uiso   1.00
H306   H     0.55838   0.80596   0.37083   0.00000  Uiso   1.00
H307   H     0.38324   0.85895   0.66849   0.00000  Uiso   1.00
H308   H     0.38272   0.92583   0.78367   0.00000  Uiso   1.00
H309   H     0.34530   0.80339   0.78047   0.00000  Uiso   1.00
H310   H     0.41217   0.85058   0.42298   0.00000  Uiso   1.00
H311   H     0.39716   0.99531   0.94038   0.00000  Uiso   1.00
H312   H     0.31825   0.73714   0.93358   0.00000  Uiso   1.00
H313   H     0.45926   0.83664   0.17974   0.00000  Uiso   1.00
O314   O     0.44846   0.02331   0.11576   0.00000  Uiso   1.00
O315   O     0.34494   0.68460   0.10682   0.00000  Uiso   1.00
O316   O     0.52994   0.81514   0.11780   0.00000  Uiso   1.00
N317   N     0.47302   0.96268   0.07067   0.00000  Uiso   1.00
N318   N     0.39925   0.72131   0.06433   0.00000  Uiso   1.00
N319   N     0.53108   0.81432   0.35955   0.00000  Uiso   1.00
N320   N     0.41969   0.97919   0.96784   0.00000  Uiso   1.00
N321   N     0.34591   0.73781   0.96151   0.00000  Uiso   1.00
N322   N     0.47774   0.83083   0.25673   0.00000  Uiso   1.00
C323   C     0.97249   0.33134   0.34054   0.00000  Uiso   1.00
C324   C     0.95960   0.37157   0.37882   0.00000  Uiso   1.00
C325   C     0.97848   0.39620   0.46829   0.00000  Uiso   1.00
C326   C     0.96206   0.43179   0.48980   0.00000  Uiso   1.00
C327   C     0.94723   0.49266   0.55928   0.00000  Uiso   1.00
C328   C     0.93927   0.30505   0.37710   0.00000  Uiso   1.00
C329   C     0.94105   0.27375   0.46510   0.00000  Uiso   1.00
C330   C     0.90751   0.25334   0.48514   0.00000  Uiso   1.00
C331   C     0.86112   0.21091   0.55186   0.00000  Uiso   1.00
C332   C     0.97560   0.33069   0.18286   0.00000  Uiso   1.00
C333   C     0.00793   0.32094   0.10755   0.00000  Uiso   1.00
C334   C     0.00498   0.32211   0.96405   0.00000  Uiso   1.00
C335   C     0.01500   0.31949   0.72920   0.00000  Uiso   1.00
C336   C     0.90977   0.35075   0.21962   0.00000  Uiso   1.00
C337   C     0.92554   0.38211   0.31314   0.00000  Uiso   1.00
C338   C     0.90909   0.41768   0.33451   0.00000  Uiso   1.00
C339   C     0.92793   0.44236   0.42400   0.00000  Uiso   1.00
C340   C     0.90520   0.31559   0.31142   0.00000  Uiso   1.00
C341   C     0.87165   0.29522   0.33132   0.00000  Uiso   1.00
C342   C     0.87338   0.26390   0.41934   0.00000  Uiso   1.00
C343   C     0.94153   0.34123   0.11718   0.00000  Uiso   1.00
C344   C     0.93853   0.34242   0.97377   0.00000  Uiso   1.00
C345   C     0.97085   0.33267   0.89826   0.00000  Uiso   1.00
H346   H     0.99901   0.32313   0.39168   0.00000  Uiso   1.00
H347   H     0.00484   0.38803   0.51911   0.00000  Uiso   1.00
H348   H     0.96741   0.26559   0.51590   0.00000  Uiso   1.00
H349   H     0.03428   0.31278   0.15841   0.00000  Uiso   1.00
H350   H     0.99628   0.46463   0.63147   0.00000  Uiso   1.00
H351   H     0.91737   0.20646   0.62467   0.00000  Uiso   1.00
H352   H     0.05838   0.30596   0.87083   0.00000  Uiso   1.00
H353   H     0.88324   0.35895   0.16849   0.00000  Uiso   1.00
H354   H     0.88272   0.42583   0.28367   0.00000  Uiso   1.00
H355   H     0.84530   0.30339   0.28047   0.00000  Uiso   1.00
H356   H     0.91217   0.35058   0.92298   0.00000  Uiso   1.00
H357   H     0.89716   0.49531   0.44038   0.00000  Uiso   1.00
H358   H     0.81825   0.23714   0.43358   0.00000  Uiso   1.00
H359   H     0.95926   0.33664   0.67974   0.00000  Uiso   1.00
O360   O     0.94846   0.52331   0.61576   0.00000  Uiso   1.00
O361   O     0.84494   0.18460   0.60682   0.00000  Uiso   1.00
O362   O     0.02994   0.31514   0.61780   0.00000  Uiso   1.00
N363   N     0.97302   0.46268   0.57067   0.00000  Uiso   1.00
N364   N     0.89925   0.22131   0.56433   0.00000  Uiso   1.00
N365   N     0.03108   0.31432   0.85955   0.00000  Uiso   1.00
N366   N     0.91969   0.47919   0.46784   0.00000  Uiso   1.00
N367   N     0.84591   0.23781   0.46151   0.00000  Uiso   1.00
N368   N     0.97774   0.33083   0.75673   0.00000  Uiso   1.00
C369   C     0.83134   0.52751   0.15946   0.00000  Uiso   1.00
C370   C     0.87157   0.54040   0.12118   0.00000  Uiso   1.00
C371   C     0.89620   0.52152   0.03171   0.00000  Uiso   1.00
C372   C     0.93179   0.53794   0.01020   0.00000  Uiso   1.00
C373   C     0.99266   0.55277   0.94072   0.00000  Uiso   1.00
C374   C     0.80505   0.56073   0.12290   0.00000  Uiso   1.00
C375   C     0.77375   0.55895   0.03490   0.00000  Uiso   1.00
C376   C     0.75334   0.59249   0.01486   0.00000  Uiso   1.00
C377   C     0.71091   0.63888   0.94814   0.00000  Uiso   1.00
C378   C     0.83069   0.52440   0.31714   0.00000  Uiso   1.00
C379   C     0.82094   0.49207   0.39245   0.00000  Uiso   1.00
C380   C     0.82211   0.49502   0.53595   0.00000  Uiso   1.00
C381   C     0.81949   0.48500   0.77080   0.00000  Uiso   1.00
C382   C     0.85075   0.59023   0.28038   0.00000  Uiso   1.00
C383   C     0.88211   0.57446   0.18686   0.00000  Uiso   1.00
C384   C     0.91768   0.59091   0.16549   0.00000  Uiso   1.00
C385   C     0.94236   0.57207   0.07600   0.00000  Uiso   1.00
C386   C     0.81559   0.59480   0.18858   0.00000  Uiso   1.00
C387   C     0.79522   0.62835   0.16868   0.00000  Uiso   1.00
C388   C     0.76390   0.62662   0.08066   0.00000  Uiso   1.00
C389   C     0.84123   0.55847   0.38282   0.00000  Uiso   1.00
C390   C     0.84242   0.56147   0.52623   0.00000  Uiso   1.00
C391   C     0.83267   0.52915   0.60174   0.00000  Uiso   1.00
H392   H     0.82313   0.50099   0.10832   0.00000  Uiso   1.00
H393   H     0.88803   0.49516   0.98089   0.00000  Uiso   1.00
H394   H     0.76559   0.53259   0.98410   0.00000  Uiso   1.00
H395   H     0.81278   0.46572   0.34159   0.00000  Uiso   1.00
H396   H     0.96463   0.50372   0.86853   0.00000  Uiso   1.00
H397   H     0.70646   0.58263   0.87533   0.00000  Uiso   1.00
H398   H     0.80596   0.44162   0.62917   0.00000  Uiso   1.00
H399   H     0.85895   0.61676   0.33151   0.00000  Uiso   1.00
H400   H     0.92583   0.61728   0.21633   0.00000  Uiso   1.00
H401   H     0.80339   0.65470   0.21953   0.00000  Uiso   1.00
H402   H     0.85058   0.58783   0.57702   0.00000  Uiso   1.00
H403   H     0.99531   0.60284   0.05962   0.00000  Uiso   1.00
H404   H     0.73714   0.68175   0.06642   0.00000  Uiso   1.00
H405   H     0.83664   0.54074   0.82026   0.00000  Uiso   1.00
O406   O     0.02331   0.55154   0.88424   0.00000  Uiso   1.00
O407   O     0.68460   0.65506   0.89318   0.00000  Uiso   1.00
O408   O     0.81514   0.47006   0.88220   0.00000  Uiso   1.00
N409   N     0.96268   0.52698   0.92933   0.00000  Uiso   1.00
N410   N     0.72131   0.60075   0.93567   0.00000  Uiso   1.00
N411   N     0.81432   0.46892   0.64045   0.00000  Uiso   1.00
N412   N     0.97919   0.58031   0.03216   0.00000  Uiso   1.00
N413   N     0.73781   0.65409   0.03849   0.00000  Uiso   1.00
N414   N     0.83083   0.52226   0.74327   0.00000  Uiso   1.00
C415   C     0.33134   0.02751   0.65946   0.00000  Uiso   1.00
C416   C     0.37157   0.04040   0.62118   0.00000  Uiso   1.00
C417   C     0.39620   0.02152   0.53171   0.00000  Uiso   1.00
C418   C     0.43179   0.03794   0.51020   0.00000  Uiso   1.00
C419   C     0.49266   0.05277   0.44072   0.00000  Uiso   1.00
C420   C     0.30505   0.06073   0.62290   0.00000  Uiso   1.00
C421   C     0.27375   0.05895   0.53490   0.00000  Uiso   1.00
C422   C     0.25334   0.09249   0.51486   0.00000  Uiso   1.00
C423   C     0.21091   0.13888   0.44814   0.00000  Uiso   1.00
C424   C     0.33069   0.02440   0.81714   0.00000  Uiso   1.00
C425   C     0.32094   0.99207   0.89245   0.00000  Uiso   1.00
C426   C     0.32211   0.99502   0.03595   0.00000  Uiso   1.00
C427   C     0.31949   0.98500   0.27080   0.00000  Uiso   1.00
C428   C     0.35075   0.09023   0.78038   0.00000  Uiso   1.00
C429   C     0.38211   0.07446   0.68686   0.00000  Uiso   1.00
C430   C     0.41768   0.09091   0.66549   0.00000  Uiso   1.00
C431   C     0.44236   0.07207   0.57600   0.00000  Uiso   1.00
C432   C     0.31559   0.09480   0.68858   0.00000  Uiso   1.00
C433   C     0.29522   0.12835   0.66868   0.00000  Uiso   1.00
C434   C     0.26390   0.12662   0.58066   0.00000  Uiso   1.00
C435   C     0.34123   0.05847   0.88282   0.00000  Uiso   1.00
C436   C     0.34242   0.06147   0.02623   0.00000  Uiso   1.00
C437   C     0.33267   0.02915   0.10174   0.00000  Uiso   1.00
H438   H     0.32313   0.00099   0.60832   0.00000  Uiso   1.00
H439   H     0.38803   0.99516   0.48089   0.00000  Uiso   1.00
H440   H     0.26559   0.03259   0.48410   0.00000  Uiso   1.00
H441   H     0.31278   0.96572   0.84159   0.00000  Uiso   1.00
H442   H     0.46463   0.00372   0.36853   0.00000  Uiso   1.00
H443   H     0.20646   0.08263   0.37533   0.00000  Uiso   1.00
H444   H     0.30596   0.94162   0.12917   0.00000  Uiso   1.00
H445   H     0.35895   0.11676   0.83151   0.00000  Uiso   1.00
H446   H     0.42583   0.11728   0.71633   0.00000  Uiso   1.00
H447   H     0.30339   0.15470   0.71953   0.00000  Uiso   1.00
H448   H     0.35058   0.08783   0.07702   0.00000  Uiso   1.00
H449   H     0.49531   0.10284   0.55962   0.00000  Uiso   1.00
H450   H     0.23714   0.18175   0.56642   0.00000  Uiso   1.00
H451   H     0.33664   0.04074   0.32026   0.00000  Uiso   1.00
O452   O     0.52331   0.05154   0.38424   0.00000  Uiso   1.00
O453   O     0.18460   0.15506   0.39318   0.00000  Uiso   1.00
O454   O     0.31514   0.97006   0.38220   0.00000  Uiso   1.00
N455   N     0.46268   0.02698   0.42933   0.00000  Uiso   1.00
N456   N     0.22131   0.10075   0.43567   0.00000  Uiso   1.00
N457   N     0.31432   0.96892   0.14045   0.00000  Uiso   1.00
N458   N     0.47919   0.08031   0.53216   0.00000  Uiso   1.00
N459   N     0.23781   0.15409   0.53849   0.00000  Uiso   1.00
N460   N     0.33083   0.02226   0.24327   0.00000  Uiso   1.00
C461   C     0.66866   0.97249   0.65946   0.00000  Uiso   1.00
C462   C     0.62843   0.95960   0.62118   0.00000  Uiso   1.00
C463   C     0.60380   0.97848   0.53171   0.00000  Uiso   1.00
C464   C     0.56821   0.96206   0.51020   0.00000  Uiso   1.00
C465   C     0.50734   0.94723   0.44072   0.00000  Uiso   1.00
C466   C     0.69495   0.93927   0.62290   0.00000  Uiso   1.00
C467   C     0.72625   0.94105   0.53490   0.00000  Uiso   1.00
C468   C     0.74666   0.90751   0.51486   0.00000  Uiso   1.00
C469   C     0.78909   0.86112   0.44814   0.00000  Uiso   1.00
C470   C     0.66931   0.97560   0.81714   0.00000  Uiso   1.00
C471   C     0.67906   0.00793   0.89245   0.00000  Uiso   1.00
C472   C     0.67789   0.00498   0.03595   0.00000  Uiso   1.00
C473   C     0.68051   0.01500   0.27080   0.00000  Uiso   1.00
C474   C     0.64925   0.90977   0.78038   0.00000  Uiso   1.00
C475   C     0.61789   0.92554   0.68686   0.00000  Uiso   1.00
C476   C     0.58232   0.90909   0.66549   0.00000  Uiso   1.00
C477   C     0.55764   0.92793   0.57600   0.00000  Uiso   1.00
C478   C     0.68441   0.90520   0.68858   0.00000  Uiso   1.00
C479   C     0.70478   0.87165   0.66868   0.00000  Uiso   1.00
C480   C     0.73610   0.87338   0.58066   0.00000  Uiso   1.00
C481   C     0.65877   0.94153   0.88282   0.00000  Uiso   1.00
C482   C     0.65758   0.93853   0.02623   0.00000  Uiso   1.00
C483   C     0.66733   0.97085   0.10174   0.00000  Uiso   1.00
H484   H     0.67687   0.99901   0.60832   0.00000  Uiso   1.00
H485   H     0.61197   0.00484   0.48089   0.00000  Uiso   1.00
H486   H     0.73441   0.96741   0.48410   0.00000  Uiso   1.00
H487   H     0.68722   0.03428   0.84159   0.00000  Uiso   1.00
H488   H     0.53537   0.99628   0.36853   0.00000  Uiso   1.00
H489   H     0.79354   0.91737   0.37533   0.00000  Uiso   1.00
H490   H     0.69404   0.05838   0.12917   0.00000  Uiso   1.00
H491   H     0.64105   0.88324   0.83151   0.00000  Uiso   1.00
H492   H     0.57417   0.88272   0.71633   0.00000  Uiso   1.00
H493   H     0.69661   0.84530   0.71953   0.00000  Uiso   1.00
H494   H     0.64942   0.91217   0.07702   0.00000  Uiso   1.00
H495   H     0.50469   0.89716   0.55962   0.00000  Uiso   1.00
H496   H     0.76286   0.81825   0.56642   0.00000  Uiso   1.00
H497   H     0.66336   0.95926   0.32026   0.00000  Uiso   1.00
O498   O     0.47669   0.94846   0.38424   0.00000  Uiso   1.00
O499   O     0.81540   0.84494   0.39318   0.00000  Uiso   1.00
O500   O     0.68486   0.02994   0.38220   0.00000  Uiso   1.00
N501   N     0.53732   0.97302   0.42933   0.00000  Uiso   1.00
N502   N     0.77869   0.89925   0.43567   0.00000  Uiso   1.00
N503   N     0.68568   0.03108   0.14045   0.00000  Uiso   1.00
N504   N     0.52081   0.91969   0.53216   0.00000  Uiso   1.00
N505   N     0.76219   0.84591   0.53849   0.00000  Uiso   1.00
N506   N     0.66917   0.97774   0.24327   0.00000  Uiso   1.00
C507   C     0.16866   0.47249   0.15946   0.00000  Uiso   1.00
C508   C     0.12843   0.45960   0.12118   0.00000  Uiso   1.00
C509   C     0.10380   0.47848   0.03171   0.00000  Uiso   1.00
C510   C     0.06821   0.46206   0.01020   0.00000  Uiso   1.00
C511   C     0.00734   0.44723   0.94072   0.00000  Uiso   1.00
C512   C     0.19495   0.43927   0.12290   0.00000  Uiso   1.00
C513   C     0.22625   0.44105   0.03490   0.00000  Uiso   1.00
C514   C     0.24666   0.40751   0.01486   0.00000  Uiso   1.00
C515   C     0.28909   0.36112   0.94814   0.00000  Uiso   1.00
C516   C     0.16931   0.47560   0.31714   0.00000  Uiso   1.00
C517   C     0.17906   0.50793   0.39245   0.00000  Uiso   1.00
C518   C     0.17789   0.50498   0.53595   0.00000  Uiso   1.00
C519   C     0.18051   0.51500   0.77080   0.00000  Uiso   1.00
C520   C     0.14925   0.40977   0.28038   0.00000  Uiso   1.00
C521   C     0.11789   0.42554   0.18686   0.00000  Uiso   1.00
C522   C     0.08232   0.40909   0.16549   0.00000  Uiso   1.00
C523   C     0.05764   0.42793   0.07600   0.00000  Uiso   1.00
C524   C     0.18441   0.40520   0.18858   0.00000  Uiso   1.00
C525   C     0.20478   0.37165   0.16868   0.00000  Uiso   1.00
C526   C     0.23610   0.37338   0.08066   0.00000  Uiso   1.00
C527   C     0.15877   0.44153   0.38282   0.00000  Uiso   1.00
C528   C     0.15758   0.43853   0.52623   0.00000  Uiso   1.00
C529   C     0.16733   0.47085   0.60174   0.00000  Uiso   1.00
H530   H     0.17687   0.49901   0.10832   0.00000  Uiso   1.00
H531   H     0.11197   0.50484   0.98089   0.00000  Uiso   1.00
H532   H     0.23441   0.46741   0.98410   0.00000  Uiso   1.00
H533   H     0.18722   0.53428   0.34159   0.00000  Uiso   1.00
H534   H     0.03537   0.49628   0.86853   0.00000  Uiso   1.00
H535   H     0.29354   0.41737   0.87533   0.00000  Uiso   1.00
H536   H     0.19404   0.55838   0.62917   0.00000  Uiso   1.00
H537   H     0.14105   0.38324   0.33151   0.00000  Uiso   1.00
H538   H     0.07417   0.38272   0.21633   0.00000  Uiso   1.00
H539   H     0.19661   0.34530   0.21953   0.00000  Uiso   1.00
H540   H     0.14942   0.41217   0.57702   0.00000  Uiso   1.00
H541   H     0.00469   0.39716   0.05962   0.00000  Uiso   1.00
H542   H     0.26286   0.31825   0.06642   0.00000  Uiso   1.00
H543   H     0.16336   0.45926   0.82026   0.00000  Uiso   1.00
O544   O     0.97669   0.44846   0.88424   0.00000  Uiso   1.00
O545   O     0.31540   0.34494   0.89318   0.00000  Uiso   1.00
O546   O     0.18486   0.52994   0.88220   0.00000  Uiso   1.00
N547   N     0.03732   0.47302   0.92933   0.00000  Uiso   1.00
N548   N     0.27869   0.39925   0.93567   0.00000  Uiso   1.00
N549   N     0.18568   0.53108   0.64045   0.00000  Uiso   1.00
N550   N     0.02081   0.41969   0.03216   0.00000  Uiso   1.00
N551   N     0.26219   0.34591   0.03849   0.00000  Uiso   1.00
N552   N     0.16917   0.47774   0.74327   0.00000  Uiso   1.00
C553   C     0.97249   0.83134   0.90946   0.00000  Uiso   1.00
C554   C     0.95960   0.87157   0.87118   0.00000  Uiso   1.00
C555   C     0.97848   0.89620   0.78171   0.00000  Uiso   1.00
C556   C     0.96206   0.93179   0.76020   0.00000  Uiso   1.00
C557   C     0.94723   0.99266   0.69072   0.00000  Uiso   1.00
C558   C     0.93927   0.80505   0.87290   0.00000  Uiso   1.00
C559   C     0.94105   0.77375   0.78490   0.00000  Uiso   1.00
C560   C     0.90751   0.75334   0.76486   0.00000  Uiso   1.00
C561   C     0.86112   0.71091   0.69814   0.00000  Uiso   1.00
C562   C     0.97560   0.83069   0.06714   0.00000  Uiso   1.00
C563   C     0.00793   0.82094   0.14245   0.00000  Uiso   1.00
C564   C     0.00498   0.82211   0.28595   0.00000  Uiso   1.00
C565   C     0.01500   0.81949   0.52080   0.00000  Uiso   1.00
C566   C     0.90977   0.85075   0.03038   0.00000  Uiso   1.00
C567   C     0.92554   0.88211   0.93686   0.00000  Uiso   1.00
C568   C     0.90909   0.91768   0.91549   0.00000  Uiso   1.00
C569   C     0.92793   0.94236   0.82600   0.00000  Uiso   1.00
C570   C     0.90520   0.81559   0.93858   0.00000  Uiso   1.00
C571   C     0.87165   0.79522   0.91868   0.00000  Uiso   1.00
C572   C     0.87338   0.76390   0.83066   0.00000  Uiso   1.00
C573   C     0.94153   0.84123   0.13282   0.00000  Uiso   1.00
C574   C     0.93853   0.84242   0.27623   0.00000  Uiso   1.00
C575   C     0.97085   0.83267   0.35174   0.00000  Uiso   1.00
H576   H     0.99901   0.82313   0.85832   0.00000  Uiso   1.00
H577   H     0.00484   0.88803   0.73089   0.00000  Uiso   1.00
H578   H     0.96741   0.76559   0.73410   0.00000  Uiso   1.00
H579   H     0.03428   0.81278   0.09159   0.00000  Uiso   1.00
H580   H     0.99628   0.96463   0.61853   0.00000  Uiso   1.00
H581   H     0.91737   0.70646   0.62533   0.00000  Uiso   1.00
H582   H     0.05838   0.80596   0.37917   0.00000  Uiso   1.00
H583   H     0.88324   0.85895   0.08151   0.00000  Uiso   1.00
H584   H     0.88272   0.92583   0.96633   0.00000  Uiso   1.00
H585   H     0.84530   0.80339   0.96953   0.00000  Uiso   1.00
H586   H     0.91217   0.85058   0.32702   0.00000  Uiso   1.00
H587   H     0.89716   0.99531   0.80962   0.00000  Uiso   1.00
H588   H     0.81825   0.73714   0.81642   0.00000  Uiso   1.00
H589   H     0.95926   0.83664   0.57026   0.00000  Uiso   1.00
O590   O     0.94846   0.02331   0.63424   0.00000  Uiso   1.00
O591   O     0.84494   0.68460   0.64318   0.00000  Uiso   1.00
O592   O     0.02994   0.81514   0.63220   0.00000  Uiso   1.00
N593   N     0.97302   0.96268   0.67933   0.00000  Uiso   1.00
N594   N     0.89925   0.72131   0.68567   0.00000  Uiso   1.00
N595   N     0.03108   0.81432   0.39045   0.00000  Uiso   1.00
N596   N     0.91969   0.97919   0.78216   0.00000  Uiso   1.00
N597   N     0.84591   0.73781   0.78849   0.00000  Uiso   1.00
N598   N     0.97774   0.83083   0.49327   0.00000  Uiso   1.00
C599   C     0.47249   0.33134   0.40946   0.00000  Uiso   1.00
C600   C     0.45960   0.37157   0.37118   0.00000  Uiso   1.00
C601   C     0.47848   0.39620   0.28171   0.00000  Uiso   1.00
C602   C     0.46206   0.43179   0.26020   0.00000  Uiso   1.00
C603   C     0.44723   0.49266   0.19072   0.00000  Uiso   1.00
C604   C     0.43927   0.30505   0.37290   0.00000  Uiso   1.00
C605   C     0.44105   0.27375   0.28490   0.00000  Uiso   1.00
C606   C     0.40751   0.25334   0.26486   0.00000  Uiso   1.00
C607   C     0.36112   0.21091   0.19814   0.00000  Uiso   1.00
C608   C     0.47560   0.33069   0.56714   0.00000  Uiso   1.00
C609   C     0.50793   0.32094   0.64245   0.00000  Uiso   1.00
C610   C     0.50498   0.32211   0.78595   0.00000  Uiso   1.00
C611   C     0.51500   0.31949   0.02080   0.00000  Uiso   1.00
C612   C     0.40977   0.35075   0.53038   0.00000  Uiso   1.00
C613   C     0.42554   0.38211   0.43686   0.00000  Uiso   1.00
C614   C     0.40909   0.41768   0.41549   0.00000  Uiso   1.00
C615   C     0.42793   0.44236   0.32600   0.00000  Uiso   1.00
C616   C     0.40520   0.31559   0.43858   0.00000  Uiso   1.00
C617   C     0.37165   0.29522   0.41868   0.00000  Uiso   1.00
C618   C     0.37338   0.26390   0.33066   0.00000  Uiso   1.00
C619   C     0.44153   0.34123   0.63282   0.00000  Uiso   1.00
C620   C     0.43853   0.34242   0.77623   0.00000  Uiso   1.00
C621   C     0.47085   0.33267   0.85174   0.00000  Uiso   1.00
H622   H     0.49901   0.32313   0.35832   0.00000  Uiso   1.00
H623   H     0.50484   0.38803   0.23089   0.00000  Uiso   1.00
H624   H     0.46741   0.26559   0.23410   0.00000  Uiso   1.00
H625   H     0.53428   0.31278   0.59159   0.00000  Uiso   1.00
H626   H     0.49628   0.46463   0.11853   0.00000  Uiso   1.00
H627   H     0.41737   0.20646   0.12533   0.00000  Uiso   1.00
H628   H     0.55838   0.30596   0.87917   0.00000  Uiso   1.00
H629   H     0.38324   0.35895   0.58151   0.00000  Uiso   1.00
H630   H     0.38272   0.42583   0.46633   0.00000  Uiso   1.00
H631   H     0.34530   0.30339   0.46953   0.00000  Uiso   1.00
H632   H     0.41217   0.35058   0.82702   0.00000  Uiso   1.00
H633   H     0.39716   0.49531   0.30962   0.00000  Uiso   1.00
H634   H     0.31825   0.23714   0.31642   0.00000  Uiso   1.00
H635   H     0.45926   0.33664   0.07026   0.00000  Uiso   1.00
O636   O     0.44846   0.52331   0.13424   0.00000  Uiso   1.00
O637   O     0.34494   0.18460   0.14318   0.00000  Uiso   1.00
O638   O     0.52994   0.31514   0.13220   0.00000  Uiso   1.00
N639   N     0.47302   0.46268   0.17933   0.00000  Uiso   1.00
N640   N     0.39925   0.22131   0.18567   0.00000  Uiso   1.00
N641   N     0.53108   0.31432   0.89045   0.00000  Uiso   1.00
N642   N     0.41969   0.47919   0.28216   0.00000  Uiso   1.00
N643   N     0.34591   0.23781   0.28849   0.00000  Uiso   1.00
N644   N     0.47774   0.33083   0.99327   0.00000  Uiso   1.00
C645   C     0.52751   0.66866   0.40946   0.00000  Uiso   1.00
C646   C     0.54040   0.62843   0.37118   0.00000  Uiso   1.00
C647   C     0.52152   0.60380   0.28171   0.00000  Uiso   1.00
C648   C     0.53794   0.56821   0.26020   0.00000  Uiso   1.00
C649   C     0.55277   0.50734   0.19072   0.00000  Uiso   1.00
C650   C     0.56073   0.69495   0.37290   0.00000  Uiso   1.00
C651   C     0.55895   0.72625   0.28490   0.00000  Uiso   1.00
C652   C     0.59249   0.74666   0.26486   0.00000  Uiso   1.00
C653   C     0.63888   0.78909   0.19814   0.00000  Uiso   1.00
C654   C     0.52440   0.66931   0.56714   0.00000  Uiso   1.00
C655   C     0.49207   0.67906   0.64245   0.00000  Uiso   1.00
C656   C     0.49502   0.67789   0.78595   0.00000  Uiso   1.00
C657   C     0.48500   0.68051   0.02080   0.00000  Uiso   1.00
C658   C     0.59023   0.64925   0.53038   0.00000  Uiso   1.00
C659   C     0.57446   0.61789   0.43686   0.00000  Uiso   1.00
C660   C     0.59091   0.58232   0.41549   0.00000  Uiso   1.00
C661   C     0.57207   0.55764   0.32600   0.00000  Uiso   1.00
C662   C     0.59480   0.68441   0.43858   0.00000  Uiso   1.00
C663   C     0.62835   0.70478   0.41868   0.00000  Uiso   1.00
C664   C     0.62662   0.73610   0.33066   0.00000  Uiso   1.00
C665   C     0.55847   0.65877   0.63282   0.00000  Uiso   1.00
C666   C     0.56147   0.65758   0.77623   0.00000  Uiso   1.00
C667   C     0.52915   0.66733   0.85174   0.00000  Uiso   1.00
H668   H     0.50099   0.67687   0.35832   0.00000  Uiso   1.00
H669   H     0.49516   0.61197   0.23089   0.00000  Uiso   1.00
H670   H     0.53259   0.73441   0.23410   0.00000  Uiso   1.00
H671   H     0.46572   0.68722   0.59159   0.00000  Uiso   1.00
H672   H     0.50372   0.53537   0.11853   0.00000  Uiso   1.00
H673   H     0.58263   0.79354   0.12533   0.00000  Uiso   1.00
H674   H     0.44162   0.69404   0.87917   0.00000  Uiso   1.00
H675   H     0.61676   0.64105   0.58151   0.00000  Uiso   1.00
H676   H     0.61728   0.57417   0.46633   0.00000  Uiso   1.00
H677   H     0.65470   0.69661   0.46953   0.00000  Uiso   1.00
H678   H     0.58783   0.64942   0.82702   0.00000  Uiso   1.00
H679   H     0.60284   0.50469   0.30962   0.00000  Uiso   1.00
H680   H     0.68175   0.76286   0.31642   0.00000  Uiso   1.00
H681   H     0.54074   0.66336   0.07026   0.00000  Uiso   1.00
O682   O     0.55154   0.47669   0.13424   0.00000  Uiso   1.00
O683   O     0.65506   0.81540   0.14318   0.00000  Uiso   1.00
O684   O     0.47006   0.68486   0.13220   0.00000  Uiso   1.00
N685   N     0.52698   0.53732   0.17933   0.00000  Uiso   1.00
N686   N     0.60075   0.77869   0.18567   0.00000  Uiso   1.00
N687   N     0.46892   0.68568   0.89045   0.00000  Uiso   1.00
N688   N     0.58031   0.52081   0.28216   0.00000  Uiso   1.00
N689   N     0.65409   0.76219   0.28849   0.00000  Uiso   1.00
N690   N     0.52226   0.66917   0.99327   0.00000  Uiso   1.00
C691   C     0.02751   0.16866   0.90946   0.00000  Uiso   1.00
C692   C     0.04040   0.12843   0.87118   0.00000  Uiso   1.00
C693   C     0.02152   0.10380   0.78171   0.00000  Uiso   1.00
C694   C     0.03794   0.06821   0.76020   0.00000  Uiso   1.00
C695   C     0.05277   0.00734   0.69072   0.00000  Uiso   1.00
C696   C     0.06073   0.19495   0.87290   0.00000  Uiso   1.00
C697   C     0.05895   0.22625   0.78490   0.00000  Uiso   1.00
C698   C     0.09249   0.24666   0.76486   0.00000  Uiso   1.00
C699   C     0.13888   0.28909   0.69814   0.00000  Uiso   1.00
C700   C     0.02440   0.16931   0.06714   0.00000  Uiso   1.00
C701   C     0.99207   0.17906   0.14245   0.00000  Uiso   1.00
C702   C     0.99502   0.17789   0.28595   0.00000  Uiso   1.00
C703   C     0.98500   0.18051   0.52080   0.00000  Uiso   1.00
C704   C     0.09023   0.14925   0.03038   0.00000  Uiso   1.00
C705   C     0.07446   0.11789   0.93686   0.00000  Uiso   1.00
C706   C     0.09091   0.08232   0.91549   0.00000  Uiso   1.00
C707   C     0.07207   0.05764   0.82600   0.00000  Uiso   1.00
C708   C     0.09480   0.18441   0.93858   0.00000  Uiso   1.00
C709   C     0.12835   0.20478   0.91868   0.00000  Uiso   1.00
C710   C     0.12662   0.23610   0.83066   0.00000  Uiso   1.00
C711   C     0.05847   0.15877   0.13282   0.00000  Uiso   1.00
C712   C     0.06147   0.15758   0.27623   0.00000  Uiso   1.00
C713   C     0.02915   0.16733   0.35174   0.00000  Uiso   1.00
H714   H     0.00099   0.17687   0.85832   0.00000  Uiso   1.00
H715   H     0.99516   0.11197   0.73089   0.00000  Uiso   1.00
H716   H     0.03259   0.23441   0.73410   0.00000  Uiso   1.00
H717   H     0.96572   0.18722   0.09159   0.00000  Uiso   1.00
H718   H     0.00372   0.03537   0.61853   0.00000  Uiso   1.00
H719   H     0.08263   0.29354   0.62533   0.00000  Uiso   1.00
H720   H     0.94162   0.19404   0.37917   0.00000  Uiso   1.00
H721   H     0.11676   0.14105   0.08151   0.00000  Uiso   1.00
H722   H     0.11728   0.07417   0.96633   0.00000  Uiso   1.00
H723   H     0.15470   0.19661   0.96953   0.00000  Uiso   1.00
H724   H     0.08783   0.14942   0.32702   0.00000  Uiso   1.00
H725   H     0.10284   0.00469   0.80962   0.00000  Uiso   1.00
H726   H     0.18175   0.26286   0.81642   0.00000  Uiso   1.00
H727   H     0.04074   0.16336   0.57026   0.00000  Uiso   1.00
O728   O     0.05154   0.97669   0.63424   0.00000  Uiso   1.00
O729   O     0.15506   0.31540   0.64318   0.00000  Uiso   1.00
O730   O     0.97006   0.18486   0.63220   0.00000  Uiso   1.00
N731   N     0.02698   0.03732   0.67933   0.00000  Uiso   1.00
N732   N     0.10075   0.27869   0.68567   0.00000  Uiso   1.00
N733   N     0.96892   0.18568   0.39045   0.00000  Uiso   1.00
N734   N     0.08031   0.02081   0.78216   0.00000  Uiso   1.00
N735   N     0.15409   0.26219   0.78849   0.00000  Uiso   1.00
N736   N     0.02226   0.16917   0.49327   0.00000  Uiso   1.00
