data_job_01073
_audit_creation_date              2018-12-19
_audit_creation_method            'Materials Studio'
_symmetry_space_group_name_H-M    'P1'
_symmetry_Int_Tables_number       1
_symmetry_cell_setting            triclinic
loop_
_symmetry_equiv_pos_as_xyz
  x,y,z
_cell_length_a                    22.5457
_cell_length_b                    22.5457
_cell_length_c                    23.3931
_cell_angle_alpha                 90.0000
_cell_angle_beta                  90.0000
_cell_angle_gamma                 90.0000
loop_
_atom_site_label
_atom_site_type_symbol
_atom_site_fract_x
_atom_site_fract_y
_atom_site_fract_z
_atom_site_U_iso_or_equiv
_atom_site_adp_type
_atom_site_occupancy
C1     C     0.86732   0.59445   0.99188   0.00000  Uiso   1.00
C2     C     0.90815   0.63713   0.96012   0.00000  Uiso   1.00
C3     C     0.95068   0.62130   0.92004   0.00000  Uiso   1.00
C4     C     0.98353   0.66693   0.89581   0.00000  Uiso   1.00
C5     C     0.04837   0.72418   0.84418   0.00000  Uiso   1.00
C6     C     0.87771   0.60578   0.05537   0.00000  Uiso   1.00
C7     C     0.89463   0.56359   0.09537   0.00000  Uiso   1.00
C8     C     0.90183   0.58283   0.15132   0.00000  Uiso   1.00
C9     C     0.91936   0.59139   0.24757   0.00000  Uiso   1.00
C10    C     0.80426   0.61526   0.97953   0.00000  Uiso   1.00
C11    C     0.75942   0.58103   0.95578   0.00000  Uiso   1.00
C12    C     0.70478   0.60824   0.94789   0.00000  Uiso   1.00
C13    C     0.60828   0.63152   0.92638   0.00000  Uiso   1.00
C14    C     0.85002   0.70363   0.02013   0.00000  Uiso   1.00
C15    C     0.89875   0.69643   0.97546   0.00000  Uiso   1.00
C16    C     0.93154   0.74210   0.95129   0.00000  Uiso   1.00
C17    C     0.97411   0.72634   0.91118   0.00000  Uiso   1.00
C18    C     0.86830   0.66508   0.07071   0.00000  Uiso   1.00
C19    C     0.87548   0.68438   0.12662   0.00000  Uiso   1.00
C20    C     0.89241   0.64223   0.16669   0.00000  Uiso   1.00
C21    C     0.79486   0.67456   0.99487   0.00000  Uiso   1.00
C22    C     0.74028   0.70183   0.98702   0.00000  Uiso   1.00
C23    C     0.69537   0.66765   0.96326   0.00000  Uiso   1.00
H24    H     0.87464   0.54828   0.97995   0.00000  Uiso   1.00
H25    H     0.95795   0.57541   0.90818   0.00000  Uiso   1.00
H26    H     0.90189   0.51770   0.08349   0.00000  Uiso   1.00
H27    H     0.76671   0.53514   0.94391   0.00000  Uiso   1.00
H28    H     0.04618   0.63163   0.83540   0.00000  Uiso   1.00
H29    H     0.92796   0.50995   0.20504   0.00000  Uiso   1.00
H30    H     0.64291   0.54673   0.91072   0.00000  Uiso   1.00
H31    H     0.84270   0.74980   0.03207   0.00000  Uiso   1.00
H32    H     0.92425   0.78798   0.96317   0.00000  Uiso   1.00
H33    H     0.86820   0.73028   0.13847   0.00000  Uiso   1.00
H34    H     0.73302   0.74772   0.99890   0.00000  Uiso   1.00
H35    H     0.01883   0.80416   0.88003   0.00000  Uiso   1.00
H36    H     0.90061   0.68248   0.24967   0.00000  Uiso   1.00
H37    H     0.61556   0.71926   0.95535   0.00000  Uiso   1.00
O38    O     0.08674   0.73937   0.81146   0.00000  Uiso   1.00
O39    O     0.93164   0.57974   0.29642   0.00000  Uiso   1.00
O40    O     0.55765   0.62799   0.91027   0.00000  Uiso   1.00
N41    N     0.02854   0.66699   0.85535   0.00000  Uiso   1.00
N42    N     0.91803   0.55324   0.20094   0.00000  Uiso   1.00
N43    N     0.65152   0.58761   0.92579   0.00000  Uiso   1.00
N44    N     0.01382   0.75983   0.87937   0.00000  Uiso   1.00
N45    N     0.90331   0.64607   0.22496   0.00000  Uiso   1.00
N46    N     0.63680   0.68045   0.94981   0.00000  Uiso   1.00
C47    C     0.36732   0.09445   0.49188   0.00000  Uiso   1.00
C48    C     0.40815   0.13713   0.46012   0.00000  Uiso   1.00
C49    C     0.45068   0.12130   0.42004   0.00000  Uiso   1.00
C50    C     0.48353   0.16693   0.39581   0.00000  Uiso   1.00
C51    C     0.54837   0.22418   0.34418   0.00000  Uiso   1.00
C52    C     0.37771   0.10578   0.55537   0.00000  Uiso   1.00
C53    C     0.39463   0.06359   0.59537   0.00000  Uiso   1.00
C54    C     0.40183   0.08283   0.65132   0.00000  Uiso   1.00
C55    C     0.41936   0.09139   0.74757   0.00000  Uiso   1.00
C56    C     0.30426   0.11526   0.47953   0.00000  Uiso   1.00
C57    C     0.25942   0.08103   0.45578   0.00000  Uiso   1.00
C58    C     0.20478   0.10824   0.44789   0.00000  Uiso   1.00
C59    C     0.10828   0.13152   0.42638   0.00000  Uiso   1.00
C60    C     0.35002   0.20363   0.52013   0.00000  Uiso   1.00
C61    C     0.39875   0.19643   0.47546   0.00000  Uiso   1.00
C62    C     0.43154   0.24210   0.45129   0.00000  Uiso   1.00
C63    C     0.47411   0.22634   0.41118   0.00000  Uiso   1.00
C64    C     0.36830   0.16508   0.57071   0.00000  Uiso   1.00
C65    C     0.37548   0.18438   0.62662   0.00000  Uiso   1.00
C66    C     0.39241   0.14223   0.66669   0.00000  Uiso   1.00
C67    C     0.29486   0.17456   0.49487   0.00000  Uiso   1.00
C68    C     0.24028   0.20183   0.48702   0.00000  Uiso   1.00
C69    C     0.19537   0.16765   0.46326   0.00000  Uiso   1.00
H70    H     0.37464   0.04828   0.47995   0.00000  Uiso   1.00
H71    H     0.45795   0.07541   0.40818   0.00000  Uiso   1.00
H72    H     0.40189   0.01770   0.58349   0.00000  Uiso   1.00
H73    H     0.26671   0.03514   0.44391   0.00000  Uiso   1.00
H74    H     0.54618   0.13163   0.33540   0.00000  Uiso   1.00
H75    H     0.42796   0.00995   0.70504   0.00000  Uiso   1.00
H76    H     0.14291   0.04673   0.41072   0.00000  Uiso   1.00
H77    H     0.34270   0.24980   0.53207   0.00000  Uiso   1.00
H78    H     0.42425   0.28798   0.46317   0.00000  Uiso   1.00
H79    H     0.36820   0.23028   0.63847   0.00000  Uiso   1.00
H80    H     0.23302   0.24772   0.49890   0.00000  Uiso   1.00
H81    H     0.51883   0.30416   0.38003   0.00000  Uiso   1.00
H82    H     0.40061   0.18248   0.74967   0.00000  Uiso   1.00
H83    H     0.11556   0.21926   0.45535   0.00000  Uiso   1.00
O84    O     0.58674   0.23937   0.31146   0.00000  Uiso   1.00
O85    O     0.43164   0.07974   0.79642   0.00000  Uiso   1.00
O86    O     0.05765   0.12799   0.41027   0.00000  Uiso   1.00
N87    N     0.52854   0.16699   0.35535   0.00000  Uiso   1.00
N88    N     0.41803   0.05324   0.70094   0.00000  Uiso   1.00
N89    N     0.15152   0.08761   0.42579   0.00000  Uiso   1.00
N90    N     0.51382   0.25983   0.37937   0.00000  Uiso   1.00
N91    N     0.40331   0.14607   0.72496   0.00000  Uiso   1.00
N92    N     0.13680   0.18045   0.44981   0.00000  Uiso   1.00
C93    C     0.63268   0.90555   0.49188   0.00000  Uiso   1.00
C94    C     0.59185   0.86287   0.46012   0.00000  Uiso   1.00
C95    C     0.54932   0.87870   0.42004   0.00000  Uiso   1.00
C96    C     0.51647   0.83307   0.39581   0.00000  Uiso   1.00
C97    C     0.45163   0.77582   0.34418   0.00000  Uiso   1.00
C98    C     0.62229   0.89422   0.55537   0.00000  Uiso   1.00
C99    C     0.60537   0.93641   0.59537   0.00000  Uiso   1.00
C100   C     0.59817   0.91717   0.65132   0.00000  Uiso   1.00
C101   C     0.58064   0.90861   0.74757   0.00000  Uiso   1.00
C102   C     0.69574   0.88474   0.47953   0.00000  Uiso   1.00
C103   C     0.74058   0.91897   0.45578   0.00000  Uiso   1.00
C104   C     0.79522   0.89176   0.44789   0.00000  Uiso   1.00
C105   C     0.89172   0.86848   0.42638   0.00000  Uiso   1.00
C106   C     0.64998   0.79637   0.52013   0.00000  Uiso   1.00
C107   C     0.60125   0.80357   0.47546   0.00000  Uiso   1.00
C108   C     0.56846   0.75790   0.45129   0.00000  Uiso   1.00
C109   C     0.52589   0.77366   0.41118   0.00000  Uiso   1.00
C110   C     0.63170   0.83492   0.57071   0.00000  Uiso   1.00
C111   C     0.62452   0.81562   0.62662   0.00000  Uiso   1.00
C112   C     0.60759   0.85777   0.66669   0.00000  Uiso   1.00
C113   C     0.70514   0.82544   0.49487   0.00000  Uiso   1.00
C114   C     0.75972   0.79817   0.48702   0.00000  Uiso   1.00
C115   C     0.80463   0.83235   0.46326   0.00000  Uiso   1.00
H116   H     0.62536   0.95172   0.47995   0.00000  Uiso   1.00
H117   H     0.54205   0.92459   0.40818   0.00000  Uiso   1.00
H118   H     0.59811   0.98230   0.58349   0.00000  Uiso   1.00
H119   H     0.73329   0.96486   0.44391   0.00000  Uiso   1.00
H120   H     0.45382   0.86837   0.33540   0.00000  Uiso   1.00
H121   H     0.57204   0.99005   0.70504   0.00000  Uiso   1.00
H122   H     0.85709   0.95327   0.41072   0.00000  Uiso   1.00
H123   H     0.65730   0.75020   0.53207   0.00000  Uiso   1.00
H124   H     0.57575   0.71202   0.46317   0.00000  Uiso   1.00
H125   H     0.63180   0.76972   0.63847   0.00000  Uiso   1.00
H126   H     0.76698   0.75228   0.49890   0.00000  Uiso   1.00
H127   H     0.48117   0.69584   0.38003   0.00000  Uiso   1.00
H128   H     0.59939   0.81752   0.74967   0.00000  Uiso   1.00
H129   H     0.88444   0.78074   0.45535   0.00000  Uiso   1.00
O130   O     0.41326   0.76063   0.31146   0.00000  Uiso   1.00
O131   O     0.56836   0.92026   0.79642   0.00000  Uiso   1.00
O132   O     0.94235   0.87201   0.41027   0.00000  Uiso   1.00
N133   N     0.47146   0.83301   0.35535   0.00000  Uiso   1.00
N134   N     0.58197   0.94676   0.70094   0.00000  Uiso   1.00
N135   N     0.84848   0.91239   0.42579   0.00000  Uiso   1.00
N136   N     0.48618   0.74017   0.37937   0.00000  Uiso   1.00
N137   N     0.59669   0.85393   0.72496   0.00000  Uiso   1.00
N138   N     0.86320   0.81955   0.44981   0.00000  Uiso   1.00
C139   C     0.13268   0.40555   0.99188   0.00000  Uiso   1.00
C140   C     0.09185   0.36287   0.96012   0.00000  Uiso   1.00
C141   C     0.04932   0.37870   0.92004   0.00000  Uiso   1.00
C142   C     0.01647   0.33307   0.89581   0.00000  Uiso   1.00
C143   C     0.95163   0.27582   0.84418   0.00000  Uiso   1.00
C144   C     0.12229   0.39422   0.05537   0.00000  Uiso   1.00
C145   C     0.10537   0.43641   0.09537   0.00000  Uiso   1.00
C146   C     0.09817   0.41717   0.15132   0.00000  Uiso   1.00
C147   C     0.08064   0.40861   0.24757   0.00000  Uiso   1.00
C148   C     0.19574   0.38474   0.97953   0.00000  Uiso   1.00
C149   C     0.24058   0.41897   0.95578   0.00000  Uiso   1.00
C150   C     0.29522   0.39176   0.94789   0.00000  Uiso   1.00
C151   C     0.39172   0.36848   0.92638   0.00000  Uiso   1.00
C152   C     0.14998   0.29637   0.02013   0.00000  Uiso   1.00
C153   C     0.10125   0.30357   0.97546   0.00000  Uiso   1.00
C154   C     0.06846   0.25790   0.95129   0.00000  Uiso   1.00
C155   C     0.02589   0.27366   0.91118   0.00000  Uiso   1.00
C156   C     0.13170   0.33492   0.07071   0.00000  Uiso   1.00
C157   C     0.12452   0.31562   0.12662   0.00000  Uiso   1.00
C158   C     0.10759   0.35777   0.16669   0.00000  Uiso   1.00
C159   C     0.20514   0.32544   0.99487   0.00000  Uiso   1.00
C160   C     0.25972   0.29817   0.98702   0.00000  Uiso   1.00
C161   C     0.30463   0.33235   0.96326   0.00000  Uiso   1.00
H162   H     0.12536   0.45172   0.97995   0.00000  Uiso   1.00
H163   H     0.04205   0.42459   0.90818   0.00000  Uiso   1.00
H164   H     0.09811   0.48230   0.08349   0.00000  Uiso   1.00
H165   H     0.23329   0.46486   0.94391   0.00000  Uiso   1.00
H166   H     0.95382   0.36837   0.83540   0.00000  Uiso   1.00
H167   H     0.07204   0.49005   0.20504   0.00000  Uiso   1.00
H168   H     0.35709   0.45327   0.91072   0.00000  Uiso   1.00
H169   H     0.15730   0.25020   0.03207   0.00000  Uiso   1.00
H170   H     0.07575   0.21202   0.96317   0.00000  Uiso   1.00
H171   H     0.13180   0.26972   0.13847   0.00000  Uiso   1.00
H172   H     0.26698   0.25228   0.99890   0.00000  Uiso   1.00
H173   H     0.98117   0.19584   0.88003   0.00000  Uiso   1.00
H174   H     0.09939   0.31752   0.24967   0.00000  Uiso   1.00
H175   H     0.38444   0.28074   0.95535   0.00000  Uiso   1.00
O176   O     0.91326   0.26063   0.81146   0.00000  Uiso   1.00
O177   O     0.06836   0.42026   0.29642   0.00000  Uiso   1.00
O178   O     0.44235   0.37201   0.91027   0.00000  Uiso   1.00
N179   N     0.97146   0.33301   0.85535   0.00000  Uiso   1.00
N180   N     0.08197   0.44676   0.20094   0.00000  Uiso   1.00
N181   N     0.34848   0.41239   0.92579   0.00000  Uiso   1.00
N182   N     0.98618   0.24017   0.87937   0.00000  Uiso   1.00
N183   N     0.09669   0.35393   0.22496   0.00000  Uiso   1.00
N184   N     0.36320   0.31955   0.94981   0.00000  Uiso   1.00
C185   C     0.40555   0.36732   0.24188   0.00000  Uiso   1.00
C186   C     0.36287   0.40815   0.21012   0.00000  Uiso   1.00
C187   C     0.37870   0.45068   0.17004   0.00000  Uiso   1.00
C188   C     0.33307   0.48353   0.14581   0.00000  Uiso   1.00
C189   C     0.27582   0.54837   0.09418   0.00000  Uiso   1.00
C190   C     0.39422   0.37771   0.30537   0.00000  Uiso   1.00
C191   C     0.43641   0.39463   0.34537   0.00000  Uiso   1.00
C192   C     0.41717   0.40183   0.40132   0.00000  Uiso   1.00
C193   C     0.40861   0.41936   0.49757   0.00000  Uiso   1.00
C194   C     0.38474   0.30426   0.22953   0.00000  Uiso   1.00
C195   C     0.41897   0.25942   0.20578   0.00000  Uiso   1.00
C196   C     0.39176   0.20478   0.19789   0.00000  Uiso   1.00
C197   C     0.36848   0.10828   0.17638   0.00000  Uiso   1.00
C198   C     0.29637   0.35002   0.27013   0.00000  Uiso   1.00
C199   C     0.30357   0.39875   0.22546   0.00000  Uiso   1.00
C200   C     0.25790   0.43154   0.20129   0.00000  Uiso   1.00
C201   C     0.27366   0.47411   0.16118   0.00000  Uiso   1.00
C202   C     0.33492   0.36830   0.32071   0.00000  Uiso   1.00
C203   C     0.31562   0.37548   0.37662   0.00000  Uiso   1.00
C204   C     0.35777   0.39241   0.41669   0.00000  Uiso   1.00
C205   C     0.32544   0.29486   0.24487   0.00000  Uiso   1.00
C206   C     0.29817   0.24028   0.23702   0.00000  Uiso   1.00
C207   C     0.33235   0.19537   0.21326   0.00000  Uiso   1.00
H208   H     0.45172   0.37464   0.22995   0.00000  Uiso   1.00
H209   H     0.42459   0.45795   0.15818   0.00000  Uiso   1.00
H210   H     0.48230   0.40189   0.33349   0.00000  Uiso   1.00
H211   H     0.46486   0.26671   0.19391   0.00000  Uiso   1.00
H212   H     0.36837   0.54618   0.08540   0.00000  Uiso   1.00
H213   H     0.49005   0.42796   0.45504   0.00000  Uiso   1.00
H214   H     0.45327   0.14291   0.16072   0.00000  Uiso   1.00
H215   H     0.25020   0.34270   0.28207   0.00000  Uiso   1.00
H216   H     0.21202   0.42425   0.21317   0.00000  Uiso   1.00
H217   H     0.26972   0.36820   0.38847   0.00000  Uiso   1.00
H218   H     0.25228   0.23302   0.24890   0.00000  Uiso   1.00
H219   H     0.19584   0.51883   0.13003   0.00000  Uiso   1.00
H220   H     0.31752   0.40061   0.49967   0.00000  Uiso   1.00
H221   H     0.28074   0.11556   0.20535   0.00000  Uiso   1.00
O222   O     0.26063   0.58674   0.06146   0.00000  Uiso   1.00
O223   O     0.42026   0.43164   0.54642   0.00000  Uiso   1.00
O224   O     0.37201   0.05765   0.16027   0.00000  Uiso   1.00
N225   N     0.33301   0.52854   0.10535   0.00000  Uiso   1.00
N226   N     0.44676   0.41803   0.45094   0.00000  Uiso   1.00
N227   N     0.41239   0.15152   0.17579   0.00000  Uiso   1.00
N228   N     0.24017   0.51382   0.12937   0.00000  Uiso   1.00
N229   N     0.35393   0.40331   0.47496   0.00000  Uiso   1.00
N230   N     0.31955   0.13680   0.19981   0.00000  Uiso   1.00
C231   C     0.90555   0.86732   0.74188   0.00000  Uiso   1.00
C232   C     0.86287   0.90815   0.71012   0.00000  Uiso   1.00
C233   C     0.87870   0.95068   0.67004   0.00000  Uiso   1.00
C234   C     0.83307   0.98353   0.64581   0.00000  Uiso   1.00
C235   C     0.77582   0.04837   0.59418   0.00000  Uiso   1.00
C236   C     0.89422   0.87771   0.80537   0.00000  Uiso   1.00
C237   C     0.93641   0.89463   0.84537   0.00000  Uiso   1.00
C238   C     0.91717   0.90183   0.90132   0.00000  Uiso   1.00
C239   C     0.90861   0.91936   0.99757   0.00000  Uiso   1.00
C240   C     0.88474   0.80426   0.72953   0.00000  Uiso   1.00
C241   C     0.91897   0.75942   0.70578   0.00000  Uiso   1.00
C242   C     0.89176   0.70478   0.69789   0.00000  Uiso   1.00
C243   C     0.86848   0.60828   0.67638   0.00000  Uiso   1.00
C244   C     0.79637   0.85002   0.77013   0.00000  Uiso   1.00
C245   C     0.80357   0.89875   0.72546   0.00000  Uiso   1.00
C246   C     0.75790   0.93154   0.70129   0.00000  Uiso   1.00
C247   C     0.77366   0.97411   0.66118   0.00000  Uiso   1.00
C248   C     0.83492   0.86830   0.82071   0.00000  Uiso   1.00
C249   C     0.81562   0.87548   0.87662   0.00000  Uiso   1.00
C250   C     0.85777   0.89241   0.91669   0.00000  Uiso   1.00
C251   C     0.82544   0.79486   0.74487   0.00000  Uiso   1.00
C252   C     0.79817   0.74028   0.73702   0.00000  Uiso   1.00
C253   C     0.83235   0.69537   0.71326   0.00000  Uiso   1.00
H254   H     0.95172   0.87464   0.72995   0.00000  Uiso   1.00
H255   H     0.92459   0.95795   0.65818   0.00000  Uiso   1.00
H256   H     0.98230   0.90189   0.83349   0.00000  Uiso   1.00
H257   H     0.96486   0.76671   0.69391   0.00000  Uiso   1.00
H258   H     0.86837   0.04618   0.58540   0.00000  Uiso   1.00
H259   H     0.99005   0.92796   0.95504   0.00000  Uiso   1.00
H260   H     0.95327   0.64291   0.66072   0.00000  Uiso   1.00
H261   H     0.75020   0.84270   0.78207   0.00000  Uiso   1.00
H262   H     0.71202   0.92425   0.71317   0.00000  Uiso   1.00
H263   H     0.76972   0.86820   0.88847   0.00000  Uiso   1.00
H264   H     0.75228   0.73302   0.74890   0.00000  Uiso   1.00
H265   H     0.69584   0.01883   0.63003   0.00000  Uiso   1.00
H266   H     0.81752   0.90061   0.99967   0.00000  Uiso   1.00
H267   H     0.78074   0.61556   0.70535   0.00000  Uiso   1.00
O268   O     0.76063   0.08674   0.56146   0.00000  Uiso   1.00
O269   O     0.92026   0.93164   0.04642   0.00000  Uiso   1.00
O270   O     0.87201   0.55765   0.66027   0.00000  Uiso   1.00
N271   N     0.83301   0.02854   0.60535   0.00000  Uiso   1.00
N272   N     0.94676   0.91803   0.95094   0.00000  Uiso   1.00
N273   N     0.91239   0.65152   0.67579   0.00000  Uiso   1.00
N274   N     0.74017   0.01382   0.62937   0.00000  Uiso   1.00
N275   N     0.85393   0.90331   0.97496   0.00000  Uiso   1.00
N276   N     0.81955   0.63680   0.69981   0.00000  Uiso   1.00
C277   C     0.09445   0.13268   0.74188   0.00000  Uiso   1.00
C278   C     0.13713   0.09185   0.71012   0.00000  Uiso   1.00
C279   C     0.12130   0.04932   0.67004   0.00000  Uiso   1.00
C280   C     0.16693   0.01647   0.64581   0.00000  Uiso   1.00
C281   C     0.22418   0.95163   0.59418   0.00000  Uiso   1.00
C282   C     0.10578   0.12229   0.80537   0.00000  Uiso   1.00
C283   C     0.06359   0.10537   0.84537   0.00000  Uiso   1.00
C284   C     0.08283   0.09817   0.90132   0.00000  Uiso   1.00
C285   C     0.09139   0.08064   0.99757   0.00000  Uiso   1.00
C286   C     0.11526   0.19574   0.72953   0.00000  Uiso   1.00
C287   C     0.08103   0.24058   0.70578   0.00000  Uiso   1.00
C288   C     0.10824   0.29522   0.69789   0.00000  Uiso   1.00
C289   C     0.13152   0.39172   0.67638   0.00000  Uiso   1.00
C290   C     0.20363   0.14998   0.77013   0.00000  Uiso   1.00
C291   C     0.19643   0.10125   0.72546   0.00000  Uiso   1.00
C292   C     0.24210   0.06846   0.70129   0.00000  Uiso   1.00
C293   C     0.22634   0.02589   0.66118   0.00000  Uiso   1.00
C294   C     0.16508   0.13170   0.82071   0.00000  Uiso   1.00
C295   C     0.18438   0.12452   0.87662   0.00000  Uiso   1.00
C296   C     0.14223   0.10759   0.91669   0.00000  Uiso   1.00
C297   C     0.17456   0.20514   0.74487   0.00000  Uiso   1.00
C298   C     0.20183   0.25972   0.73702   0.00000  Uiso   1.00
C299   C     0.16765   0.30463   0.71326   0.00000  Uiso   1.00
H300   H     0.04828   0.12536   0.72995   0.00000  Uiso   1.00
H301   H     0.07541   0.04205   0.65818   0.00000  Uiso   1.00
H302   H     0.01770   0.09811   0.83349   0.00000  Uiso   1.00
H303   H     0.03514   0.23329   0.69391   0.00000  Uiso   1.00
H304   H     0.13163   0.95382   0.58540   0.00000  Uiso   1.00
H305   H     0.00995   0.07204   0.95504   0.00000  Uiso   1.00
H306   H     0.04673   0.35709   0.66072   0.00000  Uiso   1.00
H307   H     0.24980   0.15730   0.78207   0.00000  Uiso   1.00
H308   H     0.28798   0.07575   0.71317   0.00000  Uiso   1.00
H309   H     0.23028   0.13180   0.88847   0.00000  Uiso   1.00
H310   H     0.24772   0.26698   0.74890   0.00000  Uiso   1.00
H311   H     0.30416   0.98117   0.63003   0.00000  Uiso   1.00
H312   H     0.18248   0.09939   0.99967   0.00000  Uiso   1.00
H313   H     0.21926   0.38444   0.70535   0.00000  Uiso   1.00
O314   O     0.23937   0.91326   0.56146   0.00000  Uiso   1.00
O315   O     0.07974   0.06836   0.04642   0.00000  Uiso   1.00
O316   O     0.12799   0.44235   0.66027   0.00000  Uiso   1.00
N317   N     0.16699   0.97146   0.60535   0.00000  Uiso   1.00
N318   N     0.05324   0.08197   0.95094   0.00000  Uiso   1.00
N319   N     0.08761   0.34848   0.67579   0.00000  Uiso   1.00
N320   N     0.25983   0.98618   0.62937   0.00000  Uiso   1.00
N321   N     0.14607   0.09669   0.97496   0.00000  Uiso   1.00
N322   N     0.18045   0.36320   0.69981   0.00000  Uiso   1.00
C323   C     0.59445   0.63268   0.24188   0.00000  Uiso   1.00
C324   C     0.63713   0.59185   0.21012   0.00000  Uiso   1.00
C325   C     0.62130   0.54932   0.17004   0.00000  Uiso   1.00
C326   C     0.66693   0.51647   0.14581   0.00000  Uiso   1.00
C327   C     0.72418   0.45163   0.09418   0.00000  Uiso   1.00
C328   C     0.60578   0.62229   0.30537   0.00000  Uiso   1.00
C329   C     0.56359   0.60537   0.34537   0.00000  Uiso   1.00
C330   C     0.58283   0.59817   0.40132   0.00000  Uiso   1.00
C331   C     0.59139   0.58064   0.49757   0.00000  Uiso   1.00
C332   C     0.61526   0.69574   0.22953   0.00000  Uiso   1.00
C333   C     0.58103   0.74058   0.20578   0.00000  Uiso   1.00
C334   C     0.60824   0.79522   0.19789   0.00000  Uiso   1.00
C335   C     0.63152   0.89172   0.17638   0.00000  Uiso   1.00
C336   C     0.70363   0.64998   0.27013   0.00000  Uiso   1.00
C337   C     0.69643   0.60125   0.22546   0.00000  Uiso   1.00
C338   C     0.74210   0.56846   0.20129   0.00000  Uiso   1.00
C339   C     0.72634   0.52589   0.16118   0.00000  Uiso   1.00
C340   C     0.66508   0.63170   0.32071   0.00000  Uiso   1.00
C341   C     0.68438   0.62452   0.37662   0.00000  Uiso   1.00
C342   C     0.64223   0.60759   0.41669   0.00000  Uiso   1.00
C343   C     0.67456   0.70514   0.24487   0.00000  Uiso   1.00
C344   C     0.70183   0.75972   0.23702   0.00000  Uiso   1.00
C345   C     0.66765   0.80463   0.21326   0.00000  Uiso   1.00
H346   H     0.54828   0.62536   0.22995   0.00000  Uiso   1.00
H347   H     0.57541   0.54205   0.15818   0.00000  Uiso   1.00
H348   H     0.51770   0.59811   0.33349   0.00000  Uiso   1.00
H349   H     0.53514   0.73329   0.19391   0.00000  Uiso   1.00
H350   H     0.63163   0.45382   0.08540   0.00000  Uiso   1.00
H351   H     0.50995   0.57204   0.45504   0.00000  Uiso   1.00
H352   H     0.54673   0.85709   0.16072   0.00000  Uiso   1.00
H353   H     0.74980   0.65730   0.28207   0.00000  Uiso   1.00
H354   H     0.78798   0.57575   0.21317   0.00000  Uiso   1.00
H355   H     0.73028   0.63180   0.38847   0.00000  Uiso   1.00
H356   H     0.74772   0.76698   0.24890   0.00000  Uiso   1.00
H357   H     0.80416   0.48117   0.13003   0.00000  Uiso   1.00
H358   H     0.68248   0.59939   0.49967   0.00000  Uiso   1.00
H359   H     0.71926   0.88444   0.20535   0.00000  Uiso   1.00
O360   O     0.73937   0.41326   0.06146   0.00000  Uiso   1.00
O361   O     0.57974   0.56836   0.54642   0.00000  Uiso   1.00
O362   O     0.62799   0.94235   0.16027   0.00000  Uiso   1.00
N363   N     0.66699   0.47146   0.10535   0.00000  Uiso   1.00
N364   N     0.55324   0.58197   0.45094   0.00000  Uiso   1.00
N365   N     0.58761   0.84848   0.17579   0.00000  Uiso   1.00
N366   N     0.75983   0.48618   0.12937   0.00000  Uiso   1.00
N367   N     0.64607   0.59669   0.47496   0.00000  Uiso   1.00
N368   N     0.68045   0.86320   0.19981   0.00000  Uiso   1.00
C369   C     0.86732   0.40555   0.49188   0.00000  Uiso   1.00
C370   C     0.90815   0.36287   0.46012   0.00000  Uiso   1.00
C371   C     0.95068   0.37870   0.42004   0.00000  Uiso   1.00
C372   C     0.98353   0.33307   0.39581   0.00000  Uiso   1.00
C373   C     0.04837   0.27582   0.34418   0.00000  Uiso   1.00
C374   C     0.87771   0.39422   0.55537   0.00000  Uiso   1.00
C375   C     0.89463   0.43641   0.59537   0.00000  Uiso   1.00
C376   C     0.90183   0.41717   0.65132   0.00000  Uiso   1.00
C377   C     0.91936   0.40861   0.74757   0.00000  Uiso   1.00
C378   C     0.80426   0.38474   0.47953   0.00000  Uiso   1.00
C379   C     0.75942   0.41897   0.45578   0.00000  Uiso   1.00
C380   C     0.70478   0.39176   0.44789   0.00000  Uiso   1.00
C381   C     0.60828   0.36848   0.42638   0.00000  Uiso   1.00
C382   C     0.85002   0.29637   0.52013   0.00000  Uiso   1.00
C383   C     0.89875   0.30357   0.47546   0.00000  Uiso   1.00
C384   C     0.93154   0.25790   0.45129   0.00000  Uiso   1.00
C385   C     0.97411   0.27366   0.41118   0.00000  Uiso   1.00
C386   C     0.86830   0.33492   0.57071   0.00000  Uiso   1.00
C387   C     0.87548   0.31562   0.62662   0.00000  Uiso   1.00
C388   C     0.89241   0.35777   0.66669   0.00000  Uiso   1.00
C389   C     0.79486   0.32544   0.49487   0.00000  Uiso   1.00
C390   C     0.74028   0.29817   0.48702   0.00000  Uiso   1.00
C391   C     0.69537   0.33235   0.46326   0.00000  Uiso   1.00
H392   H     0.87464   0.45172   0.47995   0.00000  Uiso   1.00
H393   H     0.95795   0.42459   0.40818   0.00000  Uiso   1.00
H394   H     0.90189   0.48230   0.58349   0.00000  Uiso   1.00
H395   H     0.76671   0.46486   0.44391   0.00000  Uiso   1.00
H396   H     0.04618   0.36837   0.33540   0.00000  Uiso   1.00
H397   H     0.92796   0.49005   0.70504   0.00000  Uiso   1.00
H398   H     0.64291   0.45327   0.41072   0.00000  Uiso   1.00
H399   H     0.84270   0.25020   0.53207   0.00000  Uiso   1.00
H400   H     0.92425   0.21202   0.46317   0.00000  Uiso   1.00
H401   H     0.86820   0.26972   0.63847   0.00000  Uiso   1.00
H402   H     0.73302   0.25228   0.49890   0.00000  Uiso   1.00
H403   H     0.01883   0.19584   0.38003   0.00000  Uiso   1.00
H404   H     0.90061   0.31752   0.74967   0.00000  Uiso   1.00
H405   H     0.61556   0.28074   0.45535   0.00000  Uiso   1.00
O406   O     0.08674   0.26063   0.31146   0.00000  Uiso   1.00
O407   O     0.93164   0.42026   0.79642   0.00000  Uiso   1.00
O408   O     0.55765   0.37201   0.41027   0.00000  Uiso   1.00
N409   N     0.02854   0.33301   0.35535   0.00000  Uiso   1.00
N410   N     0.91803   0.44676   0.70094   0.00000  Uiso   1.00
N411   N     0.65152   0.41239   0.42579   0.00000  Uiso   1.00
N412   N     0.01382   0.24017   0.37937   0.00000  Uiso   1.00
N413   N     0.90331   0.35393   0.72496   0.00000  Uiso   1.00
N414   N     0.63680   0.31955   0.44981   0.00000  Uiso   1.00
C415   C     0.36732   0.90555   0.99188   0.00000  Uiso   1.00
C416   C     0.40815   0.86287   0.96012   0.00000  Uiso   1.00
C417   C     0.45068   0.87870   0.92004   0.00000  Uiso   1.00
C418   C     0.48353   0.83307   0.89581   0.00000  Uiso   1.00
C419   C     0.54837   0.77582   0.84418   0.00000  Uiso   1.00
C420   C     0.37771   0.89422   0.05537   0.00000  Uiso   1.00
C421   C     0.39463   0.93641   0.09537   0.00000  Uiso   1.00
C422   C     0.40183   0.91717   0.15132   0.00000  Uiso   1.00
C423   C     0.41936   0.90861   0.24757   0.00000  Uiso   1.00
C424   C     0.30426   0.88474   0.97953   0.00000  Uiso   1.00
C425   C     0.25942   0.91897   0.95578   0.00000  Uiso   1.00
C426   C     0.20478   0.89176   0.94789   0.00000  Uiso   1.00
C427   C     0.10828   0.86848   0.92638   0.00000  Uiso   1.00
C428   C     0.35002   0.79637   0.02013   0.00000  Uiso   1.00
C429   C     0.39875   0.80357   0.97546   0.00000  Uiso   1.00
C430   C     0.43154   0.75790   0.95129   0.00000  Uiso   1.00
C431   C     0.47411   0.77366   0.91118   0.00000  Uiso   1.00
C432   C     0.36830   0.83492   0.07071   0.00000  Uiso   1.00
C433   C     0.37548   0.81562   0.12662   0.00000  Uiso   1.00
C434   C     0.39241   0.85777   0.16669   0.00000  Uiso   1.00
C435   C     0.29486   0.82544   0.99487   0.00000  Uiso   1.00
C436   C     0.24028   0.79817   0.98702   0.00000  Uiso   1.00
C437   C     0.19537   0.83235   0.96326   0.00000  Uiso   1.00
H438   H     0.37464   0.95172   0.97995   0.00000  Uiso   1.00
H439   H     0.45795   0.92459   0.90818   0.00000  Uiso   1.00
H440   H     0.40189   0.98230   0.08349   0.00000  Uiso   1.00
H441   H     0.26671   0.96486   0.94391   0.00000  Uiso   1.00
H442   H     0.54618   0.86837   0.83540   0.00000  Uiso   1.00
H443   H     0.42796   0.99005   0.20504   0.00000  Uiso   1.00
H444   H     0.14291   0.95327   0.91072   0.00000  Uiso   1.00
H445   H     0.34270   0.75020   0.03207   0.00000  Uiso   1.00
H446   H     0.42425   0.71202   0.96317   0.00000  Uiso   1.00
H447   H     0.36820   0.76972   0.13847   0.00000  Uiso   1.00
H448   H     0.23302   0.75228   0.99890   0.00000  Uiso   1.00
H449   H     0.51883   0.69584   0.88003   0.00000  Uiso   1.00
H450   H     0.40061   0.81752   0.24967   0.00000  Uiso   1.00
H451   H     0.11556   0.78074   0.95535   0.00000  Uiso   1.00
O452   O     0.58674   0.76063   0.81146   0.00000  Uiso   1.00
O453   O     0.43164   0.92026   0.29642   0.00000  Uiso   1.00
O454   O     0.05765   0.87201   0.91027   0.00000  Uiso   1.00
N455   N     0.52854   0.83301   0.85535   0.00000  Uiso   1.00
N456   N     0.41803   0.94676   0.20094   0.00000  Uiso   1.00
N457   N     0.15152   0.91239   0.92579   0.00000  Uiso   1.00
N458   N     0.51382   0.74017   0.87937   0.00000  Uiso   1.00
N459   N     0.40331   0.85393   0.22496   0.00000  Uiso   1.00
N460   N     0.13680   0.81955   0.94981   0.00000  Uiso   1.00
C461   C     0.63268   0.09445   0.99188   0.00000  Uiso   1.00
C462   C     0.59185   0.13713   0.96012   0.00000  Uiso   1.00
C463   C     0.54932   0.12130   0.92004   0.00000  Uiso   1.00
C464   C     0.51647   0.16693   0.89581   0.00000  Uiso   1.00
C465   C     0.45163   0.22418   0.84418   0.00000  Uiso   1.00
C466   C     0.62229   0.10578   0.05537   0.00000  Uiso   1.00
C467   C     0.60537   0.06359   0.09537   0.00000  Uiso   1.00
C468   C     0.59817   0.08283   0.15132   0.00000  Uiso   1.00
C469   C     0.58064   0.09139   0.24757   0.00000  Uiso   1.00
C470   C     0.69574   0.11526   0.97953   0.00000  Uiso   1.00
C471   C     0.74058   0.08103   0.95578   0.00000  Uiso   1.00
C472   C     0.79522   0.10824   0.94789   0.00000  Uiso   1.00
C473   C     0.89172   0.13152   0.92638   0.00000  Uiso   1.00
C474   C     0.64998   0.20363   0.02013   0.00000  Uiso   1.00
C475   C     0.60125   0.19643   0.97546   0.00000  Uiso   1.00
C476   C     0.56846   0.24210   0.95129   0.00000  Uiso   1.00
C477   C     0.52589   0.22634   0.91118   0.00000  Uiso   1.00
C478   C     0.63170   0.16508   0.07071   0.00000  Uiso   1.00
C479   C     0.62452   0.18438   0.12662   0.00000  Uiso   1.00
C480   C     0.60759   0.14223   0.16669   0.00000  Uiso   1.00
C481   C     0.70514   0.17456   0.99487   0.00000  Uiso   1.00
C482   C     0.75972   0.20183   0.98702   0.00000  Uiso   1.00
C483   C     0.80463   0.16765   0.96326   0.00000  Uiso   1.00
H484   H     0.62536   0.04828   0.97995   0.00000  Uiso   1.00
H485   H     0.54205   0.07541   0.90818   0.00000  Uiso   1.00
H486   H     0.59811   0.01770   0.08349   0.00000  Uiso   1.00
H487   H     0.73329   0.03514   0.94391   0.00000  Uiso   1.00
H488   H     0.45382   0.13163   0.83540   0.00000  Uiso   1.00
H489   H     0.57204   0.00995   0.20504   0.00000  Uiso   1.00
H490   H     0.85709   0.04673   0.91072   0.00000  Uiso   1.00
H491   H     0.65730   0.24980   0.03207   0.00000  Uiso   1.00
H492   H     0.57575   0.28798   0.96317   0.00000  Uiso   1.00
H493   H     0.63180   0.23028   0.13847   0.00000  Uiso   1.00
H494   H     0.76698   0.24772   0.99890   0.00000  Uiso   1.00
H495   H     0.48117   0.30416   0.88003   0.00000  Uiso   1.00
H496   H     0.59939   0.18248   0.24967   0.00000  Uiso   1.00
H497   H     0.88444   0.21926   0.95535   0.00000  Uiso   1.00
O498   O     0.41326   0.23937   0.81146   0.00000  Uiso   1.00
O499   O     0.56836   0.07974   0.29642   0.00000  Uiso   1.00
O500   O     0.94235   0.12799   0.91027   0.00000  Uiso   1.00
N501   N     0.47146   0.16699   0.85535   0.00000  Uiso   1.00
N502   N     0.58197   0.05324   0.20094   0.00000  Uiso   1.00
N503   N     0.84848   0.08761   0.92579   0.00000  Uiso   1.00
N504   N     0.48618   0.25983   0.87937   0.00000  Uiso   1.00
N505   N     0.59669   0.14607   0.22496   0.00000  Uiso   1.00
N506   N     0.86320   0.18045   0.94981   0.00000  Uiso   1.00
C507   C     0.13268   0.59445   0.49188   0.00000  Uiso   1.00
C508   C     0.09185   0.63713   0.46012   0.00000  Uiso   1.00
C509   C     0.04932   0.62130   0.42004   0.00000  Uiso   1.00
C510   C     0.01647   0.66693   0.39581   0.00000  Uiso   1.00
C511   C     0.95163   0.72418   0.34418   0.00000  Uiso   1.00
C512   C     0.12229   0.60578   0.55537   0.00000  Uiso   1.00
C513   C     0.10537   0.56359   0.59537   0.00000  Uiso   1.00
C514   C     0.09817   0.58283   0.65132   0.00000  Uiso   1.00
C515   C     0.08064   0.59139   0.74757   0.00000  Uiso   1.00
C516   C     0.19574   0.61526   0.47953   0.00000  Uiso   1.00
C517   C     0.24058   0.58103   0.45578   0.00000  Uiso   1.00
C518   C     0.29522   0.60824   0.44789   0.00000  Uiso   1.00
C519   C     0.39172   0.63152   0.42638   0.00000  Uiso   1.00
C520   C     0.14998   0.70363   0.52013   0.00000  Uiso   1.00
C521   C     0.10125   0.69643   0.47546   0.00000  Uiso   1.00
C522   C     0.06846   0.74210   0.45129   0.00000  Uiso   1.00
C523   C     0.02589   0.72634   0.41118   0.00000  Uiso   1.00
C524   C     0.13170   0.66508   0.57071   0.00000  Uiso   1.00
C525   C     0.12452   0.68438   0.62662   0.00000  Uiso   1.00
C526   C     0.10759   0.64223   0.66669   0.00000  Uiso   1.00
C527   C     0.20514   0.67456   0.49487   0.00000  Uiso   1.00
C528   C     0.25972   0.70183   0.48702   0.00000  Uiso   1.00
C529   C     0.30463   0.66765   0.46326   0.00000  Uiso   1.00
H530   H     0.12536   0.54828   0.47995   0.00000  Uiso   1.00
H531   H     0.04205   0.57541   0.40818   0.00000  Uiso   1.00
H532   H     0.09811   0.51770   0.58349   0.00000  Uiso   1.00
H533   H     0.23329   0.53514   0.44391   0.00000  Uiso   1.00
H534   H     0.95382   0.63163   0.33540   0.00000  Uiso   1.00
H535   H     0.07204   0.50995   0.70504   0.00000  Uiso   1.00
H536   H     0.35709   0.54673   0.41072   0.00000  Uiso   1.00
H537   H     0.15730   0.74980   0.53207   0.00000  Uiso   1.00
H538   H     0.07575   0.78798   0.46317   0.00000  Uiso   1.00
H539   H     0.13180   0.73028   0.63847   0.00000  Uiso   1.00
H540   H     0.26698   0.74772   0.49890   0.00000  Uiso   1.00
H541   H     0.98117   0.80416   0.38003   0.00000  Uiso   1.00
H542   H     0.09939   0.68248   0.74967   0.00000  Uiso   1.00
H543   H     0.38444   0.71926   0.45535   0.00000  Uiso   1.00
O544   O     0.91326   0.73937   0.31146   0.00000  Uiso   1.00
O545   O     0.06836   0.57974   0.79642   0.00000  Uiso   1.00
O546   O     0.44235   0.62799   0.41027   0.00000  Uiso   1.00
N547   N     0.97146   0.66699   0.35535   0.00000  Uiso   1.00
N548   N     0.08197   0.55324   0.70094   0.00000  Uiso   1.00
N549   N     0.34848   0.58761   0.42579   0.00000  Uiso   1.00
N550   N     0.98618   0.75983   0.37937   0.00000  Uiso   1.00
N551   N     0.09669   0.64607   0.72496   0.00000  Uiso   1.00
N552   N     0.36320   0.68045   0.44981   0.00000  Uiso   1.00
C553   C     0.40555   0.63268   0.74188   0.00000  Uiso   1.00
C554   C     0.36287   0.59185   0.71012   0.00000  Uiso   1.00
C555   C     0.37870   0.54932   0.67004   0.00000  Uiso   1.00
C556   C     0.33307   0.51647   0.64581   0.00000  Uiso   1.00
C557   C     0.27582   0.45163   0.59418   0.00000  Uiso   1.00
C558   C     0.39422   0.62229   0.80537   0.00000  Uiso   1.00
C559   C     0.43641   0.60537   0.84537   0.00000  Uiso   1.00
C560   C     0.41717   0.59817   0.90132   0.00000  Uiso   1.00
C561   C     0.40861   0.58064   0.99757   0.00000  Uiso   1.00
C562   C     0.38474   0.69574   0.72953   0.00000  Uiso   1.00
C563   C     0.41897   0.74058   0.70578   0.00000  Uiso   1.00
C564   C     0.39176   0.79522   0.69789   0.00000  Uiso   1.00
C565   C     0.36848   0.89172   0.67638   0.00000  Uiso   1.00
C566   C     0.29637   0.64998   0.77013   0.00000  Uiso   1.00
C567   C     0.30357   0.60125   0.72546   0.00000  Uiso   1.00
C568   C     0.25790   0.56846   0.70129   0.00000  Uiso   1.00
C569   C     0.27366   0.52589   0.66118   0.00000  Uiso   1.00
C570   C     0.33492   0.63170   0.82071   0.00000  Uiso   1.00
C571   C     0.31562   0.62452   0.87662   0.00000  Uiso   1.00
C572   C     0.35777   0.60759   0.91669   0.00000  Uiso   1.00
C573   C     0.32544   0.70514   0.74487   0.00000  Uiso   1.00
C574   C     0.29817   0.75972   0.73702   0.00000  Uiso   1.00
C575   C     0.33235   0.80463   0.71326   0.00000  Uiso   1.00
H576   H     0.45172   0.62536   0.72995   0.00000  Uiso   1.00
H577   H     0.42459   0.54205   0.65818   0.00000  Uiso   1.00
H578   H     0.48230   0.59811   0.83349   0.00000  Uiso   1.00
H579   H     0.46486   0.73329   0.69391   0.00000  Uiso   1.00
H580   H     0.36837   0.45382   0.58540   0.00000  Uiso   1.00
H581   H     0.49005   0.57204   0.95504   0.00000  Uiso   1.00
H582   H     0.45327   0.85709   0.66072   0.00000  Uiso   1.00
H583   H     0.25020   0.65730   0.78207   0.00000  Uiso   1.00
H584   H     0.21202   0.57575   0.71317   0.00000  Uiso   1.00
H585   H     0.26972   0.63180   0.88847   0.00000  Uiso   1.00
H586   H     0.25228   0.76698   0.74890   0.00000  Uiso   1.00
H587   H     0.19584   0.48117   0.63003   0.00000  Uiso   1.00
H588   H     0.31752   0.59939   0.99967   0.00000  Uiso   1.00
H589   H     0.28074   0.88444   0.70535   0.00000  Uiso   1.00
O590   O     0.26063   0.41326   0.56146   0.00000  Uiso   1.00
O591   O     0.42026   0.56836   0.04642   0.00000  Uiso   1.00
O592   O     0.37201   0.94235   0.66027   0.00000  Uiso   1.00
N593   N     0.33301   0.47146   0.60535   0.00000  Uiso   1.00
N594   N     0.44676   0.58197   0.95094   0.00000  Uiso   1.00
N595   N     0.41239   0.84848   0.67579   0.00000  Uiso   1.00
N596   N     0.24017   0.48618   0.62937   0.00000  Uiso   1.00
N597   N     0.35393   0.59669   0.97496   0.00000  Uiso   1.00
N598   N     0.31955   0.86320   0.69981   0.00000  Uiso   1.00
C599   C     0.90555   0.13268   0.24188   0.00000  Uiso   1.00
C600   C     0.86287   0.09185   0.21012   0.00000  Uiso   1.00
C601   C     0.87870   0.04932   0.17004   0.00000  Uiso   1.00
C602   C     0.83307   0.01647   0.14581   0.00000  Uiso   1.00
C603   C     0.77582   0.95163   0.09418   0.00000  Uiso   1.00
C604   C     0.89422   0.12229   0.30537   0.00000  Uiso   1.00
C605   C     0.93641   0.10537   0.34537   0.00000  Uiso   1.00
C606   C     0.91717   0.09817   0.40132   0.00000  Uiso   1.00
C607   C     0.90861   0.08064   0.49757   0.00000  Uiso   1.00
C608   C     0.88474   0.19574   0.22953   0.00000  Uiso   1.00
C609   C     0.91897   0.24058   0.20578   0.00000  Uiso   1.00
C610   C     0.89176   0.29522   0.19789   0.00000  Uiso   1.00
C611   C     0.86848   0.39172   0.17638   0.00000  Uiso   1.00
C612   C     0.79637   0.14998   0.27013   0.00000  Uiso   1.00
C613   C     0.80357   0.10125   0.22546   0.00000  Uiso   1.00
C614   C     0.75790   0.06846   0.20129   0.00000  Uiso   1.00
C615   C     0.77366   0.02589   0.16118   0.00000  Uiso   1.00
C616   C     0.83492   0.13170   0.32071   0.00000  Uiso   1.00
C617   C     0.81562   0.12452   0.37662   0.00000  Uiso   1.00
C618   C     0.85777   0.10759   0.41669   0.00000  Uiso   1.00
C619   C     0.82544   0.20514   0.24487   0.00000  Uiso   1.00
C620   C     0.79817   0.25972   0.23702   0.00000  Uiso   1.00
C621   C     0.83235   0.30463   0.21326   0.00000  Uiso   1.00
H622   H     0.95172   0.12536   0.22995   0.00000  Uiso   1.00
H623   H     0.92459   0.04205   0.15818   0.00000  Uiso   1.00
H624   H     0.98230   0.09811   0.33349   0.00000  Uiso   1.00
H625   H     0.96486   0.23329   0.19391   0.00000  Uiso   1.00
H626   H     0.86837   0.95382   0.08540   0.00000  Uiso   1.00
H627   H     0.99005   0.07204   0.45504   0.00000  Uiso   1.00
H628   H     0.95327   0.35709   0.16072   0.00000  Uiso   1.00
H629   H     0.75020   0.15730   0.28207   0.00000  Uiso   1.00
H630   H     0.71202   0.07575   0.21317   0.00000  Uiso   1.00
H631   H     0.76972   0.13180   0.38847   0.00000  Uiso   1.00
H632   H     0.75228   0.26698   0.24890   0.00000  Uiso   1.00
H633   H     0.69584   0.98117   0.13003   0.00000  Uiso   1.00
H634   H     0.81752   0.09939   0.49967   0.00000  Uiso   1.00
H635   H     0.78074   0.38444   0.20535   0.00000  Uiso   1.00
O636   O     0.76063   0.91326   0.06146   0.00000  Uiso   1.00
O637   O     0.92026   0.06836   0.54642   0.00000  Uiso   1.00
O638   O     0.87201   0.44235   0.16027   0.00000  Uiso   1.00
N639   N     0.83301   0.97146   0.10535   0.00000  Uiso   1.00
N640   N     0.94676   0.08197   0.45094   0.00000  Uiso   1.00
N641   N     0.91239   0.34848   0.17579   0.00000  Uiso   1.00
N642   N     0.74017   0.98618   0.12937   0.00000  Uiso   1.00
N643   N     0.85393   0.09669   0.47496   0.00000  Uiso   1.00
N644   N     0.81955   0.36320   0.19981   0.00000  Uiso   1.00
C645   C     0.09445   0.86732   0.24188   0.00000  Uiso   1.00
C646   C     0.13713   0.90815   0.21012   0.00000  Uiso   1.00
C647   C     0.12130   0.95068   0.17004   0.00000  Uiso   1.00
C648   C     0.16693   0.98353   0.14581   0.00000  Uiso   1.00
C649   C     0.22418   0.04837   0.09418   0.00000  Uiso   1.00
C650   C     0.10578   0.87771   0.30537   0.00000  Uiso   1.00
C651   C     0.06359   0.89463   0.34537   0.00000  Uiso   1.00
C652   C     0.08283   0.90183   0.40132   0.00000  Uiso   1.00
C653   C     0.09139   0.91936   0.49757   0.00000  Uiso   1.00
C654   C     0.11526   0.80426   0.22953   0.00000  Uiso   1.00
C655   C     0.08103   0.75942   0.20578   0.00000  Uiso   1.00
C656   C     0.10824   0.70478   0.19789   0.00000  Uiso   1.00
C657   C     0.13152   0.60828   0.17638   0.00000  Uiso   1.00
C658   C     0.20363   0.85002   0.27013   0.00000  Uiso   1.00
C659   C     0.19643   0.89875   0.22546   0.00000  Uiso   1.00
C660   C     0.24210   0.93154   0.20129   0.00000  Uiso   1.00
C661   C     0.22634   0.97411   0.16118   0.00000  Uiso   1.00
C662   C     0.16508   0.86830   0.32071   0.00000  Uiso   1.00
C663   C     0.18438   0.87548   0.37662   0.00000  Uiso   1.00
C664   C     0.14223   0.89241   0.41669   0.00000  Uiso   1.00
C665   C     0.17456   0.79486   0.24487   0.00000  Uiso   1.00
C666   C     0.20183   0.74028   0.23702   0.00000  Uiso   1.00
C667   C     0.16765   0.69537   0.21326   0.00000  Uiso   1.00
H668   H     0.04828   0.87464   0.22995   0.00000  Uiso   1.00
H669   H     0.07541   0.95795   0.15818   0.00000  Uiso   1.00
H670   H     0.01770   0.90189   0.33349   0.00000  Uiso   1.00
H671   H     0.03514   0.76671   0.19391   0.00000  Uiso   1.00
H672   H     0.13163   0.04618   0.08540   0.00000  Uiso   1.00
H673   H     0.00995   0.92796   0.45504   0.00000  Uiso   1.00
H674   H     0.04673   0.64291   0.16072   0.00000  Uiso   1.00
H675   H     0.24980   0.84270   0.28207   0.00000  Uiso   1.00
H676   H     0.28798   0.92425   0.21317   0.00000  Uiso   1.00
H677   H     0.23028   0.86820   0.38847   0.00000  Uiso   1.00
H678   H     0.24772   0.73302   0.24890   0.00000  Uiso   1.00
H679   H     0.30416   0.01883   0.13003   0.00000  Uiso   1.00
H680   H     0.18248   0.90061   0.49967   0.00000  Uiso   1.00
H681   H     0.21926   0.61556   0.20535   0.00000  Uiso   1.00
O682   O     0.23937   0.08674   0.06146   0.00000  Uiso   1.00
O683   O     0.07974   0.93164   0.54642   0.00000  Uiso   1.00
O684   O     0.12799   0.55765   0.16027   0.00000  Uiso   1.00
N685   N     0.16699   0.02854   0.10535   0.00000  Uiso   1.00
N686   N     0.05324   0.91803   0.45094   0.00000  Uiso   1.00
N687   N     0.08761   0.65152   0.17579   0.00000  Uiso   1.00
N688   N     0.25983   0.01382   0.12937   0.00000  Uiso   1.00
N689   N     0.14607   0.90331   0.47496   0.00000  Uiso   1.00
N690   N     0.18045   0.63680   0.19981   0.00000  Uiso   1.00
C691   C     0.59445   0.36732   0.74188   0.00000  Uiso   1.00
C692   C     0.63713   0.40815   0.71012   0.00000  Uiso   1.00
C693   C     0.62130   0.45068   0.67004   0.00000  Uiso   1.00
C694   C     0.66693   0.48353   0.64581   0.00000  Uiso   1.00
C695   C     0.72418   0.54837   0.59418   0.00000  Uiso   1.00
C696   C     0.60578   0.37771   0.80537   0.00000  Uiso   1.00
C697   C     0.56359   0.39463   0.84537   0.00000  Uiso   1.00
C698   C     0.58283   0.40183   0.90132   0.00000  Uiso   1.00
C699   C     0.59139   0.41936   0.99757   0.00000  Uiso   1.00
C700   C     0.61526   0.30426   0.72953   0.00000  Uiso   1.00
C701   C     0.58103   0.25942   0.70578   0.00000  Uiso   1.00
C702   C     0.60824   0.20478   0.69789   0.00000  Uiso   1.00
C703   C     0.63152   0.10828   0.67638   0.00000  Uiso   1.00
C704   C     0.70363   0.35002   0.77013   0.00000  Uiso   1.00
C705   C     0.69643   0.39875   0.72546   0.00000  Uiso   1.00
C706   C     0.74210   0.43154   0.70129   0.00000  Uiso   1.00
C707   C     0.72634   0.47411   0.66118   0.00000  Uiso   1.00
C708   C     0.66508   0.36830   0.82071   0.00000  Uiso   1.00
C709   C     0.68438   0.37548   0.87662   0.00000  Uiso   1.00
C710   C     0.64223   0.39241   0.91669   0.00000  Uiso   1.00
C711   C     0.67456   0.29486   0.74487   0.00000  Uiso   1.00
C712   C     0.70183   0.24028   0.73702   0.00000  Uiso   1.00
C713   C     0.66765   0.19537   0.71326   0.00000  Uiso   1.00
H714   H     0.54828   0.37464   0.72995   0.00000  Uiso   1.00
H715   H     0.57541   0.45795   0.65818   0.00000  Uiso   1.00
H716   H     0.51770   0.40189   0.83349   0.00000  Uiso   1.00
H717   H     0.53514   0.26671   0.69391   0.00000  Uiso   1.00
H718   H     0.63163   0.54618   0.58540   0.00000  Uiso   1.00
H719   H     0.50995   0.42796   0.95504   0.00000  Uiso   1.00
H720   H     0.54673   0.14291   0.66072   0.00000  Uiso   1.00
H721   H     0.74980   0.34270   0.78207   0.00000  Uiso   1.00
H722   H     0.78798   0.42425   0.71317   0.00000  Uiso   1.00
H723   H     0.73028   0.36820   0.88847   0.00000  Uiso   1.00
H724   H     0.74772   0.23302   0.74890   0.00000  Uiso   1.00
H725   H     0.80416   0.51883   0.63003   0.00000  Uiso   1.00
H726   H     0.68248   0.40061   0.99967   0.00000  Uiso   1.00
H727   H     0.71926   0.11556   0.70535   0.00000  Uiso   1.00
O728   O     0.73937   0.58674   0.56146   0.00000  Uiso   1.00
O729   O     0.57974   0.43164   0.04642   0.00000  Uiso   1.00
O730   O     0.62799   0.05765   0.66027   0.00000  Uiso   1.00
N731   N     0.66699   0.52854   0.60535   0.00000  Uiso   1.00
N732   N     0.55324   0.41803   0.95094   0.00000  Uiso   1.00
N733   N     0.58761   0.15152   0.67579   0.00000  Uiso   1.00
N734   N     0.75983   0.51382   0.62937   0.00000  Uiso   1.00
N735   N     0.64607   0.40331   0.97496   0.00000  Uiso   1.00
N736   N     0.68045   0.13680   0.69981   0.00000  Uiso   1.00
