data_job_02249
_audit_creation_date              2018-12-19
_audit_creation_method            'Materials Studio'
_symmetry_space_group_name_H-M    'P1'
_symmetry_Int_Tables_number       1
_symmetry_cell_setting            triclinic
loop_
_symmetry_equiv_pos_as_xyz
  x,y,z
_cell_length_a                    21.5641
_cell_length_b                    21.5641
_cell_length_c                    24.3923
_cell_angle_alpha                 90.0000
_cell_angle_beta                  90.0000
_cell_angle_gamma                 90.0000
loop_
_atom_site_label
_atom_site_type_symbol
_atom_site_fract_x
_atom_site_fract_y
_atom_site_fract_z
_atom_site_U_iso_or_equiv
_atom_site_adp_type
_atom_site_occupancy
C1     C     0.05025   0.19758   0.67494   0.00000  Uiso   1.00
C2     C     0.08559   0.13703   0.66682   0.00000  Uiso   1.00
C3     C     0.06550   0.07865   0.68288   0.00000  Uiso   1.00
C4     C     0.10459   0.02907   0.67176   0.00000  Uiso   1.00
C5     C     0.15080   0.93374   0.66316   0.00000  Uiso   1.00
C6     C     0.09364   0.24025   0.70680   0.00000  Uiso   1.00
C7     C     0.08030   0.26866   0.75647   0.00000  Uiso   1.00
C8     C     0.12617   0.30598   0.77899   0.00000  Uiso   1.00
C9     C     0.18485   0.37094   0.83244   0.00000  Uiso   1.00
C10    C     0.04359   0.22628   0.61811   0.00000  Uiso   1.00
C11    C     0.98818   0.24296   0.59322   0.00000  Uiso   1.00
C12    C     0.99192   0.26853   0.54108   0.00000  Uiso   1.00
C13    C     0.97289   0.31179   0.45683   0.00000  Uiso   1.00
C14    C     0.15542   0.21334   0.62663   0.00000  Uiso   1.00
C15    C     0.14272   0.14558   0.64058   0.00000  Uiso   1.00
C16    C     0.18185   0.09608   0.62942   0.00000  Uiso   1.00
C17    C     0.16182   0.03764   0.64546   0.00000  Uiso   1.00
C18    C     0.15076   0.24880   0.68056   0.00000  Uiso   1.00
C19    C     0.19666   0.28609   0.70301   0.00000  Uiso   1.00
C20    C     0.18340   0.31455   0.75270   0.00000  Uiso   1.00
C21    C     0.10072   0.23483   0.59186   0.00000  Uiso   1.00
C22    C     0.10454   0.26038   0.53976   0.00000  Uiso   1.00
C23    C     0.04914   0.27710   0.51479   0.00000  Uiso   1.00
H24    H     0.00578   0.19093   0.69538   0.00000  Uiso   1.00
H25    H     0.02129   0.07205   0.70320   0.00000  Uiso   1.00
H26    H     0.03609   0.26204   0.77676   0.00000  Uiso   1.00
H27    H     0.94399   0.23633   0.61354   0.00000  Uiso   1.00
H28    H     0.06369   0.94403   0.70030   0.00000  Uiso   1.00
H29    H     0.09489   0.34464   0.85542   0.00000  Uiso   1.00
H30    H     0.90066   0.29045   0.51123   0.00000  Uiso   1.00
H31    H     0.19989   0.22000   0.60619   0.00000  Uiso   1.00
H32    H     0.22606   0.10271   0.60911   0.00000  Uiso   1.00
H33    H     0.24086   0.29270   0.68269   0.00000  Uiso   1.00
H34    H     0.14875   0.26700   0.51946   0.00000  Uiso   1.00
H35    H     0.22989   0.96892   0.62395   0.00000  Uiso   1.00
H36    H     0.26108   0.36953   0.77907   0.00000  Uiso   1.00
H37    H     0.06686   0.31533   0.43487   0.00000  Uiso   1.00
O38    O     0.16050   0.87880   0.66567   0.00000  Uiso   1.00
O39    O     0.20143   0.40440   0.86918   0.00000  Uiso   1.00
O40    O     0.94662   0.33329   0.41760   0.00000  Uiso   1.00
N41    N     0.09921   0.96598   0.68192   0.00000  Uiso   1.00
N42    N     0.12838   0.34052   0.82695   0.00000  Uiso   1.00
N43    N     0.94680   0.28987   0.50517   0.00000  Uiso   1.00
N44    N     0.18864   0.97937   0.64084   0.00000  Uiso   1.00
N45    N     0.21781   0.35392   0.78587   0.00000  Uiso   1.00
N46    N     0.03623   0.30326   0.46408   0.00000  Uiso   1.00
C47    C     0.94975   0.80242   0.67494   0.00000  Uiso   1.00
C48    C     0.91441   0.86297   0.66682   0.00000  Uiso   1.00
C49    C     0.93450   0.92135   0.68288   0.00000  Uiso   1.00
C50    C     0.89541   0.97093   0.67176   0.00000  Uiso   1.00
C51    C     0.84920   0.06626   0.66316   0.00000  Uiso   1.00
C52    C     0.90636   0.75975   0.70680   0.00000  Uiso   1.00
C53    C     0.91970   0.73134   0.75647   0.00000  Uiso   1.00
C54    C     0.87383   0.69402   0.77899   0.00000  Uiso   1.00
C55    C     0.81515   0.62906   0.83244   0.00000  Uiso   1.00
C56    C     0.95641   0.77372   0.61811   0.00000  Uiso   1.00
C57    C     0.01182   0.75704   0.59322   0.00000  Uiso   1.00
C58    C     0.00808   0.73147   0.54108   0.00000  Uiso   1.00
C59    C     0.02711   0.68821   0.45683   0.00000  Uiso   1.00
C60    C     0.84458   0.78666   0.62663   0.00000  Uiso   1.00
C61    C     0.85728   0.85442   0.64058   0.00000  Uiso   1.00
C62    C     0.81815   0.90392   0.62942   0.00000  Uiso   1.00
C63    C     0.83818   0.96236   0.64546   0.00000  Uiso   1.00
C64    C     0.84924   0.75120   0.68056   0.00000  Uiso   1.00
C65    C     0.80334   0.71391   0.70301   0.00000  Uiso   1.00
C66    C     0.81660   0.68545   0.75270   0.00000  Uiso   1.00
C67    C     0.89928   0.76517   0.59186   0.00000  Uiso   1.00
C68    C     0.89546   0.73962   0.53976   0.00000  Uiso   1.00
C69    C     0.95086   0.72290   0.51479   0.00000  Uiso   1.00
H70    H     0.99422   0.80907   0.69538   0.00000  Uiso   1.00
H71    H     0.97871   0.92795   0.70320   0.00000  Uiso   1.00
H72    H     0.96391   0.73796   0.77676   0.00000  Uiso   1.00
H73    H     0.05601   0.76367   0.61354   0.00000  Uiso   1.00
H74    H     0.93631   0.05597   0.70030   0.00000  Uiso   1.00
H75    H     0.90511   0.65536   0.85542   0.00000  Uiso   1.00
H76    H     0.09934   0.70955   0.51123   0.00000  Uiso   1.00
H77    H     0.80011   0.78000   0.60619   0.00000  Uiso   1.00
H78    H     0.77394   0.89729   0.60911   0.00000  Uiso   1.00
H79    H     0.75914   0.70730   0.68269   0.00000  Uiso   1.00
H80    H     0.85125   0.73300   0.51946   0.00000  Uiso   1.00
H81    H     0.77011   0.03108   0.62395   0.00000  Uiso   1.00
H82    H     0.73892   0.63047   0.77907   0.00000  Uiso   1.00
H83    H     0.93314   0.68467   0.43487   0.00000  Uiso   1.00
O84    O     0.83950   0.12120   0.66567   0.00000  Uiso   1.00
O85    O     0.79857   0.59560   0.86918   0.00000  Uiso   1.00
O86    O     0.05338   0.66671   0.41760   0.00000  Uiso   1.00
N87    N     0.90079   0.03402   0.68192   0.00000  Uiso   1.00
N88    N     0.87162   0.65948   0.82695   0.00000  Uiso   1.00
N89    N     0.05320   0.71013   0.50517   0.00000  Uiso   1.00
N90    N     0.81136   0.02063   0.64084   0.00000  Uiso   1.00
N91    N     0.78219   0.64608   0.78587   0.00000  Uiso   1.00
N92    N     0.96377   0.69674   0.46408   0.00000  Uiso   1.00
C93    C     0.30242   0.55025   0.67494   0.00000  Uiso   1.00
C94    C     0.36297   0.58559   0.66682   0.00000  Uiso   1.00
C95    C     0.42135   0.56550   0.68288   0.00000  Uiso   1.00
C96    C     0.47093   0.60459   0.67176   0.00000  Uiso   1.00
C97    C     0.56626   0.65080   0.66316   0.00000  Uiso   1.00
C98    C     0.25975   0.59364   0.70680   0.00000  Uiso   1.00
C99    C     0.23134   0.58030   0.75647   0.00000  Uiso   1.00
C100   C     0.19402   0.62617   0.77899   0.00000  Uiso   1.00
C101   C     0.12906   0.68485   0.83244   0.00000  Uiso   1.00
C102   C     0.27372   0.54359   0.61811   0.00000  Uiso   1.00
C103   C     0.25704   0.48818   0.59322   0.00000  Uiso   1.00
C104   C     0.23147   0.49192   0.54108   0.00000  Uiso   1.00
C105   C     0.18821   0.47289   0.45683   0.00000  Uiso   1.00
C106   C     0.28666   0.65542   0.62663   0.00000  Uiso   1.00
C107   C     0.35442   0.64272   0.64058   0.00000  Uiso   1.00
C108   C     0.40392   0.68185   0.62942   0.00000  Uiso   1.00
C109   C     0.46236   0.66182   0.64546   0.00000  Uiso   1.00
C110   C     0.25120   0.65076   0.68056   0.00000  Uiso   1.00
C111   C     0.21391   0.69666   0.70301   0.00000  Uiso   1.00
C112   C     0.18545   0.68340   0.75270   0.00000  Uiso   1.00
C113   C     0.26517   0.60072   0.59186   0.00000  Uiso   1.00
C114   C     0.23962   0.60454   0.53976   0.00000  Uiso   1.00
C115   C     0.22290   0.54914   0.51479   0.00000  Uiso   1.00
H116   H     0.30907   0.50578   0.69538   0.00000  Uiso   1.00
H117   H     0.42795   0.52129   0.70320   0.00000  Uiso   1.00
H118   H     0.23796   0.53609   0.77676   0.00000  Uiso   1.00
H119   H     0.26367   0.44399   0.61354   0.00000  Uiso   1.00
H120   H     0.55597   0.56369   0.70030   0.00000  Uiso   1.00
H121   H     0.15536   0.59489   0.85542   0.00000  Uiso   1.00
H122   H     0.20955   0.40066   0.51123   0.00000  Uiso   1.00
H123   H     0.28000   0.69989   0.60619   0.00000  Uiso   1.00
H124   H     0.39729   0.72606   0.60911   0.00000  Uiso   1.00
H125   H     0.20730   0.74086   0.68269   0.00000  Uiso   1.00
H126   H     0.23300   0.64875   0.51946   0.00000  Uiso   1.00
H127   H     0.53108   0.72989   0.62395   0.00000  Uiso   1.00
H128   H     0.13047   0.76108   0.77907   0.00000  Uiso   1.00
H129   H     0.18467   0.56686   0.43487   0.00000  Uiso   1.00
O130   O     0.62120   0.66050   0.66567   0.00000  Uiso   1.00
O131   O     0.09560   0.70143   0.86918   0.00000  Uiso   1.00
O132   O     0.16671   0.44662   0.41760   0.00000  Uiso   1.00
N133   N     0.53402   0.59921   0.68192   0.00000  Uiso   1.00
N134   N     0.15948   0.62838   0.82695   0.00000  Uiso   1.00
N135   N     0.21013   0.44680   0.50517   0.00000  Uiso   1.00
N136   N     0.52063   0.68864   0.64084   0.00000  Uiso   1.00
N137   N     0.14608   0.71781   0.78587   0.00000  Uiso   1.00
N138   N     0.19674   0.53623   0.46408   0.00000  Uiso   1.00
C139   C     0.69758   0.44975   0.67494   0.00000  Uiso   1.00
C140   C     0.63703   0.41441   0.66682   0.00000  Uiso   1.00
C141   C     0.57865   0.43450   0.68288   0.00000  Uiso   1.00
C142   C     0.52907   0.39541   0.67176   0.00000  Uiso   1.00
C143   C     0.43374   0.34920   0.66316   0.00000  Uiso   1.00
C144   C     0.74025   0.40636   0.70680   0.00000  Uiso   1.00
C145   C     0.76866   0.41970   0.75647   0.00000  Uiso   1.00
C146   C     0.80598   0.37383   0.77899   0.00000  Uiso   1.00
C147   C     0.87094   0.31515   0.83244   0.00000  Uiso   1.00
C148   C     0.72628   0.45641   0.61811   0.00000  Uiso   1.00
C149   C     0.74296   0.51182   0.59322   0.00000  Uiso   1.00
C150   C     0.76853   0.50808   0.54108   0.00000  Uiso   1.00
C151   C     0.81179   0.52711   0.45683   0.00000  Uiso   1.00
C152   C     0.71334   0.34458   0.62663   0.00000  Uiso   1.00
C153   C     0.64558   0.35728   0.64058   0.00000  Uiso   1.00
C154   C     0.59608   0.31815   0.62942   0.00000  Uiso   1.00
C155   C     0.53764   0.33818   0.64546   0.00000  Uiso   1.00
C156   C     0.74880   0.34924   0.68056   0.00000  Uiso   1.00
C157   C     0.78609   0.30334   0.70301   0.00000  Uiso   1.00
C158   C     0.81455   0.31660   0.75270   0.00000  Uiso   1.00
C159   C     0.73483   0.39928   0.59186   0.00000  Uiso   1.00
C160   C     0.76038   0.39546   0.53976   0.00000  Uiso   1.00
C161   C     0.77710   0.45086   0.51479   0.00000  Uiso   1.00
H162   H     0.69093   0.49422   0.69538   0.00000  Uiso   1.00
H163   H     0.57205   0.47871   0.70320   0.00000  Uiso   1.00
H164   H     0.76204   0.46391   0.77676   0.00000  Uiso   1.00
H165   H     0.73633   0.55601   0.61354   0.00000  Uiso   1.00
H166   H     0.44403   0.43631   0.70030   0.00000  Uiso   1.00
H167   H     0.84464   0.40511   0.85542   0.00000  Uiso   1.00
H168   H     0.79045   0.59934   0.51123   0.00000  Uiso   1.00
H169   H     0.72000   0.30011   0.60619   0.00000  Uiso   1.00
H170   H     0.60271   0.27394   0.60911   0.00000  Uiso   1.00
H171   H     0.79270   0.25914   0.68269   0.00000  Uiso   1.00
H172   H     0.76700   0.35125   0.51946   0.00000  Uiso   1.00
H173   H     0.46892   0.27011   0.62395   0.00000  Uiso   1.00
H174   H     0.86953   0.23892   0.77907   0.00000  Uiso   1.00
H175   H     0.81533   0.43314   0.43487   0.00000  Uiso   1.00
O176   O     0.37880   0.33950   0.66567   0.00000  Uiso   1.00
O177   O     0.90440   0.29857   0.86918   0.00000  Uiso   1.00
O178   O     0.83329   0.55338   0.41760   0.00000  Uiso   1.00
N179   N     0.46598   0.40079   0.68192   0.00000  Uiso   1.00
N180   N     0.84052   0.37162   0.82695   0.00000  Uiso   1.00
N181   N     0.78987   0.55320   0.50517   0.00000  Uiso   1.00
N182   N     0.47937   0.31136   0.64084   0.00000  Uiso   1.00
N183   N     0.85392   0.28219   0.78587   0.00000  Uiso   1.00
N184   N     0.80326   0.46377   0.46408   0.00000  Uiso   1.00
C185   C     0.44975   0.69758   0.82506   0.00000  Uiso   1.00
C186   C     0.41441   0.63703   0.83318   0.00000  Uiso   1.00
C187   C     0.43450   0.57865   0.81712   0.00000  Uiso   1.00
C188   C     0.39541   0.52907   0.82824   0.00000  Uiso   1.00
C189   C     0.34920   0.43374   0.83684   0.00000  Uiso   1.00
C190   C     0.40636   0.74025   0.79320   0.00000  Uiso   1.00
C191   C     0.41970   0.76866   0.74353   0.00000  Uiso   1.00
C192   C     0.37383   0.80598   0.72101   0.00000  Uiso   1.00
C193   C     0.31515   0.87094   0.66756   0.00000  Uiso   1.00
C194   C     0.45641   0.72628   0.88189   0.00000  Uiso   1.00
C195   C     0.51182   0.74296   0.90678   0.00000  Uiso   1.00
C196   C     0.50808   0.76853   0.95892   0.00000  Uiso   1.00
C197   C     0.52711   0.81179   0.04317   0.00000  Uiso   1.00
C198   C     0.34458   0.71334   0.87337   0.00000  Uiso   1.00
C199   C     0.35728   0.64558   0.85942   0.00000  Uiso   1.00
C200   C     0.31815   0.59608   0.87058   0.00000  Uiso   1.00
C201   C     0.33818   0.53764   0.85454   0.00000  Uiso   1.00
C202   C     0.34924   0.74880   0.81944   0.00000  Uiso   1.00
C203   C     0.30334   0.78609   0.79699   0.00000  Uiso   1.00
C204   C     0.31660   0.81455   0.74730   0.00000  Uiso   1.00
C205   C     0.39928   0.73483   0.90814   0.00000  Uiso   1.00
C206   C     0.39546   0.76038   0.96024   0.00000  Uiso   1.00
C207   C     0.45086   0.77710   0.98521   0.00000  Uiso   1.00
H208   H     0.49422   0.69093   0.80462   0.00000  Uiso   1.00
H209   H     0.47871   0.57205   0.79680   0.00000  Uiso   1.00
H210   H     0.46391   0.76204   0.72324   0.00000  Uiso   1.00
H211   H     0.55601   0.73633   0.88646   0.00000  Uiso   1.00
H212   H     0.43631   0.44403   0.79970   0.00000  Uiso   1.00
H213   H     0.40511   0.84464   0.64458   0.00000  Uiso   1.00
H214   H     0.59934   0.79045   0.98877   0.00000  Uiso   1.00
H215   H     0.30011   0.72000   0.89381   0.00000  Uiso   1.00
H216   H     0.27394   0.60271   0.89089   0.00000  Uiso   1.00
H217   H     0.25914   0.79270   0.81731   0.00000  Uiso   1.00
H218   H     0.35125   0.76700   0.98054   0.00000  Uiso   1.00
H219   H     0.27011   0.46892   0.87605   0.00000  Uiso   1.00
H220   H     0.23892   0.86953   0.72093   0.00000  Uiso   1.00
H221   H     0.43314   0.81533   0.06513   0.00000  Uiso   1.00
O222   O     0.33950   0.37880   0.83433   0.00000  Uiso   1.00
O223   O     0.29857   0.90440   0.63082   0.00000  Uiso   1.00
O224   O     0.55338   0.83329   0.08240   0.00000  Uiso   1.00
N225   N     0.40079   0.46598   0.81808   0.00000  Uiso   1.00
N226   N     0.37162   0.84052   0.67305   0.00000  Uiso   1.00
N227   N     0.55320   0.78987   0.99483   0.00000  Uiso   1.00
N228   N     0.31136   0.47937   0.85916   0.00000  Uiso   1.00
N229   N     0.28219   0.85392   0.71413   0.00000  Uiso   1.00
N230   N     0.46377   0.80326   0.03592   0.00000  Uiso   1.00
C231   C     0.55025   0.30242   0.82506   0.00000  Uiso   1.00
C232   C     0.58559   0.36297   0.83318   0.00000  Uiso   1.00
C233   C     0.56550   0.42135   0.81712   0.00000  Uiso   1.00
C234   C     0.60459   0.47093   0.82824   0.00000  Uiso   1.00
C235   C     0.65080   0.56626   0.83684   0.00000  Uiso   1.00
C236   C     0.59364   0.25975   0.79320   0.00000  Uiso   1.00
C237   C     0.58030   0.23134   0.74353   0.00000  Uiso   1.00
C238   C     0.62617   0.19402   0.72101   0.00000  Uiso   1.00
C239   C     0.68485   0.12906   0.66756   0.00000  Uiso   1.00
C240   C     0.54359   0.27372   0.88189   0.00000  Uiso   1.00
C241   C     0.48818   0.25704   0.90678   0.00000  Uiso   1.00
C242   C     0.49192   0.23147   0.95892   0.00000  Uiso   1.00
C243   C     0.47289   0.18821   0.04317   0.00000  Uiso   1.00
C244   C     0.65542   0.28666   0.87337   0.00000  Uiso   1.00
C245   C     0.64272   0.35442   0.85942   0.00000  Uiso   1.00
C246   C     0.68185   0.40392   0.87058   0.00000  Uiso   1.00
C247   C     0.66182   0.46236   0.85454   0.00000  Uiso   1.00
C248   C     0.65076   0.25120   0.81944   0.00000  Uiso   1.00
C249   C     0.69666   0.21391   0.79699   0.00000  Uiso   1.00
C250   C     0.68340   0.18545   0.74730   0.00000  Uiso   1.00
C251   C     0.60072   0.26517   0.90814   0.00000  Uiso   1.00
C252   C     0.60454   0.23962   0.96024   0.00000  Uiso   1.00
C253   C     0.54914   0.22290   0.98521   0.00000  Uiso   1.00
H254   H     0.50578   0.30907   0.80462   0.00000  Uiso   1.00
H255   H     0.52129   0.42795   0.79680   0.00000  Uiso   1.00
H256   H     0.53609   0.23796   0.72324   0.00000  Uiso   1.00
H257   H     0.44399   0.26367   0.88646   0.00000  Uiso   1.00
H258   H     0.56369   0.55597   0.79970   0.00000  Uiso   1.00
H259   H     0.59489   0.15536   0.64458   0.00000  Uiso   1.00
H260   H     0.40066   0.20955   0.98877   0.00000  Uiso   1.00
H261   H     0.69989   0.28000   0.89381   0.00000  Uiso   1.00
H262   H     0.72606   0.39729   0.89089   0.00000  Uiso   1.00
H263   H     0.74086   0.20730   0.81731   0.00000  Uiso   1.00
H264   H     0.64875   0.23300   0.98054   0.00000  Uiso   1.00
H265   H     0.72989   0.53108   0.87605   0.00000  Uiso   1.00
H266   H     0.76108   0.13047   0.72093   0.00000  Uiso   1.00
H267   H     0.56686   0.18467   0.06513   0.00000  Uiso   1.00
O268   O     0.66050   0.62120   0.83433   0.00000  Uiso   1.00
O269   O     0.70143   0.09560   0.63082   0.00000  Uiso   1.00
O270   O     0.44662   0.16671   0.08240   0.00000  Uiso   1.00
N271   N     0.59921   0.53402   0.81808   0.00000  Uiso   1.00
N272   N     0.62838   0.15948   0.67305   0.00000  Uiso   1.00
N273   N     0.44680   0.21013   0.99483   0.00000  Uiso   1.00
N274   N     0.68864   0.52063   0.85916   0.00000  Uiso   1.00
N275   N     0.71781   0.14608   0.71413   0.00000  Uiso   1.00
N276   N     0.53623   0.19674   0.03592   0.00000  Uiso   1.00
C277   C     0.19758   0.05025   0.82506   0.00000  Uiso   1.00
C278   C     0.13703   0.08559   0.83318   0.00000  Uiso   1.00
C279   C     0.07865   0.06550   0.81712   0.00000  Uiso   1.00
C280   C     0.02907   0.10459   0.82824   0.00000  Uiso   1.00
C281   C     0.93374   0.15080   0.83684   0.00000  Uiso   1.00
C282   C     0.24025   0.09364   0.79320   0.00000  Uiso   1.00
C283   C     0.26866   0.08030   0.74353   0.00000  Uiso   1.00
C284   C     0.30598   0.12617   0.72101   0.00000  Uiso   1.00
C285   C     0.37094   0.18485   0.66756   0.00000  Uiso   1.00
C286   C     0.22628   0.04359   0.88189   0.00000  Uiso   1.00
C287   C     0.24296   0.98818   0.90678   0.00000  Uiso   1.00
C288   C     0.26853   0.99192   0.95892   0.00000  Uiso   1.00
C289   C     0.31179   0.97289   0.04317   0.00000  Uiso   1.00
C290   C     0.21334   0.15542   0.87337   0.00000  Uiso   1.00
C291   C     0.14558   0.14272   0.85942   0.00000  Uiso   1.00
C292   C     0.09608   0.18185   0.87058   0.00000  Uiso   1.00
C293   C     0.03764   0.16182   0.85454   0.00000  Uiso   1.00
C294   C     0.24880   0.15076   0.81944   0.00000  Uiso   1.00
C295   C     0.28609   0.19666   0.79699   0.00000  Uiso   1.00
C296   C     0.31455   0.18340   0.74730   0.00000  Uiso   1.00
C297   C     0.23483   0.10072   0.90814   0.00000  Uiso   1.00
C298   C     0.26038   0.10454   0.96024   0.00000  Uiso   1.00
C299   C     0.27710   0.04914   0.98521   0.00000  Uiso   1.00
H300   H     0.19093   0.00578   0.80462   0.00000  Uiso   1.00
H301   H     0.07205   0.02129   0.79680   0.00000  Uiso   1.00
H302   H     0.26204   0.03609   0.72324   0.00000  Uiso   1.00
H303   H     0.23633   0.94399   0.88646   0.00000  Uiso   1.00
H304   H     0.94403   0.06369   0.79970   0.00000  Uiso   1.00
H305   H     0.34464   0.09489   0.64458   0.00000  Uiso   1.00
H306   H     0.29045   0.90066   0.98877   0.00000  Uiso   1.00
H307   H     0.22000   0.19989   0.89381   0.00000  Uiso   1.00
H308   H     0.10271   0.22606   0.89089   0.00000  Uiso   1.00
H309   H     0.29270   0.24086   0.81731   0.00000  Uiso   1.00
H310   H     0.26700   0.14875   0.98054   0.00000  Uiso   1.00
H311   H     0.96892   0.22989   0.87605   0.00000  Uiso   1.00
H312   H     0.36953   0.26108   0.72093   0.00000  Uiso   1.00
H313   H     0.31533   0.06686   0.06513   0.00000  Uiso   1.00
O314   O     0.87880   0.16050   0.83433   0.00000  Uiso   1.00
O315   O     0.40440   0.20143   0.63082   0.00000  Uiso   1.00
O316   O     0.33329   0.94662   0.08240   0.00000  Uiso   1.00
N317   N     0.96598   0.09921   0.81808   0.00000  Uiso   1.00
N318   N     0.34052   0.12838   0.67305   0.00000  Uiso   1.00
N319   N     0.28987   0.94680   0.99483   0.00000  Uiso   1.00
N320   N     0.97937   0.18864   0.85916   0.00000  Uiso   1.00
N321   N     0.35392   0.21781   0.71413   0.00000  Uiso   1.00
N322   N     0.30326   0.03623   0.03592   0.00000  Uiso   1.00
C323   C     0.80242   0.94975   0.82506   0.00000  Uiso   1.00
C324   C     0.86297   0.91441   0.83318   0.00000  Uiso   1.00
C325   C     0.92135   0.93450   0.81712   0.00000  Uiso   1.00
C326   C     0.97093   0.89541   0.82824   0.00000  Uiso   1.00
C327   C     0.06626   0.84920   0.83684   0.00000  Uiso   1.00
C328   C     0.75975   0.90636   0.79320   0.00000  Uiso   1.00
C329   C     0.73134   0.91970   0.74353   0.00000  Uiso   1.00
C330   C     0.69402   0.87383   0.72101   0.00000  Uiso   1.00
C331   C     0.62906   0.81515   0.66756   0.00000  Uiso   1.00
C332   C     0.77372   0.95641   0.88189   0.00000  Uiso   1.00
C333   C     0.75704   0.01182   0.90678   0.00000  Uiso   1.00
C334   C     0.73147   0.00808   0.95892   0.00000  Uiso   1.00
C335   C     0.68821   0.02711   0.04317   0.00000  Uiso   1.00
C336   C     0.78666   0.84458   0.87337   0.00000  Uiso   1.00
C337   C     0.85442   0.85728   0.85942   0.00000  Uiso   1.00
C338   C     0.90392   0.81815   0.87058   0.00000  Uiso   1.00
C339   C     0.96236   0.83818   0.85454   0.00000  Uiso   1.00
C340   C     0.75120   0.84924   0.81944   0.00000  Uiso   1.00
C341   C     0.71391   0.80334   0.79699   0.00000  Uiso   1.00
C342   C     0.68545   0.81660   0.74730   0.00000  Uiso   1.00
C343   C     0.76517   0.89928   0.90814   0.00000  Uiso   1.00
C344   C     0.73962   0.89546   0.96024   0.00000  Uiso   1.00
C345   C     0.72290   0.95086   0.98521   0.00000  Uiso   1.00
H346   H     0.80907   0.99422   0.80462   0.00000  Uiso   1.00
H347   H     0.92795   0.97871   0.79680   0.00000  Uiso   1.00
H348   H     0.73796   0.96391   0.72324   0.00000  Uiso   1.00
H349   H     0.76367   0.05601   0.88646   0.00000  Uiso   1.00
H350   H     0.05597   0.93631   0.79970   0.00000  Uiso   1.00
H351   H     0.65536   0.90511   0.64458   0.00000  Uiso   1.00
H352   H     0.70955   0.09934   0.98877   0.00000  Uiso   1.00
H353   H     0.78000   0.80011   0.89381   0.00000  Uiso   1.00
H354   H     0.89729   0.77394   0.89089   0.00000  Uiso   1.00
H355   H     0.70730   0.75914   0.81731   0.00000  Uiso   1.00
H356   H     0.73300   0.85125   0.98054   0.00000  Uiso   1.00
H357   H     0.03108   0.77011   0.87605   0.00000  Uiso   1.00
H358   H     0.63047   0.73892   0.72093   0.00000  Uiso   1.00
H359   H     0.68467   0.93314   0.06513   0.00000  Uiso   1.00
O360   O     0.12120   0.83950   0.83433   0.00000  Uiso   1.00
O361   O     0.59560   0.79857   0.63082   0.00000  Uiso   1.00
O362   O     0.66671   0.05338   0.08240   0.00000  Uiso   1.00
N363   N     0.03402   0.90079   0.81808   0.00000  Uiso   1.00
N364   N     0.65948   0.87162   0.67305   0.00000  Uiso   1.00
N365   N     0.71013   0.05320   0.99483   0.00000  Uiso   1.00
N366   N     0.02063   0.81136   0.85916   0.00000  Uiso   1.00
N367   N     0.64608   0.78219   0.71413   0.00000  Uiso   1.00
N368   N     0.69674   0.96377   0.03592   0.00000  Uiso   1.00
C369   C     0.44975   0.30242   0.32506   0.00000  Uiso   1.00
C370   C     0.41441   0.36297   0.33318   0.00000  Uiso   1.00
C371   C     0.43450   0.42135   0.31712   0.00000  Uiso   1.00
C372   C     0.39541   0.47093   0.32824   0.00000  Uiso   1.00
C373   C     0.34920   0.56626   0.33684   0.00000  Uiso   1.00
C374   C     0.40636   0.25975   0.29320   0.00000  Uiso   1.00
C375   C     0.41970   0.23134   0.24353   0.00000  Uiso   1.00
C376   C     0.37383   0.19402   0.22101   0.00000  Uiso   1.00
C377   C     0.31515   0.12906   0.16756   0.00000  Uiso   1.00
C378   C     0.45641   0.27372   0.38189   0.00000  Uiso   1.00
C379   C     0.51182   0.25704   0.40678   0.00000  Uiso   1.00
C380   C     0.50808   0.23147   0.45892   0.00000  Uiso   1.00
C381   C     0.52711   0.18821   0.54317   0.00000  Uiso   1.00
C382   C     0.34458   0.28666   0.37337   0.00000  Uiso   1.00
C383   C     0.35728   0.35442   0.35942   0.00000  Uiso   1.00
C384   C     0.31815   0.40392   0.37058   0.00000  Uiso   1.00
C385   C     0.33818   0.46236   0.35454   0.00000  Uiso   1.00
C386   C     0.34924   0.25120   0.31944   0.00000  Uiso   1.00
C387   C     0.30334   0.21391   0.29699   0.00000  Uiso   1.00
C388   C     0.31660   0.18545   0.24730   0.00000  Uiso   1.00
C389   C     0.39928   0.26517   0.40814   0.00000  Uiso   1.00
C390   C     0.39546   0.23962   0.46024   0.00000  Uiso   1.00
C391   C     0.45086   0.22290   0.48521   0.00000  Uiso   1.00
H392   H     0.49422   0.30907   0.30462   0.00000  Uiso   1.00
H393   H     0.47871   0.42795   0.29680   0.00000  Uiso   1.00
H394   H     0.46391   0.23796   0.22324   0.00000  Uiso   1.00
H395   H     0.55601   0.26367   0.38646   0.00000  Uiso   1.00
H396   H     0.43631   0.55597   0.29970   0.00000  Uiso   1.00
H397   H     0.40511   0.15536   0.14458   0.00000  Uiso   1.00
H398   H     0.59934   0.20955   0.48877   0.00000  Uiso   1.00
H399   H     0.30011   0.28000   0.39381   0.00000  Uiso   1.00
H400   H     0.27394   0.39729   0.39089   0.00000  Uiso   1.00
H401   H     0.25914   0.20730   0.31731   0.00000  Uiso   1.00
H402   H     0.35125   0.23300   0.48054   0.00000  Uiso   1.00
H403   H     0.27011   0.53108   0.37605   0.00000  Uiso   1.00
H404   H     0.23892   0.13047   0.22093   0.00000  Uiso   1.00
H405   H     0.43314   0.18467   0.56513   0.00000  Uiso   1.00
O406   O     0.33950   0.62120   0.33433   0.00000  Uiso   1.00
O407   O     0.29857   0.09560   0.13082   0.00000  Uiso   1.00
O408   O     0.55338   0.16671   0.58240   0.00000  Uiso   1.00
N409   N     0.40079   0.53402   0.31808   0.00000  Uiso   1.00
N410   N     0.37162   0.15948   0.17305   0.00000  Uiso   1.00
N411   N     0.55320   0.21013   0.49483   0.00000  Uiso   1.00
N412   N     0.31136   0.52063   0.35916   0.00000  Uiso   1.00
N413   N     0.28219   0.14608   0.21413   0.00000  Uiso   1.00
N414   N     0.46377   0.19674   0.53592   0.00000  Uiso   1.00
C415   C     0.55025   0.69758   0.32506   0.00000  Uiso   1.00
C416   C     0.58559   0.63703   0.33318   0.00000  Uiso   1.00
C417   C     0.56550   0.57865   0.31712   0.00000  Uiso   1.00
C418   C     0.60459   0.52907   0.32824   0.00000  Uiso   1.00
C419   C     0.65080   0.43374   0.33684   0.00000  Uiso   1.00
C420   C     0.59364   0.74025   0.29320   0.00000  Uiso   1.00
C421   C     0.58030   0.76866   0.24353   0.00000  Uiso   1.00
C422   C     0.62617   0.80598   0.22101   0.00000  Uiso   1.00
C423   C     0.68485   0.87094   0.16756   0.00000  Uiso   1.00
C424   C     0.54359   0.72628   0.38189   0.00000  Uiso   1.00
C425   C     0.48818   0.74296   0.40678   0.00000  Uiso   1.00
C426   C     0.49192   0.76853   0.45892   0.00000  Uiso   1.00
C427   C     0.47289   0.81179   0.54317   0.00000  Uiso   1.00
C428   C     0.65542   0.71334   0.37337   0.00000  Uiso   1.00
C429   C     0.64272   0.64558   0.35942   0.00000  Uiso   1.00
C430   C     0.68185   0.59608   0.37058   0.00000  Uiso   1.00
C431   C     0.66182   0.53764   0.35454   0.00000  Uiso   1.00
C432   C     0.65076   0.74880   0.31944   0.00000  Uiso   1.00
C433   C     0.69666   0.78609   0.29699   0.00000  Uiso   1.00
C434   C     0.68340   0.81455   0.24730   0.00000  Uiso   1.00
C435   C     0.60072   0.73483   0.40814   0.00000  Uiso   1.00
C436   C     0.60454   0.76038   0.46024   0.00000  Uiso   1.00
C437   C     0.54914   0.77710   0.48521   0.00000  Uiso   1.00
H438   H     0.50578   0.69093   0.30462   0.00000  Uiso   1.00
H439   H     0.52129   0.57205   0.29680   0.00000  Uiso   1.00
H440   H     0.53609   0.76204   0.22324   0.00000  Uiso   1.00
H441   H     0.44399   0.73633   0.38646   0.00000  Uiso   1.00
H442   H     0.56369   0.44403   0.29970   0.00000  Uiso   1.00
H443   H     0.59489   0.84464   0.14458   0.00000  Uiso   1.00
H444   H     0.40066   0.79045   0.48877   0.00000  Uiso   1.00
H445   H     0.69989   0.72000   0.39381   0.00000  Uiso   1.00
H446   H     0.72606   0.60271   0.39089   0.00000  Uiso   1.00
H447   H     0.74086   0.79270   0.31731   0.00000  Uiso   1.00
H448   H     0.64875   0.76700   0.48054   0.00000  Uiso   1.00
H449   H     0.72989   0.46892   0.37605   0.00000  Uiso   1.00
H450   H     0.76108   0.86953   0.22093   0.00000  Uiso   1.00
H451   H     0.56686   0.81533   0.56513   0.00000  Uiso   1.00
O452   O     0.66050   0.37880   0.33433   0.00000  Uiso   1.00
O453   O     0.70143   0.90440   0.13082   0.00000  Uiso   1.00
O454   O     0.44662   0.83329   0.58240   0.00000  Uiso   1.00
N455   N     0.59921   0.46598   0.31808   0.00000  Uiso   1.00
N456   N     0.62838   0.84052   0.17305   0.00000  Uiso   1.00
N457   N     0.44680   0.78987   0.49483   0.00000  Uiso   1.00
N458   N     0.68864   0.47937   0.35916   0.00000  Uiso   1.00
N459   N     0.71781   0.85392   0.21413   0.00000  Uiso   1.00
N460   N     0.53623   0.80326   0.53592   0.00000  Uiso   1.00
C461   C     0.19758   0.94975   0.32506   0.00000  Uiso   1.00
C462   C     0.13703   0.91441   0.33318   0.00000  Uiso   1.00
C463   C     0.07865   0.93450   0.31712   0.00000  Uiso   1.00
C464   C     0.02907   0.89541   0.32824   0.00000  Uiso   1.00
C465   C     0.93374   0.84920   0.33684   0.00000  Uiso   1.00
C466   C     0.24025   0.90636   0.29320   0.00000  Uiso   1.00
C467   C     0.26866   0.91970   0.24353   0.00000  Uiso   1.00
C468   C     0.30598   0.87383   0.22101   0.00000  Uiso   1.00
C469   C     0.37094   0.81515   0.16756   0.00000  Uiso   1.00
C470   C     0.22628   0.95641   0.38189   0.00000  Uiso   1.00
C471   C     0.24296   0.01182   0.40678   0.00000  Uiso   1.00
C472   C     0.26853   0.00808   0.45892   0.00000  Uiso   1.00
C473   C     0.31179   0.02711   0.54317   0.00000  Uiso   1.00
C474   C     0.21334   0.84458   0.37337   0.00000  Uiso   1.00
C475   C     0.14558   0.85728   0.35942   0.00000  Uiso   1.00
C476   C     0.09608   0.81815   0.37058   0.00000  Uiso   1.00
C477   C     0.03764   0.83818   0.35454   0.00000  Uiso   1.00
C478   C     0.24880   0.84924   0.31944   0.00000  Uiso   1.00
C479   C     0.28609   0.80334   0.29699   0.00000  Uiso   1.00
C480   C     0.31455   0.81660   0.24730   0.00000  Uiso   1.00
C481   C     0.23483   0.89928   0.40814   0.00000  Uiso   1.00
C482   C     0.26038   0.89546   0.46024   0.00000  Uiso   1.00
C483   C     0.27710   0.95086   0.48521   0.00000  Uiso   1.00
H484   H     0.19093   0.99422   0.30462   0.00000  Uiso   1.00
H485   H     0.07205   0.97871   0.29680   0.00000  Uiso   1.00
H486   H     0.26204   0.96391   0.22324   0.00000  Uiso   1.00
H487   H     0.23633   0.05601   0.38646   0.00000  Uiso   1.00
H488   H     0.94403   0.93631   0.29970   0.00000  Uiso   1.00
H489   H     0.34464   0.90511   0.14458   0.00000  Uiso   1.00
H490   H     0.29045   0.09934   0.48877   0.00000  Uiso   1.00
H491   H     0.22000   0.80011   0.39381   0.00000  Uiso   1.00
H492   H     0.10271   0.77394   0.39089   0.00000  Uiso   1.00
H493   H     0.29270   0.75914   0.31731   0.00000  Uiso   1.00
H494   H     0.26700   0.85125   0.48054   0.00000  Uiso   1.00
H495   H     0.96892   0.77011   0.37605   0.00000  Uiso   1.00
H496   H     0.36953   0.73892   0.22093   0.00000  Uiso   1.00
H497   H     0.31533   0.93314   0.56513   0.00000  Uiso   1.00
O498   O     0.87880   0.83950   0.33433   0.00000  Uiso   1.00
O499   O     0.40440   0.79857   0.13082   0.00000  Uiso   1.00
O500   O     0.33329   0.05338   0.58240   0.00000  Uiso   1.00
N501   N     0.96598   0.90079   0.31808   0.00000  Uiso   1.00
N502   N     0.34052   0.87162   0.17305   0.00000  Uiso   1.00
N503   N     0.28987   0.05320   0.49483   0.00000  Uiso   1.00
N504   N     0.97937   0.81136   0.35916   0.00000  Uiso   1.00
N505   N     0.35392   0.78219   0.21413   0.00000  Uiso   1.00
N506   N     0.30326   0.96377   0.53592   0.00000  Uiso   1.00
C507   C     0.80242   0.05025   0.32506   0.00000  Uiso   1.00
C508   C     0.86297   0.08559   0.33318   0.00000  Uiso   1.00
C509   C     0.92135   0.06550   0.31712   0.00000  Uiso   1.00
C510   C     0.97093   0.10459   0.32824   0.00000  Uiso   1.00
C511   C     0.06626   0.15080   0.33684   0.00000  Uiso   1.00
C512   C     0.75975   0.09364   0.29320   0.00000  Uiso   1.00
C513   C     0.73134   0.08030   0.24353   0.00000  Uiso   1.00
C514   C     0.69402   0.12617   0.22101   0.00000  Uiso   1.00
C515   C     0.62906   0.18485   0.16756   0.00000  Uiso   1.00
C516   C     0.77372   0.04359   0.38189   0.00000  Uiso   1.00
C517   C     0.75704   0.98818   0.40678   0.00000  Uiso   1.00
C518   C     0.73147   0.99192   0.45892   0.00000  Uiso   1.00
C519   C     0.68821   0.97289   0.54317   0.00000  Uiso   1.00
C520   C     0.78666   0.15542   0.37337   0.00000  Uiso   1.00
C521   C     0.85442   0.14272   0.35942   0.00000  Uiso   1.00
C522   C     0.90392   0.18185   0.37058   0.00000  Uiso   1.00
C523   C     0.96236   0.16182   0.35454   0.00000  Uiso   1.00
C524   C     0.75120   0.15076   0.31944   0.00000  Uiso   1.00
C525   C     0.71391   0.19666   0.29699   0.00000  Uiso   1.00
C526   C     0.68545   0.18340   0.24730   0.00000  Uiso   1.00
C527   C     0.76517   0.10072   0.40814   0.00000  Uiso   1.00
C528   C     0.73962   0.10454   0.46024   0.00000  Uiso   1.00
C529   C     0.72290   0.04914   0.48521   0.00000  Uiso   1.00
H530   H     0.80907   0.00578   0.30462   0.00000  Uiso   1.00
H531   H     0.92795   0.02129   0.29680   0.00000  Uiso   1.00
H532   H     0.73796   0.03609   0.22324   0.00000  Uiso   1.00
H533   H     0.76367   0.94399   0.38646   0.00000  Uiso   1.00
H534   H     0.05597   0.06369   0.29970   0.00000  Uiso   1.00
H535   H     0.65536   0.09489   0.14458   0.00000  Uiso   1.00
H536   H     0.70955   0.90066   0.48877   0.00000  Uiso   1.00
H537   H     0.78000   0.19989   0.39381   0.00000  Uiso   1.00
H538   H     0.89729   0.22606   0.39089   0.00000  Uiso   1.00
H539   H     0.70730   0.24086   0.31731   0.00000  Uiso   1.00
H540   H     0.73300   0.14875   0.48054   0.00000  Uiso   1.00
H541   H     0.03108   0.22989   0.37605   0.00000  Uiso   1.00
H542   H     0.63047   0.26108   0.22093   0.00000  Uiso   1.00
H543   H     0.68467   0.06686   0.56513   0.00000  Uiso   1.00
O544   O     0.12120   0.16050   0.33433   0.00000  Uiso   1.00
O545   O     0.59560   0.20143   0.13082   0.00000  Uiso   1.00
O546   O     0.66671   0.94662   0.58240   0.00000  Uiso   1.00
N547   N     0.03402   0.09921   0.31808   0.00000  Uiso   1.00
N548   N     0.65948   0.12838   0.17305   0.00000  Uiso   1.00
N549   N     0.71013   0.94680   0.49483   0.00000  Uiso   1.00
N550   N     0.02063   0.18864   0.35916   0.00000  Uiso   1.00
N551   N     0.64608   0.21781   0.21413   0.00000  Uiso   1.00
N552   N     0.69674   0.03623   0.53592   0.00000  Uiso   1.00
C553   C     0.05025   0.80242   0.17494   0.00000  Uiso   1.00
C554   C     0.08559   0.86297   0.16682   0.00000  Uiso   1.00
C555   C     0.06550   0.92135   0.18288   0.00000  Uiso   1.00
C556   C     0.10459   0.97093   0.17176   0.00000  Uiso   1.00
C557   C     0.15080   0.06626   0.16316   0.00000  Uiso   1.00
C558   C     0.09364   0.75975   0.20680   0.00000  Uiso   1.00
C559   C     0.08030   0.73134   0.25647   0.00000  Uiso   1.00
C560   C     0.12617   0.69402   0.27899   0.00000  Uiso   1.00
C561   C     0.18485   0.62906   0.33244   0.00000  Uiso   1.00
C562   C     0.04359   0.77372   0.11811   0.00000  Uiso   1.00
C563   C     0.98818   0.75704   0.09322   0.00000  Uiso   1.00
C564   C     0.99192   0.73147   0.04108   0.00000  Uiso   1.00
C565   C     0.97289   0.68821   0.95683   0.00000  Uiso   1.00
C566   C     0.15542   0.78666   0.12663   0.00000  Uiso   1.00
C567   C     0.14272   0.85442   0.14058   0.00000  Uiso   1.00
C568   C     0.18185   0.90392   0.12942   0.00000  Uiso   1.00
C569   C     0.16182   0.96236   0.14546   0.00000  Uiso   1.00
C570   C     0.15076   0.75120   0.18056   0.00000  Uiso   1.00
C571   C     0.19666   0.71391   0.20301   0.00000  Uiso   1.00
C572   C     0.18340   0.68545   0.25270   0.00000  Uiso   1.00
C573   C     0.10072   0.76517   0.09186   0.00000  Uiso   1.00
C574   C     0.10454   0.73962   0.03976   0.00000  Uiso   1.00
C575   C     0.04914   0.72290   0.01479   0.00000  Uiso   1.00
H576   H     0.00578   0.80907   0.19538   0.00000  Uiso   1.00
H577   H     0.02129   0.92795   0.20320   0.00000  Uiso   1.00
H578   H     0.03609   0.73796   0.27676   0.00000  Uiso   1.00
H579   H     0.94399   0.76367   0.11354   0.00000  Uiso   1.00
H580   H     0.06369   0.05597   0.20030   0.00000  Uiso   1.00
H581   H     0.09489   0.65536   0.35542   0.00000  Uiso   1.00
H582   H     0.90066   0.70955   0.01123   0.00000  Uiso   1.00
H583   H     0.19989   0.78000   0.10619   0.00000  Uiso   1.00
H584   H     0.22606   0.89729   0.10911   0.00000  Uiso   1.00
H585   H     0.24086   0.70730   0.18269   0.00000  Uiso   1.00
H586   H     0.14875   0.73300   0.01946   0.00000  Uiso   1.00
H587   H     0.22989   0.03108   0.12395   0.00000  Uiso   1.00
H588   H     0.26108   0.63047   0.27907   0.00000  Uiso   1.00
H589   H     0.06686   0.68467   0.93487   0.00000  Uiso   1.00
O590   O     0.16050   0.12120   0.16567   0.00000  Uiso   1.00
O591   O     0.20143   0.59560   0.36918   0.00000  Uiso   1.00
O592   O     0.94662   0.66671   0.91760   0.00000  Uiso   1.00
N593   N     0.09921   0.03402   0.18192   0.00000  Uiso   1.00
N594   N     0.12838   0.65948   0.32695   0.00000  Uiso   1.00
N595   N     0.94680   0.71013   0.00517   0.00000  Uiso   1.00
N596   N     0.18864   0.02063   0.14084   0.00000  Uiso   1.00
N597   N     0.21781   0.64608   0.28587   0.00000  Uiso   1.00
N598   N     0.03623   0.69674   0.96408   0.00000  Uiso   1.00
C599   C     0.94975   0.19758   0.17494   0.00000  Uiso   1.00
C600   C     0.91441   0.13703   0.16682   0.00000  Uiso   1.00
C601   C     0.93450   0.07865   0.18288   0.00000  Uiso   1.00
C602   C     0.89541   0.02907   0.17176   0.00000  Uiso   1.00
C603   C     0.84920   0.93374   0.16316   0.00000  Uiso   1.00
C604   C     0.90636   0.24025   0.20680   0.00000  Uiso   1.00
C605   C     0.91970   0.26866   0.25647   0.00000  Uiso   1.00
C606   C     0.87383   0.30598   0.27899   0.00000  Uiso   1.00
C607   C     0.81515   0.37094   0.33244   0.00000  Uiso   1.00
C608   C     0.95641   0.22628   0.11811   0.00000  Uiso   1.00
C609   C     0.01182   0.24296   0.09322   0.00000  Uiso   1.00
C610   C     0.00808   0.26853   0.04108   0.00000  Uiso   1.00
C611   C     0.02711   0.31179   0.95683   0.00000  Uiso   1.00
C612   C     0.84458   0.21334   0.12663   0.00000  Uiso   1.00
C613   C     0.85728   0.14558   0.14058   0.00000  Uiso   1.00
C614   C     0.81815   0.09608   0.12942   0.00000  Uiso   1.00
C615   C     0.83818   0.03764   0.14546   0.00000  Uiso   1.00
C616   C     0.84924   0.24880   0.18056   0.00000  Uiso   1.00
C617   C     0.80334   0.28609   0.20301   0.00000  Uiso   1.00
C618   C     0.81660   0.31455   0.25270   0.00000  Uiso   1.00
C619   C     0.89928   0.23483   0.09186   0.00000  Uiso   1.00
C620   C     0.89546   0.26038   0.03976   0.00000  Uiso   1.00
C621   C     0.95086   0.27710   0.01479   0.00000  Uiso   1.00
H622   H     0.99422   0.19093   0.19538   0.00000  Uiso   1.00
H623   H     0.97871   0.07205   0.20320   0.00000  Uiso   1.00
H624   H     0.96391   0.26204   0.27676   0.00000  Uiso   1.00
H625   H     0.05601   0.23633   0.11354   0.00000  Uiso   1.00
H626   H     0.93631   0.94403   0.20030   0.00000  Uiso   1.00
H627   H     0.90511   0.34464   0.35542   0.00000  Uiso   1.00
H628   H     0.09934   0.29045   0.01123   0.00000  Uiso   1.00
H629   H     0.80011   0.22000   0.10619   0.00000  Uiso   1.00
H630   H     0.77394   0.10271   0.10911   0.00000  Uiso   1.00
H631   H     0.75914   0.29270   0.18269   0.00000  Uiso   1.00
H632   H     0.85125   0.26700   0.01946   0.00000  Uiso   1.00
H633   H     0.77011   0.96892   0.12395   0.00000  Uiso   1.00
H634   H     0.73892   0.36953   0.27907   0.00000  Uiso   1.00
H635   H     0.93314   0.31533   0.93487   0.00000  Uiso   1.00
O636   O     0.83950   0.87880   0.16567   0.00000  Uiso   1.00
O637   O     0.79857   0.40440   0.36918   0.00000  Uiso   1.00
O638   O     0.05338   0.33329   0.91760   0.00000  Uiso   1.00
N639   N     0.90079   0.96598   0.18192   0.00000  Uiso   1.00
N640   N     0.87162   0.34052   0.32695   0.00000  Uiso   1.00
N641   N     0.05320   0.28987   0.00517   0.00000  Uiso   1.00
N642   N     0.81136   0.97937   0.14084   0.00000  Uiso   1.00
N643   N     0.78219   0.35392   0.28587   0.00000  Uiso   1.00
N644   N     0.96377   0.30326   0.96408   0.00000  Uiso   1.00
C645   C     0.30242   0.44975   0.17494   0.00000  Uiso   1.00
C646   C     0.36297   0.41441   0.16682   0.00000  Uiso   1.00
C647   C     0.42135   0.43450   0.18288   0.00000  Uiso   1.00
C648   C     0.47093   0.39541   0.17176   0.00000  Uiso   1.00
C649   C     0.56626   0.34920   0.16316   0.00000  Uiso   1.00
C650   C     0.25975   0.40636   0.20680   0.00000  Uiso   1.00
C651   C     0.23134   0.41970   0.25647   0.00000  Uiso   1.00
C652   C     0.19402   0.37383   0.27899   0.00000  Uiso   1.00
C653   C     0.12906   0.31515   0.33244   0.00000  Uiso   1.00
C654   C     0.27372   0.45641   0.11811   0.00000  Uiso   1.00
C655   C     0.25704   0.51182   0.09322   0.00000  Uiso   1.00
C656   C     0.23147   0.50808   0.04108   0.00000  Uiso   1.00
C657   C     0.18821   0.52711   0.95683   0.00000  Uiso   1.00
C658   C     0.28666   0.34458   0.12663   0.00000  Uiso   1.00
C659   C     0.35442   0.35728   0.14058   0.00000  Uiso   1.00
C660   C     0.40392   0.31815   0.12942   0.00000  Uiso   1.00
C661   C     0.46236   0.33818   0.14546   0.00000  Uiso   1.00
C662   C     0.25120   0.34924   0.18056   0.00000  Uiso   1.00
C663   C     0.21391   0.30334   0.20301   0.00000  Uiso   1.00
C664   C     0.18545   0.31660   0.25270   0.00000  Uiso   1.00
C665   C     0.26517   0.39928   0.09186   0.00000  Uiso   1.00
C666   C     0.23962   0.39546   0.03976   0.00000  Uiso   1.00
C667   C     0.22290   0.45086   0.01479   0.00000  Uiso   1.00
H668   H     0.30907   0.49422   0.19538   0.00000  Uiso   1.00
H669   H     0.42795   0.47871   0.20320   0.00000  Uiso   1.00
H670   H     0.23796   0.46391   0.27676   0.00000  Uiso   1.00
H671   H     0.26367   0.55601   0.11354   0.00000  Uiso   1.00
H672   H     0.55597   0.43631   0.20030   0.00000  Uiso   1.00
H673   H     0.15536   0.40511   0.35542   0.00000  Uiso   1.00
H674   H     0.20955   0.59934   0.01123   0.00000  Uiso   1.00
H675   H     0.28000   0.30011   0.10619   0.00000  Uiso   1.00
H676   H     0.39729   0.27394   0.10911   0.00000  Uiso   1.00
H677   H     0.20730   0.25914   0.18269   0.00000  Uiso   1.00
H678   H     0.23300   0.35125   0.01946   0.00000  Uiso   1.00
H679   H     0.53108   0.27011   0.12395   0.00000  Uiso   1.00
H680   H     0.13047   0.23892   0.27907   0.00000  Uiso   1.00
H681   H     0.18467   0.43314   0.93487   0.00000  Uiso   1.00
O682   O     0.62120   0.33950   0.16567   0.00000  Uiso   1.00
O683   O     0.09560   0.29857   0.36918   0.00000  Uiso   1.00
O684   O     0.16671   0.55338   0.91760   0.00000  Uiso   1.00
N685   N     0.53402   0.40079   0.18192   0.00000  Uiso   1.00
N686   N     0.15948   0.37162   0.32695   0.00000  Uiso   1.00
N687   N     0.21013   0.55320   0.00517   0.00000  Uiso   1.00
N688   N     0.52063   0.31136   0.14084   0.00000  Uiso   1.00
N689   N     0.14608   0.28219   0.28587   0.00000  Uiso   1.00
N690   N     0.19674   0.46377   0.96408   0.00000  Uiso   1.00
C691   C     0.69758   0.55025   0.17494   0.00000  Uiso   1.00
C692   C     0.63703   0.58559   0.16682   0.00000  Uiso   1.00
C693   C     0.57865   0.56550   0.18288   0.00000  Uiso   1.00
C694   C     0.52907   0.60459   0.17176   0.00000  Uiso   1.00
C695   C     0.43374   0.65080   0.16316   0.00000  Uiso   1.00
C696   C     0.74025   0.59364   0.20680   0.00000  Uiso   1.00
C697   C     0.76866   0.58030   0.25647   0.00000  Uiso   1.00
C698   C     0.80598   0.62617   0.27899   0.00000  Uiso   1.00
C699   C     0.87094   0.68485   0.33244   0.00000  Uiso   1.00
C700   C     0.72628   0.54359   0.11811   0.00000  Uiso   1.00
C701   C     0.74296   0.48818   0.09322   0.00000  Uiso   1.00
C702   C     0.76853   0.49192   0.04108   0.00000  Uiso   1.00
C703   C     0.81179   0.47289   0.95683   0.00000  Uiso   1.00
C704   C     0.71334   0.65542   0.12663   0.00000  Uiso   1.00
C705   C     0.64558   0.64272   0.14058   0.00000  Uiso   1.00
C706   C     0.59608   0.68185   0.12942   0.00000  Uiso   1.00
C707   C     0.53764   0.66182   0.14546   0.00000  Uiso   1.00
C708   C     0.74880   0.65076   0.18056   0.00000  Uiso   1.00
C709   C     0.78609   0.69666   0.20301   0.00000  Uiso   1.00
C710   C     0.81455   0.68340   0.25270   0.00000  Uiso   1.00
C711   C     0.73483   0.60072   0.09186   0.00000  Uiso   1.00
C712   C     0.76038   0.60454   0.03976   0.00000  Uiso   1.00
C713   C     0.77710   0.54914   0.01479   0.00000  Uiso   1.00
H714   H     0.69093   0.50578   0.19538   0.00000  Uiso   1.00
H715   H     0.57205   0.52129   0.20320   0.00000  Uiso   1.00
H716   H     0.76204   0.53609   0.27676   0.00000  Uiso   1.00
H717   H     0.73633   0.44399   0.11354   0.00000  Uiso   1.00
H718   H     0.44403   0.56369   0.20030   0.00000  Uiso   1.00
H719   H     0.84464   0.59489   0.35542   0.00000  Uiso   1.00
H720   H     0.79045   0.40066   0.01123   0.00000  Uiso   1.00
H721   H     0.72000   0.69989   0.10619   0.00000  Uiso   1.00
H722   H     0.60271   0.72606   0.10911   0.00000  Uiso   1.00
H723   H     0.79270   0.74086   0.18269   0.00000  Uiso   1.00
H724   H     0.76700   0.64875   0.01946   0.00000  Uiso   1.00
H725   H     0.46892   0.72989   0.12395   0.00000  Uiso   1.00
H726   H     0.86953   0.76108   0.27907   0.00000  Uiso   1.00
H727   H     0.81533   0.56686   0.93487   0.00000  Uiso   1.00
O728   O     0.37880   0.66050   0.16567   0.00000  Uiso   1.00
O729   O     0.90440   0.70143   0.36918   0.00000  Uiso   1.00
O730   O     0.83329   0.44662   0.91760   0.00000  Uiso   1.00
N731   N     0.46598   0.59921   0.18192   0.00000  Uiso   1.00
N732   N     0.84052   0.62838   0.32695   0.00000  Uiso   1.00
N733   N     0.78987   0.44680   0.00517   0.00000  Uiso   1.00
N734   N     0.47937   0.68864   0.14084   0.00000  Uiso   1.00
N735   N     0.85392   0.71781   0.28587   0.00000  Uiso   1.00
N736   N     0.80326   0.53623   0.96408   0.00000  Uiso   1.00
