data_job_02941
_audit_creation_date              2018-12-19
_audit_creation_method            'Materials Studio'
_symmetry_space_group_name_H-M    'P1'
_symmetry_Int_Tables_number       1
_symmetry_cell_setting            triclinic
loop_
_symmetry_equiv_pos_as_xyz
  x,y,z
_cell_length_a                    16.2685
_cell_length_b                    16.2685
_cell_length_c                    41.5572
_cell_angle_alpha                 90.0000
_cell_angle_beta                  90.0000
_cell_angle_gamma                 90.0000
loop_
_atom_site_label
_atom_site_type_symbol
_atom_site_fract_x
_atom_site_fract_y
_atom_site_fract_z
_atom_site_U_iso_or_equiv
_atom_site_adp_type
_atom_site_occupancy
C1     C     0.53430   0.86610   0.34842   0.00000  Uiso   1.00
C2     C     0.44604   0.86086   0.33622   0.00000  Uiso   1.00
C3     C     0.40389   0.92272   0.32021   0.00000  Uiso   1.00
C4     C     0.32358   0.90589   0.31103   0.00000  Uiso   1.00
C5     C     0.19213   0.90933   0.29110   0.00000  Uiso   1.00
C6     C     0.53052   0.84729   0.38433   0.00000  Uiso   1.00
C7     C     0.55942   0.89774   0.40877   0.00000  Uiso   1.00
C8     C     0.55023   0.86947   0.44009   0.00000  Uiso   1.00
C9     C     0.54999   0.85182   0.49486   0.00000  Uiso   1.00
C10    C     0.57994   0.79428   0.33303   0.00000  Uiso   1.00
C11    C     0.65040   0.80016   0.31434   0.00000  Uiso   1.00
C12    C     0.68283   0.72726   0.30248   0.00000  Uiso   1.00
C13    C     0.75931   0.62730   0.27759   0.00000  Uiso   1.00
C14    C     0.46663   0.72620   0.36058   0.00000  Uiso   1.00
C15    C     0.40929   0.78487   0.34283   0.00000  Uiso   1.00
C16    C     0.32902   0.76794   0.33367   0.00000  Uiso   1.00
C17    C     0.28676   0.82977   0.31765   0.00000  Uiso   1.00
C18    C     0.49377   0.77130   0.39094   0.00000  Uiso   1.00
C19    C     0.48455   0.74295   0.42223   0.00000  Uiso   1.00
C20    C     0.51341   0.79335   0.44671   0.00000  Uiso   1.00
C21    C     0.54319   0.71829   0.33964   0.00000  Uiso   1.00
C22    C     0.57552   0.64537   0.32780   0.00000  Uiso   1.00
C23    C     0.64601   0.65114   0.30910   0.00000  Uiso   1.00
H24    H     0.56291   0.92526   0.34327   0.00000  Uiso   1.00
H25    H     0.43236   0.98152   0.31510   0.00000  Uiso   1.00
H26    H     0.58786   0.95653   0.40365   0.00000  Uiso   1.00
H27    H     0.67882   0.85897   0.30924   0.00000  Uiso   1.00
H28    H     0.27139   0.01040   0.28680   0.00000  Uiso   1.00
H29    H     0.59931   0.95770   0.47351   0.00000  Uiso   1.00
H30    H     0.79112   0.75197   0.27441   0.00000  Uiso   1.00
H31    H     0.43801   0.66703   0.36573   0.00000  Uiso   1.00
H32    H     0.30059   0.70913   0.33878   0.00000  Uiso   1.00
H33    H     0.45610   0.68414   0.42734   0.00000  Uiso   1.00
H34    H     0.54706   0.58658   0.33292   0.00000  Uiso   1.00
H35    H     0.16444   0.78932   0.30602   0.00000  Uiso   1.00
H36    H     0.49237   0.73662   0.49273   0.00000  Uiso   1.00
H37    H     0.68418   0.53089   0.29363   0.00000  Uiso   1.00
O38    O     0.12977   0.93222   0.27829   0.00000  Uiso   1.00
O39    O     0.56000   0.86308   0.52325   0.00000  Uiso   1.00
O40    O     0.81165   0.59316   0.26204   0.00000  Uiso   1.00
N41    N     0.26508   0.95259   0.29501   0.00000  Uiso   1.00
N42    N     0.57166   0.90332   0.46958   0.00000  Uiso   1.00
N43    N     0.75100   0.71098   0.28345   0.00000  Uiso   1.00
N44    N     0.20754   0.83362   0.30535   0.00000  Uiso   1.00
N45    N     0.51411   0.78436   0.47992   0.00000  Uiso   1.00
N46    N     0.69345   0.59201   0.29379   0.00000  Uiso   1.00
C47    C     0.03430   0.36610   0.84842   0.00000  Uiso   1.00
C48    C     0.94604   0.36086   0.83622   0.00000  Uiso   1.00
C49    C     0.90389   0.42272   0.82021   0.00000  Uiso   1.00
C50    C     0.82358   0.40589   0.81103   0.00000  Uiso   1.00
C51    C     0.69213   0.40933   0.79110   0.00000  Uiso   1.00
C52    C     0.03052   0.34729   0.88433   0.00000  Uiso   1.00
C53    C     0.05942   0.39774   0.90877   0.00000  Uiso   1.00
C54    C     0.05023   0.36947   0.94009   0.00000  Uiso   1.00
C55    C     0.04999   0.35182   0.99486   0.00000  Uiso   1.00
C56    C     0.07994   0.29428   0.83303   0.00000  Uiso   1.00
C57    C     0.15040   0.30016   0.81434   0.00000  Uiso   1.00
C58    C     0.18283   0.22726   0.80248   0.00000  Uiso   1.00
C59    C     0.25931   0.12730   0.77759   0.00000  Uiso   1.00
C60    C     0.96663   0.22620   0.86058   0.00000  Uiso   1.00
C61    C     0.90929   0.28487   0.84283   0.00000  Uiso   1.00
C62    C     0.82902   0.26794   0.83367   0.00000  Uiso   1.00
C63    C     0.78676   0.32977   0.81765   0.00000  Uiso   1.00
C64    C     0.99377   0.27130   0.89094   0.00000  Uiso   1.00
C65    C     0.98455   0.24295   0.92223   0.00000  Uiso   1.00
C66    C     0.01341   0.29335   0.94671   0.00000  Uiso   1.00
C67    C     0.04319   0.21829   0.83964   0.00000  Uiso   1.00
C68    C     0.07552   0.14537   0.82780   0.00000  Uiso   1.00
C69    C     0.14601   0.15114   0.80910   0.00000  Uiso   1.00
H70    H     0.06291   0.42526   0.84327   0.00000  Uiso   1.00
H71    H     0.93236   0.48152   0.81510   0.00000  Uiso   1.00
H72    H     0.08786   0.45653   0.90365   0.00000  Uiso   1.00
H73    H     0.17882   0.35897   0.80924   0.00000  Uiso   1.00
H74    H     0.77139   0.51040   0.78680   0.00000  Uiso   1.00
H75    H     0.09931   0.45770   0.97351   0.00000  Uiso   1.00
H76    H     0.29112   0.25197   0.77441   0.00000  Uiso   1.00
H77    H     0.93801   0.16703   0.86573   0.00000  Uiso   1.00
H78    H     0.80059   0.20913   0.83878   0.00000  Uiso   1.00
H79    H     0.95610   0.18414   0.92734   0.00000  Uiso   1.00
H80    H     0.04706   0.08658   0.83292   0.00000  Uiso   1.00
H81    H     0.66444   0.28932   0.80602   0.00000  Uiso   1.00
H82    H     0.99237   0.23662   0.99273   0.00000  Uiso   1.00
H83    H     0.18418   0.03089   0.79363   0.00000  Uiso   1.00
O84    O     0.62977   0.43222   0.77829   0.00000  Uiso   1.00
O85    O     0.06000   0.36308   0.02325   0.00000  Uiso   1.00
O86    O     0.31165   0.09316   0.76204   0.00000  Uiso   1.00
N87    N     0.76508   0.45259   0.79501   0.00000  Uiso   1.00
N88    N     0.07166   0.40332   0.96958   0.00000  Uiso   1.00
N89    N     0.25100   0.21098   0.78345   0.00000  Uiso   1.00
N90    N     0.70754   0.33362   0.80535   0.00000  Uiso   1.00
N91    N     0.01411   0.28436   0.97992   0.00000  Uiso   1.00
N92    N     0.19345   0.09201   0.79379   0.00000  Uiso   1.00
C93    C     0.46570   0.13390   0.34842   0.00000  Uiso   1.00
C94    C     0.55396   0.13914   0.33622   0.00000  Uiso   1.00
C95    C     0.59611   0.07728   0.32021   0.00000  Uiso   1.00
C96    C     0.67642   0.09411   0.31103   0.00000  Uiso   1.00
C97    C     0.80787   0.09067   0.29110   0.00000  Uiso   1.00
C98    C     0.46948   0.15271   0.38433   0.00000  Uiso   1.00
C99    C     0.44058   0.10226   0.40877   0.00000  Uiso   1.00
C100   C     0.44977   0.13053   0.44009   0.00000  Uiso   1.00
C101   C     0.45001   0.14818   0.49486   0.00000  Uiso   1.00
C102   C     0.42006   0.20572   0.33303   0.00000  Uiso   1.00
C103   C     0.34960   0.19984   0.31434   0.00000  Uiso   1.00
C104   C     0.31717   0.27274   0.30248   0.00000  Uiso   1.00
C105   C     0.24069   0.37270   0.27759   0.00000  Uiso   1.00
C106   C     0.53337   0.27380   0.36058   0.00000  Uiso   1.00
C107   C     0.59071   0.21513   0.34283   0.00000  Uiso   1.00
C108   C     0.67098   0.23206   0.33367   0.00000  Uiso   1.00
C109   C     0.71324   0.17023   0.31765   0.00000  Uiso   1.00
C110   C     0.50623   0.22870   0.39094   0.00000  Uiso   1.00
C111   C     0.51545   0.25705   0.42223   0.00000  Uiso   1.00
C112   C     0.48659   0.20665   0.44671   0.00000  Uiso   1.00
C113   C     0.45681   0.28171   0.33964   0.00000  Uiso   1.00
C114   C     0.42448   0.35463   0.32780   0.00000  Uiso   1.00
C115   C     0.35399   0.34886   0.30910   0.00000  Uiso   1.00
H116   H     0.43709   0.07474   0.34327   0.00000  Uiso   1.00
H117   H     0.56764   0.01848   0.31510   0.00000  Uiso   1.00
H118   H     0.41214   0.04347   0.40365   0.00000  Uiso   1.00
H119   H     0.32118   0.14103   0.30924   0.00000  Uiso   1.00
H120   H     0.72861   0.98960   0.28680   0.00000  Uiso   1.00
H121   H     0.40069   0.04230   0.47351   0.00000  Uiso   1.00
H122   H     0.20888   0.24803   0.27441   0.00000  Uiso   1.00
H123   H     0.56199   0.33297   0.36573   0.00000  Uiso   1.00
H124   H     0.69941   0.29087   0.33878   0.00000  Uiso   1.00
H125   H     0.54390   0.31586   0.42734   0.00000  Uiso   1.00
H126   H     0.45294   0.41342   0.33292   0.00000  Uiso   1.00
H127   H     0.83556   0.21068   0.30602   0.00000  Uiso   1.00
H128   H     0.50763   0.26338   0.49273   0.00000  Uiso   1.00
H129   H     0.31582   0.46911   0.29363   0.00000  Uiso   1.00
O130   O     0.87023   0.06778   0.27829   0.00000  Uiso   1.00
O131   O     0.44000   0.13692   0.52325   0.00000  Uiso   1.00
O132   O     0.18835   0.40684   0.26204   0.00000  Uiso   1.00
N133   N     0.73492   0.04741   0.29501   0.00000  Uiso   1.00
N134   N     0.42834   0.09668   0.46958   0.00000  Uiso   1.00
N135   N     0.24900   0.28902   0.28345   0.00000  Uiso   1.00
N136   N     0.79246   0.16638   0.30535   0.00000  Uiso   1.00
N137   N     0.48589   0.21564   0.47992   0.00000  Uiso   1.00
N138   N     0.30655   0.40799   0.29379   0.00000  Uiso   1.00
C139   C     0.96570   0.63390   0.84842   0.00000  Uiso   1.00
C140   C     0.05396   0.63914   0.83622   0.00000  Uiso   1.00
C141   C     0.09611   0.57728   0.82021   0.00000  Uiso   1.00
C142   C     0.17642   0.59411   0.81103   0.00000  Uiso   1.00
C143   C     0.30787   0.59067   0.79110   0.00000  Uiso   1.00
C144   C     0.96948   0.65271   0.88433   0.00000  Uiso   1.00
C145   C     0.94058   0.60226   0.90877   0.00000  Uiso   1.00
C146   C     0.94977   0.63053   0.94009   0.00000  Uiso   1.00
C147   C     0.95001   0.64818   0.99486   0.00000  Uiso   1.00
C148   C     0.92006   0.70572   0.83303   0.00000  Uiso   1.00
C149   C     0.84960   0.69984   0.81434   0.00000  Uiso   1.00
C150   C     0.81717   0.77274   0.80248   0.00000  Uiso   1.00
C151   C     0.74069   0.87270   0.77759   0.00000  Uiso   1.00
C152   C     0.03337   0.77380   0.86058   0.00000  Uiso   1.00
C153   C     0.09071   0.71513   0.84283   0.00000  Uiso   1.00
C154   C     0.17098   0.73206   0.83367   0.00000  Uiso   1.00
C155   C     0.21324   0.67023   0.81765   0.00000  Uiso   1.00
C156   C     0.00623   0.72870   0.89094   0.00000  Uiso   1.00
C157   C     0.01545   0.75705   0.92223   0.00000  Uiso   1.00
C158   C     0.98659   0.70665   0.94671   0.00000  Uiso   1.00
C159   C     0.95681   0.78171   0.83964   0.00000  Uiso   1.00
C160   C     0.92448   0.85463   0.82780   0.00000  Uiso   1.00
C161   C     0.85399   0.84886   0.80910   0.00000  Uiso   1.00
H162   H     0.93709   0.57474   0.84327   0.00000  Uiso   1.00
H163   H     0.06764   0.51848   0.81510   0.00000  Uiso   1.00
H164   H     0.91214   0.54347   0.90365   0.00000  Uiso   1.00
H165   H     0.82118   0.64103   0.80924   0.00000  Uiso   1.00
H166   H     0.22861   0.48960   0.78680   0.00000  Uiso   1.00
H167   H     0.90069   0.54230   0.97351   0.00000  Uiso   1.00
H168   H     0.70888   0.74803   0.77441   0.00000  Uiso   1.00
H169   H     0.06199   0.83297   0.86573   0.00000  Uiso   1.00
H170   H     0.19941   0.79087   0.83878   0.00000  Uiso   1.00
H171   H     0.04390   0.81586   0.92734   0.00000  Uiso   1.00
H172   H     0.95294   0.91342   0.83292   0.00000  Uiso   1.00
H173   H     0.33556   0.71068   0.80602   0.00000  Uiso   1.00
H174   H     0.00763   0.76338   0.99273   0.00000  Uiso   1.00
H175   H     0.81582   0.96911   0.79363   0.00000  Uiso   1.00
O176   O     0.37023   0.56778   0.77829   0.00000  Uiso   1.00
O177   O     0.94000   0.63692   0.02325   0.00000  Uiso   1.00
O178   O     0.68835   0.90684   0.76204   0.00000  Uiso   1.00
N179   N     0.23492   0.54741   0.79501   0.00000  Uiso   1.00
N180   N     0.92834   0.59668   0.96958   0.00000  Uiso   1.00
N181   N     0.74900   0.78902   0.78345   0.00000  Uiso   1.00
N182   N     0.29246   0.66638   0.80535   0.00000  Uiso   1.00
N183   N     0.98589   0.71564   0.97992   0.00000  Uiso   1.00
N184   N     0.80655   0.90799   0.79379   0.00000  Uiso   1.00
C185   C     0.86610   0.46570   0.65158   0.00000  Uiso   1.00
C186   C     0.86086   0.55396   0.66378   0.00000  Uiso   1.00
C187   C     0.92272   0.59611   0.67979   0.00000  Uiso   1.00
C188   C     0.90589   0.67642   0.68897   0.00000  Uiso   1.00
C189   C     0.90933   0.80787   0.70890   0.00000  Uiso   1.00
C190   C     0.84729   0.46948   0.61567   0.00000  Uiso   1.00
C191   C     0.89774   0.44058   0.59123   0.00000  Uiso   1.00
C192   C     0.86947   0.44977   0.55991   0.00000  Uiso   1.00
C193   C     0.85182   0.45001   0.50514   0.00000  Uiso   1.00
C194   C     0.79428   0.42006   0.66697   0.00000  Uiso   1.00
C195   C     0.80016   0.34960   0.68566   0.00000  Uiso   1.00
C196   C     0.72726   0.31717   0.69752   0.00000  Uiso   1.00
C197   C     0.62730   0.24069   0.72241   0.00000  Uiso   1.00
C198   C     0.72620   0.53337   0.63942   0.00000  Uiso   1.00
C199   C     0.78487   0.59071   0.65717   0.00000  Uiso   1.00
C200   C     0.76794   0.67098   0.66633   0.00000  Uiso   1.00
C201   C     0.82977   0.71324   0.68235   0.00000  Uiso   1.00
C202   C     0.77130   0.50623   0.60906   0.00000  Uiso   1.00
C203   C     0.74295   0.51545   0.57777   0.00000  Uiso   1.00
C204   C     0.79335   0.48659   0.55329   0.00000  Uiso   1.00
C205   C     0.71829   0.45681   0.66036   0.00000  Uiso   1.00
C206   C     0.64537   0.42448   0.67220   0.00000  Uiso   1.00
C207   C     0.65114   0.35399   0.69090   0.00000  Uiso   1.00
H208   H     0.92526   0.43709   0.65673   0.00000  Uiso   1.00
H209   H     0.98152   0.56764   0.68490   0.00000  Uiso   1.00
H210   H     0.95653   0.41214   0.59635   0.00000  Uiso   1.00
H211   H     0.85897   0.32118   0.69076   0.00000  Uiso   1.00
H212   H     0.01040   0.72861   0.71320   0.00000  Uiso   1.00
H213   H     0.95770   0.40069   0.52649   0.00000  Uiso   1.00
H214   H     0.75197   0.20888   0.72559   0.00000  Uiso   1.00
H215   H     0.66703   0.56199   0.63427   0.00000  Uiso   1.00
H216   H     0.70913   0.69941   0.66122   0.00000  Uiso   1.00
H217   H     0.68414   0.54390   0.57266   0.00000  Uiso   1.00
H218   H     0.58658   0.45294   0.66708   0.00000  Uiso   1.00
H219   H     0.78932   0.83556   0.69398   0.00000  Uiso   1.00
H220   H     0.73662   0.50763   0.50727   0.00000  Uiso   1.00
H221   H     0.53089   0.31582   0.70637   0.00000  Uiso   1.00
O222   O     0.93222   0.87023   0.72171   0.00000  Uiso   1.00
O223   O     0.86308   0.44000   0.47675   0.00000  Uiso   1.00
O224   O     0.59316   0.18835   0.73796   0.00000  Uiso   1.00
N225   N     0.95259   0.73492   0.70499   0.00000  Uiso   1.00
N226   N     0.90332   0.42834   0.53042   0.00000  Uiso   1.00
N227   N     0.71098   0.24900   0.71655   0.00000  Uiso   1.00
N228   N     0.83362   0.79246   0.69465   0.00000  Uiso   1.00
N229   N     0.78436   0.48589   0.52008   0.00000  Uiso   1.00
N230   N     0.59201   0.30655   0.70621   0.00000  Uiso   1.00
C231   C     0.36610   0.96570   0.15158   0.00000  Uiso   1.00
C232   C     0.36086   0.05396   0.16378   0.00000  Uiso   1.00
C233   C     0.42272   0.09611   0.17979   0.00000  Uiso   1.00
C234   C     0.40589   0.17642   0.18897   0.00000  Uiso   1.00
C235   C     0.40933   0.30787   0.20890   0.00000  Uiso   1.00
C236   C     0.34729   0.96948   0.11567   0.00000  Uiso   1.00
C237   C     0.39774   0.94058   0.09123   0.00000  Uiso   1.00
C238   C     0.36947   0.94977   0.05991   0.00000  Uiso   1.00
C239   C     0.35182   0.95001   0.00514   0.00000  Uiso   1.00
C240   C     0.29428   0.92006   0.16697   0.00000  Uiso   1.00
C241   C     0.30016   0.84960   0.18566   0.00000  Uiso   1.00
C242   C     0.22726   0.81717   0.19752   0.00000  Uiso   1.00
C243   C     0.12730   0.74069   0.22241   0.00000  Uiso   1.00
C244   C     0.22620   0.03337   0.13942   0.00000  Uiso   1.00
C245   C     0.28487   0.09071   0.15717   0.00000  Uiso   1.00
C246   C     0.26794   0.17098   0.16633   0.00000  Uiso   1.00
C247   C     0.32977   0.21324   0.18235   0.00000  Uiso   1.00
C248   C     0.27130   0.00623   0.10906   0.00000  Uiso   1.00
C249   C     0.24295   0.01545   0.07777   0.00000  Uiso   1.00
C250   C     0.29335   0.98659   0.05329   0.00000  Uiso   1.00
C251   C     0.21829   0.95681   0.16036   0.00000  Uiso   1.00
C252   C     0.14537   0.92448   0.17220   0.00000  Uiso   1.00
C253   C     0.15114   0.85399   0.19090   0.00000  Uiso   1.00
H254   H     0.42526   0.93709   0.15673   0.00000  Uiso   1.00
H255   H     0.48152   0.06764   0.18490   0.00000  Uiso   1.00
H256   H     0.45653   0.91214   0.09635   0.00000  Uiso   1.00
H257   H     0.35897   0.82118   0.19076   0.00000  Uiso   1.00
H258   H     0.51040   0.22861   0.21320   0.00000  Uiso   1.00
H259   H     0.45770   0.90069   0.02649   0.00000  Uiso   1.00
H260   H     0.25197   0.70888   0.22559   0.00000  Uiso   1.00
H261   H     0.16703   0.06199   0.13427   0.00000  Uiso   1.00
H262   H     0.20913   0.19941   0.16122   0.00000  Uiso   1.00
H263   H     0.18414   0.04390   0.07266   0.00000  Uiso   1.00
H264   H     0.08658   0.95294   0.16708   0.00000  Uiso   1.00
H265   H     0.28932   0.33556   0.19398   0.00000  Uiso   1.00
H266   H     0.23662   0.00763   0.00727   0.00000  Uiso   1.00
H267   H     0.03089   0.81582   0.20637   0.00000  Uiso   1.00
O268   O     0.43222   0.37023   0.22171   0.00000  Uiso   1.00
O269   O     0.36308   0.94000   0.97675   0.00000  Uiso   1.00
O270   O     0.09316   0.68835   0.23796   0.00000  Uiso   1.00
N271   N     0.45259   0.23492   0.20499   0.00000  Uiso   1.00
N272   N     0.40332   0.92834   0.03042   0.00000  Uiso   1.00
N273   N     0.21098   0.74900   0.21655   0.00000  Uiso   1.00
N274   N     0.33362   0.29246   0.19465   0.00000  Uiso   1.00
N275   N     0.28436   0.98589   0.02008   0.00000  Uiso   1.00
N276   N     0.09201   0.80655   0.20621   0.00000  Uiso   1.00
C277   C     0.13390   0.53430   0.65158   0.00000  Uiso   1.00
C278   C     0.13914   0.44604   0.66378   0.00000  Uiso   1.00
C279   C     0.07728   0.40389   0.67979   0.00000  Uiso   1.00
C280   C     0.09411   0.32358   0.68897   0.00000  Uiso   1.00
C281   C     0.09067   0.19213   0.70890   0.00000  Uiso   1.00
C282   C     0.15271   0.53052   0.61567   0.00000  Uiso   1.00
C283   C     0.10226   0.55942   0.59123   0.00000  Uiso   1.00
C284   C     0.13053   0.55023   0.55991   0.00000  Uiso   1.00
C285   C     0.14818   0.54999   0.50514   0.00000  Uiso   1.00
C286   C     0.20572   0.57994   0.66697   0.00000  Uiso   1.00
C287   C     0.19984   0.65040   0.68566   0.00000  Uiso   1.00
C288   C     0.27274   0.68283   0.69752   0.00000  Uiso   1.00
C289   C     0.37270   0.75931   0.72241   0.00000  Uiso   1.00
C290   C     0.27380   0.46663   0.63942   0.00000  Uiso   1.00
C291   C     0.21513   0.40929   0.65717   0.00000  Uiso   1.00
C292   C     0.23206   0.32902   0.66633   0.00000  Uiso   1.00
C293   C     0.17023   0.28676   0.68235   0.00000  Uiso   1.00
C294   C     0.22870   0.49377   0.60906   0.00000  Uiso   1.00
C295   C     0.25705   0.48455   0.57777   0.00000  Uiso   1.00
C296   C     0.20665   0.51341   0.55329   0.00000  Uiso   1.00
C297   C     0.28171   0.54319   0.66036   0.00000  Uiso   1.00
C298   C     0.35463   0.57552   0.67220   0.00000  Uiso   1.00
C299   C     0.34886   0.64601   0.69090   0.00000  Uiso   1.00
H300   H     0.07474   0.56291   0.65673   0.00000  Uiso   1.00
H301   H     0.01848   0.43236   0.68490   0.00000  Uiso   1.00
H302   H     0.04347   0.58786   0.59635   0.00000  Uiso   1.00
H303   H     0.14103   0.67882   0.69076   0.00000  Uiso   1.00
H304   H     0.98960   0.27139   0.71320   0.00000  Uiso   1.00
H305   H     0.04230   0.59931   0.52649   0.00000  Uiso   1.00
H306   H     0.24803   0.79112   0.72559   0.00000  Uiso   1.00
H307   H     0.33297   0.43801   0.63427   0.00000  Uiso   1.00
H308   H     0.29087   0.30059   0.66122   0.00000  Uiso   1.00
H309   H     0.31586   0.45610   0.57266   0.00000  Uiso   1.00
H310   H     0.41342   0.54706   0.66708   0.00000  Uiso   1.00
H311   H     0.21068   0.16444   0.69398   0.00000  Uiso   1.00
H312   H     0.26338   0.49237   0.50727   0.00000  Uiso   1.00
H313   H     0.46911   0.68418   0.70637   0.00000  Uiso   1.00
O314   O     0.06778   0.12977   0.72171   0.00000  Uiso   1.00
O315   O     0.13692   0.56000   0.47675   0.00000  Uiso   1.00
O316   O     0.40684   0.81165   0.73796   0.00000  Uiso   1.00
N317   N     0.04741   0.26508   0.70499   0.00000  Uiso   1.00
N318   N     0.09668   0.57166   0.53042   0.00000  Uiso   1.00
N319   N     0.28902   0.75100   0.71655   0.00000  Uiso   1.00
N320   N     0.16638   0.20754   0.69465   0.00000  Uiso   1.00
N321   N     0.21564   0.51411   0.52008   0.00000  Uiso   1.00
N322   N     0.40799   0.69345   0.70621   0.00000  Uiso   1.00
C323   C     0.63390   0.03430   0.15158   0.00000  Uiso   1.00
C324   C     0.63914   0.94604   0.16378   0.00000  Uiso   1.00
C325   C     0.57728   0.90389   0.17979   0.00000  Uiso   1.00
C326   C     0.59411   0.82358   0.18897   0.00000  Uiso   1.00
C327   C     0.59067   0.69213   0.20890   0.00000  Uiso   1.00
C328   C     0.65271   0.03052   0.11567   0.00000  Uiso   1.00
C329   C     0.60226   0.05942   0.09123   0.00000  Uiso   1.00
C330   C     0.63053   0.05023   0.05991   0.00000  Uiso   1.00
C331   C     0.64818   0.04999   0.00514   0.00000  Uiso   1.00
C332   C     0.70572   0.07994   0.16697   0.00000  Uiso   1.00
C333   C     0.69984   0.15040   0.18566   0.00000  Uiso   1.00
C334   C     0.77274   0.18283   0.19752   0.00000  Uiso   1.00
C335   C     0.87270   0.25931   0.22241   0.00000  Uiso   1.00
C336   C     0.77380   0.96663   0.13942   0.00000  Uiso   1.00
C337   C     0.71513   0.90929   0.15717   0.00000  Uiso   1.00
C338   C     0.73206   0.82902   0.16633   0.00000  Uiso   1.00
C339   C     0.67023   0.78676   0.18235   0.00000  Uiso   1.00
C340   C     0.72870   0.99377   0.10906   0.00000  Uiso   1.00
C341   C     0.75705   0.98455   0.07777   0.00000  Uiso   1.00
C342   C     0.70665   0.01341   0.05329   0.00000  Uiso   1.00
C343   C     0.78171   0.04319   0.16036   0.00000  Uiso   1.00
C344   C     0.85463   0.07552   0.17220   0.00000  Uiso   1.00
C345   C     0.84886   0.14601   0.19090   0.00000  Uiso   1.00
H346   H     0.57474   0.06291   0.15673   0.00000  Uiso   1.00
H347   H     0.51848   0.93236   0.18490   0.00000  Uiso   1.00
H348   H     0.54347   0.08786   0.09635   0.00000  Uiso   1.00
H349   H     0.64103   0.17882   0.19076   0.00000  Uiso   1.00
H350   H     0.48960   0.77139   0.21320   0.00000  Uiso   1.00
H351   H     0.54230   0.09931   0.02649   0.00000  Uiso   1.00
H352   H     0.74803   0.29112   0.22559   0.00000  Uiso   1.00
H353   H     0.83297   0.93801   0.13427   0.00000  Uiso   1.00
H354   H     0.79087   0.80059   0.16122   0.00000  Uiso   1.00
H355   H     0.81586   0.95610   0.07266   0.00000  Uiso   1.00
H356   H     0.91342   0.04706   0.16708   0.00000  Uiso   1.00
H357   H     0.71068   0.66444   0.19398   0.00000  Uiso   1.00
H358   H     0.76338   0.99237   0.00727   0.00000  Uiso   1.00
H359   H     0.96911   0.18418   0.20637   0.00000  Uiso   1.00
O360   O     0.56778   0.62977   0.22171   0.00000  Uiso   1.00
O361   O     0.63692   0.06000   0.97675   0.00000  Uiso   1.00
O362   O     0.90684   0.31165   0.23796   0.00000  Uiso   1.00
N363   N     0.54741   0.76508   0.20499   0.00000  Uiso   1.00
N364   N     0.59668   0.07166   0.03042   0.00000  Uiso   1.00
N365   N     0.78902   0.25100   0.21655   0.00000  Uiso   1.00
N366   N     0.66638   0.70754   0.19465   0.00000  Uiso   1.00
N367   N     0.71564   0.01411   0.02008   0.00000  Uiso   1.00
N368   N     0.90799   0.19345   0.20621   0.00000  Uiso   1.00
C369   C     0.96570   0.86610   0.40158   0.00000  Uiso   1.00
C370   C     0.05396   0.86086   0.41378   0.00000  Uiso   1.00
C371   C     0.09611   0.92272   0.42979   0.00000  Uiso   1.00
C372   C     0.17642   0.90589   0.43897   0.00000  Uiso   1.00
C373   C     0.30787   0.90933   0.45890   0.00000  Uiso   1.00
C374   C     0.96948   0.84729   0.36567   0.00000  Uiso   1.00
C375   C     0.94058   0.89774   0.34123   0.00000  Uiso   1.00
C376   C     0.94977   0.86947   0.30991   0.00000  Uiso   1.00
C377   C     0.95001   0.85182   0.25514   0.00000  Uiso   1.00
C378   C     0.92006   0.79428   0.41697   0.00000  Uiso   1.00
C379   C     0.84960   0.80016   0.43566   0.00000  Uiso   1.00
C380   C     0.81717   0.72726   0.44752   0.00000  Uiso   1.00
C381   C     0.74069   0.62730   0.47241   0.00000  Uiso   1.00
C382   C     0.03337   0.72620   0.38942   0.00000  Uiso   1.00
C383   C     0.09071   0.78487   0.40717   0.00000  Uiso   1.00
C384   C     0.17098   0.76794   0.41633   0.00000  Uiso   1.00
C385   C     0.21324   0.82977   0.43235   0.00000  Uiso   1.00
C386   C     0.00623   0.77130   0.35906   0.00000  Uiso   1.00
C387   C     0.01545   0.74295   0.32777   0.00000  Uiso   1.00
C388   C     0.98659   0.79335   0.30329   0.00000  Uiso   1.00
C389   C     0.95681   0.71829   0.41036   0.00000  Uiso   1.00
C390   C     0.92448   0.64537   0.42220   0.00000  Uiso   1.00
C391   C     0.85399   0.65114   0.44090   0.00000  Uiso   1.00
H392   H     0.93709   0.92526   0.40673   0.00000  Uiso   1.00
H393   H     0.06764   0.98152   0.43490   0.00000  Uiso   1.00
H394   H     0.91214   0.95653   0.34635   0.00000  Uiso   1.00
H395   H     0.82118   0.85897   0.44076   0.00000  Uiso   1.00
H396   H     0.22861   0.01040   0.46320   0.00000  Uiso   1.00
H397   H     0.90069   0.95770   0.27649   0.00000  Uiso   1.00
H398   H     0.70888   0.75197   0.47559   0.00000  Uiso   1.00
H399   H     0.06199   0.66703   0.38427   0.00000  Uiso   1.00
H400   H     0.19941   0.70913   0.41122   0.00000  Uiso   1.00
H401   H     0.04390   0.68414   0.32266   0.00000  Uiso   1.00
H402   H     0.95294   0.58658   0.41708   0.00000  Uiso   1.00
H403   H     0.33556   0.78932   0.44398   0.00000  Uiso   1.00
H404   H     0.00763   0.73662   0.25727   0.00000  Uiso   1.00
H405   H     0.81582   0.53089   0.45637   0.00000  Uiso   1.00
O406   O     0.37023   0.93222   0.47171   0.00000  Uiso   1.00
O407   O     0.94000   0.86308   0.22675   0.00000  Uiso   1.00
O408   O     0.68835   0.59316   0.48796   0.00000  Uiso   1.00
N409   N     0.23492   0.95259   0.45499   0.00000  Uiso   1.00
N410   N     0.92834   0.90332   0.28042   0.00000  Uiso   1.00
N411   N     0.74900   0.71098   0.46655   0.00000  Uiso   1.00
N412   N     0.29246   0.83362   0.44465   0.00000  Uiso   1.00
N413   N     0.98589   0.78436   0.27008   0.00000  Uiso   1.00
N414   N     0.80655   0.59201   0.45621   0.00000  Uiso   1.00
C415   C     0.46570   0.36610   0.90158   0.00000  Uiso   1.00
C416   C     0.55396   0.36086   0.91378   0.00000  Uiso   1.00
C417   C     0.59611   0.42272   0.92979   0.00000  Uiso   1.00
C418   C     0.67642   0.40589   0.93897   0.00000  Uiso   1.00
C419   C     0.80787   0.40933   0.95890   0.00000  Uiso   1.00
C420   C     0.46948   0.34729   0.86567   0.00000  Uiso   1.00
C421   C     0.44058   0.39774   0.84123   0.00000  Uiso   1.00
C422   C     0.44977   0.36947   0.80991   0.00000  Uiso   1.00
C423   C     0.45001   0.35182   0.75514   0.00000  Uiso   1.00
C424   C     0.42006   0.29428   0.91697   0.00000  Uiso   1.00
C425   C     0.34960   0.30016   0.93566   0.00000  Uiso   1.00
C426   C     0.31717   0.22726   0.94752   0.00000  Uiso   1.00
C427   C     0.24069   0.12730   0.97241   0.00000  Uiso   1.00
C428   C     0.53337   0.22620   0.88942   0.00000  Uiso   1.00
C429   C     0.59071   0.28487   0.90717   0.00000  Uiso   1.00
C430   C     0.67098   0.26794   0.91633   0.00000  Uiso   1.00
C431   C     0.71324   0.32977   0.93235   0.00000  Uiso   1.00
C432   C     0.50623   0.27130   0.85906   0.00000  Uiso   1.00
C433   C     0.51545   0.24295   0.82777   0.00000  Uiso   1.00
C434   C     0.48659   0.29335   0.80329   0.00000  Uiso   1.00
C435   C     0.45681   0.21829   0.91036   0.00000  Uiso   1.00
C436   C     0.42448   0.14537   0.92220   0.00000  Uiso   1.00
C437   C     0.35399   0.15114   0.94090   0.00000  Uiso   1.00
H438   H     0.43709   0.42526   0.90673   0.00000  Uiso   1.00
H439   H     0.56764   0.48152   0.93490   0.00000  Uiso   1.00
H440   H     0.41214   0.45653   0.84635   0.00000  Uiso   1.00
H441   H     0.32118   0.35897   0.94076   0.00000  Uiso   1.00
H442   H     0.72861   0.51040   0.96320   0.00000  Uiso   1.00
H443   H     0.40069   0.45770   0.77649   0.00000  Uiso   1.00
H444   H     0.20888   0.25197   0.97559   0.00000  Uiso   1.00
H445   H     0.56199   0.16703   0.88427   0.00000  Uiso   1.00
H446   H     0.69941   0.20913   0.91122   0.00000  Uiso   1.00
H447   H     0.54390   0.18414   0.82266   0.00000  Uiso   1.00
H448   H     0.45294   0.08658   0.91708   0.00000  Uiso   1.00
H449   H     0.83556   0.28932   0.94398   0.00000  Uiso   1.00
H450   H     0.50763   0.23662   0.75727   0.00000  Uiso   1.00
H451   H     0.31582   0.03089   0.95637   0.00000  Uiso   1.00
O452   O     0.87023   0.43222   0.97171   0.00000  Uiso   1.00
O453   O     0.44000   0.36308   0.72675   0.00000  Uiso   1.00
O454   O     0.18835   0.09316   0.98796   0.00000  Uiso   1.00
N455   N     0.73492   0.45259   0.95499   0.00000  Uiso   1.00
N456   N     0.42834   0.40332   0.78042   0.00000  Uiso   1.00
N457   N     0.24900   0.21098   0.96655   0.00000  Uiso   1.00
N458   N     0.79246   0.33362   0.94465   0.00000  Uiso   1.00
N459   N     0.48589   0.28436   0.77008   0.00000  Uiso   1.00
N460   N     0.30655   0.09201   0.95621   0.00000  Uiso   1.00
C461   C     0.03430   0.13390   0.40158   0.00000  Uiso   1.00
C462   C     0.94604   0.13914   0.41378   0.00000  Uiso   1.00
C463   C     0.90389   0.07728   0.42979   0.00000  Uiso   1.00
C464   C     0.82358   0.09411   0.43897   0.00000  Uiso   1.00
C465   C     0.69213   0.09067   0.45890   0.00000  Uiso   1.00
C466   C     0.03052   0.15271   0.36567   0.00000  Uiso   1.00
C467   C     0.05942   0.10226   0.34123   0.00000  Uiso   1.00
C468   C     0.05023   0.13053   0.30991   0.00000  Uiso   1.00
C469   C     0.04999   0.14818   0.25514   0.00000  Uiso   1.00
C470   C     0.07994   0.20572   0.41697   0.00000  Uiso   1.00
C471   C     0.15040   0.19984   0.43566   0.00000  Uiso   1.00
C472   C     0.18283   0.27274   0.44752   0.00000  Uiso   1.00
C473   C     0.25931   0.37270   0.47241   0.00000  Uiso   1.00
C474   C     0.96663   0.27380   0.38942   0.00000  Uiso   1.00
C475   C     0.90929   0.21513   0.40717   0.00000  Uiso   1.00
C476   C     0.82902   0.23206   0.41633   0.00000  Uiso   1.00
C477   C     0.78676   0.17023   0.43235   0.00000  Uiso   1.00
C478   C     0.99377   0.22870   0.35906   0.00000  Uiso   1.00
C479   C     0.98455   0.25705   0.32777   0.00000  Uiso   1.00
C480   C     0.01341   0.20665   0.30329   0.00000  Uiso   1.00
C481   C     0.04319   0.28171   0.41036   0.00000  Uiso   1.00
C482   C     0.07552   0.35463   0.42220   0.00000  Uiso   1.00
C483   C     0.14601   0.34886   0.44090   0.00000  Uiso   1.00
H484   H     0.06291   0.07474   0.40673   0.00000  Uiso   1.00
H485   H     0.93236   0.01848   0.43490   0.00000  Uiso   1.00
H486   H     0.08786   0.04347   0.34635   0.00000  Uiso   1.00
H487   H     0.17882   0.14103   0.44076   0.00000  Uiso   1.00
H488   H     0.77139   0.98960   0.46320   0.00000  Uiso   1.00
H489   H     0.09931   0.04230   0.27649   0.00000  Uiso   1.00
H490   H     0.29112   0.24803   0.47559   0.00000  Uiso   1.00
H491   H     0.93801   0.33297   0.38427   0.00000  Uiso   1.00
H492   H     0.80059   0.29087   0.41122   0.00000  Uiso   1.00
H493   H     0.95610   0.31586   0.32266   0.00000  Uiso   1.00
H494   H     0.04706   0.41342   0.41708   0.00000  Uiso   1.00
H495   H     0.66444   0.21068   0.44398   0.00000  Uiso   1.00
H496   H     0.99237   0.26338   0.25727   0.00000  Uiso   1.00
H497   H     0.18418   0.46911   0.45637   0.00000  Uiso   1.00
O498   O     0.62977   0.06778   0.47171   0.00000  Uiso   1.00
O499   O     0.06000   0.13692   0.22675   0.00000  Uiso   1.00
O500   O     0.31165   0.40684   0.48796   0.00000  Uiso   1.00
N501   N     0.76508   0.04741   0.45499   0.00000  Uiso   1.00
N502   N     0.07166   0.09668   0.28042   0.00000  Uiso   1.00
N503   N     0.25100   0.28902   0.46655   0.00000  Uiso   1.00
N504   N     0.70754   0.16638   0.44465   0.00000  Uiso   1.00
N505   N     0.01411   0.21564   0.27008   0.00000  Uiso   1.00
N506   N     0.19345   0.40799   0.45621   0.00000  Uiso   1.00
C507   C     0.53430   0.63390   0.90158   0.00000  Uiso   1.00
C508   C     0.44604   0.63914   0.91378   0.00000  Uiso   1.00
C509   C     0.40389   0.57728   0.92979   0.00000  Uiso   1.00
C510   C     0.32358   0.59411   0.93897   0.00000  Uiso   1.00
C511   C     0.19213   0.59067   0.95890   0.00000  Uiso   1.00
C512   C     0.53052   0.65271   0.86567   0.00000  Uiso   1.00
C513   C     0.55942   0.60226   0.84123   0.00000  Uiso   1.00
C514   C     0.55023   0.63053   0.80991   0.00000  Uiso   1.00
C515   C     0.54999   0.64818   0.75514   0.00000  Uiso   1.00
C516   C     0.57994   0.70572   0.91697   0.00000  Uiso   1.00
C517   C     0.65040   0.69984   0.93566   0.00000  Uiso   1.00
C518   C     0.68283   0.77274   0.94752   0.00000  Uiso   1.00
C519   C     0.75931   0.87270   0.97241   0.00000  Uiso   1.00
C520   C     0.46663   0.77380   0.88942   0.00000  Uiso   1.00
C521   C     0.40929   0.71513   0.90717   0.00000  Uiso   1.00
C522   C     0.32902   0.73206   0.91633   0.00000  Uiso   1.00
C523   C     0.28676   0.67023   0.93235   0.00000  Uiso   1.00
C524   C     0.49377   0.72870   0.85906   0.00000  Uiso   1.00
C525   C     0.48455   0.75705   0.82777   0.00000  Uiso   1.00
C526   C     0.51341   0.70665   0.80329   0.00000  Uiso   1.00
C527   C     0.54319   0.78171   0.91036   0.00000  Uiso   1.00
C528   C     0.57552   0.85463   0.92220   0.00000  Uiso   1.00
C529   C     0.64601   0.84886   0.94090   0.00000  Uiso   1.00
H530   H     0.56291   0.57474   0.90673   0.00000  Uiso   1.00
H531   H     0.43236   0.51848   0.93490   0.00000  Uiso   1.00
H532   H     0.58786   0.54347   0.84635   0.00000  Uiso   1.00
H533   H     0.67882   0.64103   0.94076   0.00000  Uiso   1.00
H534   H     0.27139   0.48960   0.96320   0.00000  Uiso   1.00
H535   H     0.59931   0.54230   0.77649   0.00000  Uiso   1.00
H536   H     0.79112   0.74803   0.97559   0.00000  Uiso   1.00
H537   H     0.43801   0.83297   0.88427   0.00000  Uiso   1.00
H538   H     0.30059   0.79087   0.91122   0.00000  Uiso   1.00
H539   H     0.45610   0.81586   0.82266   0.00000  Uiso   1.00
H540   H     0.54706   0.91342   0.91708   0.00000  Uiso   1.00
H541   H     0.16444   0.71068   0.94398   0.00000  Uiso   1.00
H542   H     0.49237   0.76338   0.75727   0.00000  Uiso   1.00
H543   H     0.68418   0.96911   0.95637   0.00000  Uiso   1.00
O544   O     0.12977   0.56778   0.97171   0.00000  Uiso   1.00
O545   O     0.56000   0.63692   0.72675   0.00000  Uiso   1.00
O546   O     0.81165   0.90684   0.98796   0.00000  Uiso   1.00
N547   N     0.26508   0.54741   0.95499   0.00000  Uiso   1.00
N548   N     0.57166   0.59668   0.78042   0.00000  Uiso   1.00
N549   N     0.75100   0.78902   0.96655   0.00000  Uiso   1.00
N550   N     0.20754   0.66638   0.94465   0.00000  Uiso   1.00
N551   N     0.51411   0.71564   0.77008   0.00000  Uiso   1.00
N552   N     0.69345   0.90799   0.95621   0.00000  Uiso   1.00
C553   C     0.63390   0.46570   0.09842   0.00000  Uiso   1.00
C554   C     0.63914   0.55396   0.08622   0.00000  Uiso   1.00
C555   C     0.57728   0.59611   0.07021   0.00000  Uiso   1.00
C556   C     0.59411   0.67642   0.06103   0.00000  Uiso   1.00
C557   C     0.59067   0.80787   0.04110   0.00000  Uiso   1.00
C558   C     0.65271   0.46948   0.13433   0.00000  Uiso   1.00
C559   C     0.60226   0.44058   0.15877   0.00000  Uiso   1.00
C560   C     0.63053   0.44977   0.19009   0.00000  Uiso   1.00
C561   C     0.64818   0.45001   0.24486   0.00000  Uiso   1.00
C562   C     0.70572   0.42006   0.08303   0.00000  Uiso   1.00
C563   C     0.69984   0.34960   0.06434   0.00000  Uiso   1.00
C564   C     0.77274   0.31717   0.05248   0.00000  Uiso   1.00
C565   C     0.87270   0.24069   0.02759   0.00000  Uiso   1.00
C566   C     0.77380   0.53337   0.11058   0.00000  Uiso   1.00
C567   C     0.71513   0.59071   0.09283   0.00000  Uiso   1.00
C568   C     0.73206   0.67098   0.08367   0.00000  Uiso   1.00
C569   C     0.67023   0.71324   0.06765   0.00000  Uiso   1.00
C570   C     0.72870   0.50623   0.14094   0.00000  Uiso   1.00
C571   C     0.75705   0.51545   0.17223   0.00000  Uiso   1.00
C572   C     0.70665   0.48659   0.19671   0.00000  Uiso   1.00
C573   C     0.78171   0.45681   0.08964   0.00000  Uiso   1.00
C574   C     0.85463   0.42448   0.07780   0.00000  Uiso   1.00
C575   C     0.84886   0.35399   0.05910   0.00000  Uiso   1.00
H576   H     0.57474   0.43709   0.09327   0.00000  Uiso   1.00
H577   H     0.51848   0.56764   0.06510   0.00000  Uiso   1.00
H578   H     0.54347   0.41214   0.15365   0.00000  Uiso   1.00
H579   H     0.64103   0.32118   0.05924   0.00000  Uiso   1.00
H580   H     0.48960   0.72861   0.03680   0.00000  Uiso   1.00
H581   H     0.54230   0.40069   0.22351   0.00000  Uiso   1.00
H582   H     0.74803   0.20888   0.02441   0.00000  Uiso   1.00
H583   H     0.83297   0.56199   0.11573   0.00000  Uiso   1.00
H584   H     0.79087   0.69941   0.08878   0.00000  Uiso   1.00
H585   H     0.81586   0.54390   0.17734   0.00000  Uiso   1.00
H586   H     0.91342   0.45294   0.08292   0.00000  Uiso   1.00
H587   H     0.71068   0.83556   0.05602   0.00000  Uiso   1.00
H588   H     0.76338   0.50763   0.24273   0.00000  Uiso   1.00
H589   H     0.96911   0.31582   0.04363   0.00000  Uiso   1.00
O590   O     0.56778   0.87023   0.02829   0.00000  Uiso   1.00
O591   O     0.63692   0.44000   0.27325   0.00000  Uiso   1.00
O592   O     0.90684   0.18835   0.01204   0.00000  Uiso   1.00
N593   N     0.54741   0.73492   0.04501   0.00000  Uiso   1.00
N594   N     0.59668   0.42834   0.21958   0.00000  Uiso   1.00
N595   N     0.78902   0.24900   0.03345   0.00000  Uiso   1.00
N596   N     0.66638   0.79246   0.05535   0.00000  Uiso   1.00
N597   N     0.71564   0.48589   0.22992   0.00000  Uiso   1.00
N598   N     0.90799   0.30655   0.04379   0.00000  Uiso   1.00
C599   C     0.13390   0.96570   0.59842   0.00000  Uiso   1.00
C600   C     0.13914   0.05396   0.58622   0.00000  Uiso   1.00
C601   C     0.07728   0.09611   0.57021   0.00000  Uiso   1.00
C602   C     0.09411   0.17642   0.56103   0.00000  Uiso   1.00
C603   C     0.09067   0.30787   0.54110   0.00000  Uiso   1.00
C604   C     0.15271   0.96948   0.63433   0.00000  Uiso   1.00
C605   C     0.10226   0.94058   0.65877   0.00000  Uiso   1.00
C606   C     0.13053   0.94977   0.69009   0.00000  Uiso   1.00
C607   C     0.14818   0.95001   0.74486   0.00000  Uiso   1.00
C608   C     0.20572   0.92006   0.58303   0.00000  Uiso   1.00
C609   C     0.19984   0.84960   0.56434   0.00000  Uiso   1.00
C610   C     0.27274   0.81717   0.55248   0.00000  Uiso   1.00
C611   C     0.37270   0.74069   0.52759   0.00000  Uiso   1.00
C612   C     0.27380   0.03337   0.61058   0.00000  Uiso   1.00
C613   C     0.21513   0.09071   0.59283   0.00000  Uiso   1.00
C614   C     0.23206   0.17098   0.58367   0.00000  Uiso   1.00
C615   C     0.17023   0.21324   0.56765   0.00000  Uiso   1.00
C616   C     0.22870   0.00623   0.64094   0.00000  Uiso   1.00
C617   C     0.25705   0.01545   0.67223   0.00000  Uiso   1.00
C618   C     0.20665   0.98659   0.69671   0.00000  Uiso   1.00
C619   C     0.28171   0.95681   0.58964   0.00000  Uiso   1.00
C620   C     0.35463   0.92448   0.57780   0.00000  Uiso   1.00
C621   C     0.34886   0.85399   0.55910   0.00000  Uiso   1.00
H622   H     0.07474   0.93709   0.59327   0.00000  Uiso   1.00
H623   H     0.01848   0.06764   0.56510   0.00000  Uiso   1.00
H624   H     0.04347   0.91214   0.65365   0.00000  Uiso   1.00
H625   H     0.14103   0.82118   0.55924   0.00000  Uiso   1.00
H626   H     0.98960   0.22861   0.53680   0.00000  Uiso   1.00
H627   H     0.04230   0.90069   0.72351   0.00000  Uiso   1.00
H628   H     0.24803   0.70888   0.52441   0.00000  Uiso   1.00
H629   H     0.33297   0.06199   0.61573   0.00000  Uiso   1.00
H630   H     0.29087   0.19941   0.58878   0.00000  Uiso   1.00
H631   H     0.31586   0.04390   0.67734   0.00000  Uiso   1.00
H632   H     0.41342   0.95294   0.58292   0.00000  Uiso   1.00
H633   H     0.21068   0.33556   0.55602   0.00000  Uiso   1.00
H634   H     0.26338   0.00763   0.74273   0.00000  Uiso   1.00
H635   H     0.46911   0.81582   0.54363   0.00000  Uiso   1.00
O636   O     0.06778   0.37023   0.52829   0.00000  Uiso   1.00
O637   O     0.13692   0.94000   0.77325   0.00000  Uiso   1.00
O638   O     0.40684   0.68835   0.51204   0.00000  Uiso   1.00
N639   N     0.04741   0.23492   0.54501   0.00000  Uiso   1.00
N640   N     0.09668   0.92834   0.71958   0.00000  Uiso   1.00
N641   N     0.28902   0.74900   0.53345   0.00000  Uiso   1.00
N642   N     0.16638   0.29246   0.55535   0.00000  Uiso   1.00
N643   N     0.21564   0.98589   0.72992   0.00000  Uiso   1.00
N644   N     0.40799   0.80655   0.54379   0.00000  Uiso   1.00
C645   C     0.36610   0.53430   0.09842   0.00000  Uiso   1.00
C646   C     0.36086   0.44604   0.08622   0.00000  Uiso   1.00
C647   C     0.42272   0.40389   0.07021   0.00000  Uiso   1.00
C648   C     0.40589   0.32358   0.06103   0.00000  Uiso   1.00
C649   C     0.40933   0.19213   0.04110   0.00000  Uiso   1.00
C650   C     0.34729   0.53052   0.13433   0.00000  Uiso   1.00
C651   C     0.39774   0.55942   0.15877   0.00000  Uiso   1.00
C652   C     0.36947   0.55023   0.19009   0.00000  Uiso   1.00
C653   C     0.35182   0.54999   0.24486   0.00000  Uiso   1.00
C654   C     0.29428   0.57994   0.08303   0.00000  Uiso   1.00
C655   C     0.30016   0.65040   0.06434   0.00000  Uiso   1.00
C656   C     0.22726   0.68283   0.05248   0.00000  Uiso   1.00
C657   C     0.12730   0.75931   0.02759   0.00000  Uiso   1.00
C658   C     0.22620   0.46663   0.11058   0.00000  Uiso   1.00
C659   C     0.28487   0.40929   0.09283   0.00000  Uiso   1.00
C660   C     0.26794   0.32902   0.08367   0.00000  Uiso   1.00
C661   C     0.32977   0.28676   0.06765   0.00000  Uiso   1.00
C662   C     0.27130   0.49377   0.14094   0.00000  Uiso   1.00
C663   C     0.24295   0.48455   0.17223   0.00000  Uiso   1.00
C664   C     0.29335   0.51341   0.19671   0.00000  Uiso   1.00
C665   C     0.21829   0.54319   0.08964   0.00000  Uiso   1.00
C666   C     0.14537   0.57552   0.07780   0.00000  Uiso   1.00
C667   C     0.15114   0.64601   0.05910   0.00000  Uiso   1.00
H668   H     0.42526   0.56291   0.09327   0.00000  Uiso   1.00
H669   H     0.48152   0.43236   0.06510   0.00000  Uiso   1.00
H670   H     0.45653   0.58786   0.15365   0.00000  Uiso   1.00
H671   H     0.35897   0.67882   0.05924   0.00000  Uiso   1.00
H672   H     0.51040   0.27139   0.03680   0.00000  Uiso   1.00
H673   H     0.45770   0.59931   0.22351   0.00000  Uiso   1.00
H674   H     0.25197   0.79112   0.02441   0.00000  Uiso   1.00
H675   H     0.16703   0.43801   0.11573   0.00000  Uiso   1.00
H676   H     0.20913   0.30059   0.08878   0.00000  Uiso   1.00
H677   H     0.18414   0.45610   0.17734   0.00000  Uiso   1.00
H678   H     0.08658   0.54706   0.08292   0.00000  Uiso   1.00
H679   H     0.28932   0.16444   0.05602   0.00000  Uiso   1.00
H680   H     0.23662   0.49237   0.24273   0.00000  Uiso   1.00
H681   H     0.03089   0.68418   0.04363   0.00000  Uiso   1.00
O682   O     0.43222   0.12977   0.02829   0.00000  Uiso   1.00
O683   O     0.36308   0.56000   0.27325   0.00000  Uiso   1.00
O684   O     0.09316   0.81165   0.01204   0.00000  Uiso   1.00
N685   N     0.45259   0.26508   0.04501   0.00000  Uiso   1.00
N686   N     0.40332   0.57166   0.21958   0.00000  Uiso   1.00
N687   N     0.21098   0.75100   0.03345   0.00000  Uiso   1.00
N688   N     0.33362   0.20754   0.05535   0.00000  Uiso   1.00
N689   N     0.28436   0.51411   0.22992   0.00000  Uiso   1.00
N690   N     0.09201   0.69345   0.04379   0.00000  Uiso   1.00
C691   C     0.86610   0.03430   0.59842   0.00000  Uiso   1.00
C692   C     0.86086   0.94604   0.58622   0.00000  Uiso   1.00
C693   C     0.92272   0.90389   0.57021   0.00000  Uiso   1.00
C694   C     0.90589   0.82358   0.56103   0.00000  Uiso   1.00
C695   C     0.90933   0.69213   0.54110   0.00000  Uiso   1.00
C696   C     0.84729   0.03052   0.63433   0.00000  Uiso   1.00
C697   C     0.89774   0.05942   0.65877   0.00000  Uiso   1.00
C698   C     0.86947   0.05023   0.69009   0.00000  Uiso   1.00
C699   C     0.85182   0.04999   0.74486   0.00000  Uiso   1.00
C700   C     0.79428   0.07994   0.58303   0.00000  Uiso   1.00
C701   C     0.80016   0.15040   0.56434   0.00000  Uiso   1.00
C702   C     0.72726   0.18283   0.55248   0.00000  Uiso   1.00
C703   C     0.62730   0.25931   0.52759   0.00000  Uiso   1.00
C704   C     0.72620   0.96663   0.61058   0.00000  Uiso   1.00
C705   C     0.78487   0.90929   0.59283   0.00000  Uiso   1.00
C706   C     0.76794   0.82902   0.58367   0.00000  Uiso   1.00
C707   C     0.82977   0.78676   0.56765   0.00000  Uiso   1.00
C708   C     0.77130   0.99377   0.64094   0.00000  Uiso   1.00
C709   C     0.74295   0.98455   0.67223   0.00000  Uiso   1.00
C710   C     0.79335   0.01341   0.69671   0.00000  Uiso   1.00
C711   C     0.71829   0.04319   0.58964   0.00000  Uiso   1.00
C712   C     0.64537   0.07552   0.57780   0.00000  Uiso   1.00
C713   C     0.65114   0.14601   0.55910   0.00000  Uiso   1.00
H714   H     0.92526   0.06291   0.59327   0.00000  Uiso   1.00
H715   H     0.98152   0.93236   0.56510   0.00000  Uiso   1.00
H716   H     0.95653   0.08786   0.65365   0.00000  Uiso   1.00
H717   H     0.85897   0.17882   0.55924   0.00000  Uiso   1.00
H718   H     0.01040   0.77139   0.53680   0.00000  Uiso   1.00
H719   H     0.95770   0.09931   0.72351   0.00000  Uiso   1.00
H720   H     0.75197   0.29112   0.52441   0.00000  Uiso   1.00
H721   H     0.66703   0.93801   0.61573   0.00000  Uiso   1.00
H722   H     0.70913   0.80059   0.58878   0.00000  Uiso   1.00
H723   H     0.68414   0.95610   0.67734   0.00000  Uiso   1.00
H724   H     0.58658   0.04706   0.58292   0.00000  Uiso   1.00
H725   H     0.78932   0.66444   0.55602   0.00000  Uiso   1.00
H726   H     0.73662   0.99237   0.74273   0.00000  Uiso   1.00
H727   H     0.53089   0.18418   0.54363   0.00000  Uiso   1.00
O728   O     0.93222   0.62977   0.52829   0.00000  Uiso   1.00
O729   O     0.86308   0.06000   0.77325   0.00000  Uiso   1.00
O730   O     0.59316   0.31165   0.51204   0.00000  Uiso   1.00
N731   N     0.95259   0.76508   0.54501   0.00000  Uiso   1.00
N732   N     0.90332   0.07166   0.71958   0.00000  Uiso   1.00
N733   N     0.71098   0.25100   0.53345   0.00000  Uiso   1.00
N734   N     0.83362   0.70754   0.55535   0.00000  Uiso   1.00
N735   N     0.78436   0.01411   0.72992   0.00000  Uiso   1.00
N736   N     0.59201   0.19345   0.54379   0.00000  Uiso   1.00
