data_job_04171
_audit_creation_date              2018-12-19
_audit_creation_method            'Materials Studio'
_symmetry_space_group_name_H-M    'P1'
_symmetry_Int_Tables_number       1
_symmetry_cell_setting            triclinic
loop_
_symmetry_equiv_pos_as_xyz
  x,y,z
_cell_length_a                    28.3854
_cell_length_b                    23.4001
_cell_length_c                    22.4334
_cell_angle_alpha                 90.0000
_cell_angle_beta                  90.0000
_cell_angle_gamma                 90.0000
loop_
_atom_site_label
_atom_site_type_symbol
_atom_site_fract_x
_atom_site_fract_y
_atom_site_fract_z
_atom_site_U_iso_or_equiv
_atom_site_adp_type
_atom_site_occupancy
C1     C     0.64869   0.01749   0.11597   0.00000  Uiso   1.00
C2     C     0.65151   0.00990   0.04855   0.00000  Uiso   1.00
C3     C     0.67362   0.04686   0.00908   0.00000  Uiso   1.00
C4     C     0.67228   0.03235   0.94909   0.00000  Uiso   1.00
C5     C     0.68008   0.02814   0.84740   0.00000  Uiso   1.00
C6     C     0.59639   0.01656   0.13151   0.00000  Uiso   1.00
C7     C     0.57217   0.05911   0.16180   0.00000  Uiso   1.00
C8     C     0.52444   0.05021   0.17166   0.00000  Uiso   1.00
C9     C     0.44669   0.05632   0.19881   0.00000  Uiso   1.00
C10    C     0.66959   0.96331   0.14294   0.00000  Uiso   1.00
C11    C     0.70690   0.96110   0.18285   0.00000  Uiso   1.00
C12    C     0.72080   0.90736   0.20234   0.00000  Uiso   1.00
C13    C     0.75669   0.83080   0.24724   0.00000  Uiso   1.00
C14    C     0.60700   0.92600   0.07963   0.00000  Uiso   1.00
C15    C     0.62886   0.96021   0.02881   0.00000  Uiso   1.00
C16    C     0.62750   0.94564   0.96887   0.00000  Uiso   1.00
C17    C     0.64960   0.98257   0.92931   0.00000  Uiso   1.00
C18    C     0.57375   0.96687   0.11177   0.00000  Uiso   1.00
C19    C     0.52605   0.95789   0.12159   0.00000  Uiso   1.00
C20    C     0.50176   0.00042   0.15188   0.00000  Uiso   1.00
C21    C     0.64695   0.91362   0.12320   0.00000  Uiso   1.00
C22    C     0.66079   0.85988   0.14264   0.00000  Uiso   1.00
C23    C     0.69811   0.85758   0.18257   0.00000  Uiso   1.00
H24    H     0.66631   0.05618   0.13134   0.00000  Uiso   1.00
H25    H     0.69113   0.08531   0.02437   0.00000  Uiso   1.00
H26    H     0.58970   0.09756   0.17707   0.00000  Uiso   1.00
H27    H     0.72442   0.99956   0.19812   0.00000  Uiso   1.00
H28    H     0.70865   0.09571   0.89707   0.00000  Uiso   1.00
H29    H     0.49478   0.12153   0.21907   0.00000  Uiso   1.00
H30    H     0.77885   0.91488   0.26345   0.00000  Uiso   1.00
H31    H     0.58938   0.88731   0.06426   0.00000  Uiso   1.00
H32    H     0.60997   0.90718   0.95361   0.00000  Uiso   1.00
H33    H     0.50854   0.91943   0.10631   0.00000  Uiso   1.00
H34    H     0.64326   0.82143   0.12736   0.00000  Uiso   1.00
H35    H     0.64277   0.95114   0.83963   0.00000  Uiso   1.00
H36    H     0.42891   0.97695   0.16164   0.00000  Uiso   1.00
H37    H     0.71298   0.77030   0.20602   0.00000  Uiso   1.00
O38    O     0.69063   0.03955   0.79677   0.00000  Uiso   1.00
O39    O     0.41005   0.07342   0.21924   0.00000  Uiso   1.00
O40    O     0.78275   0.80230   0.27745   0.00000  Uiso   1.00
N41    N     0.69032   0.05895   0.89874   0.00000  Uiso   1.00
N42    N     0.49037   0.08310   0.19978   0.00000  Uiso   1.00
N43    N     0.75595   0.88990   0.24129   0.00000  Uiso   1.00
N44    N     0.65488   0.98116   0.86783   0.00000  Uiso   1.00
N45    N     0.45492   0.00530   0.16888   0.00000  Uiso   1.00
N46    N     0.72050   0.81210   0.21038   0.00000  Uiso   1.00
C47    C     0.14869   0.51749   0.61597   0.00000  Uiso   1.00
C48    C     0.15151   0.50990   0.54855   0.00000  Uiso   1.00
C49    C     0.17362   0.54686   0.50908   0.00000  Uiso   1.00
C50    C     0.17228   0.53235   0.44909   0.00000  Uiso   1.00
C51    C     0.18008   0.52814   0.34740   0.00000  Uiso   1.00
C52    C     0.09639   0.51656   0.63151   0.00000  Uiso   1.00
C53    C     0.07217   0.55911   0.66180   0.00000  Uiso   1.00
C54    C     0.02444   0.55021   0.67166   0.00000  Uiso   1.00
C55    C     0.94669   0.55632   0.69881   0.00000  Uiso   1.00
C56    C     0.16959   0.46331   0.64294   0.00000  Uiso   1.00
C57    C     0.20690   0.46110   0.68285   0.00000  Uiso   1.00
C58    C     0.22080   0.40736   0.70234   0.00000  Uiso   1.00
C59    C     0.25669   0.33080   0.74724   0.00000  Uiso   1.00
C60    C     0.10700   0.42600   0.57963   0.00000  Uiso   1.00
C61    C     0.12886   0.46021   0.52881   0.00000  Uiso   1.00
C62    C     0.12750   0.44564   0.46887   0.00000  Uiso   1.00
C63    C     0.14960   0.48257   0.42931   0.00000  Uiso   1.00
C64    C     0.07375   0.46687   0.61177   0.00000  Uiso   1.00
C65    C     0.02605   0.45789   0.62159   0.00000  Uiso   1.00
C66    C     0.00176   0.50042   0.65188   0.00000  Uiso   1.00
C67    C     0.14695   0.41362   0.62320   0.00000  Uiso   1.00
C68    C     0.16079   0.35988   0.64264   0.00000  Uiso   1.00
C69    C     0.19811   0.35758   0.68257   0.00000  Uiso   1.00
H70    H     0.16631   0.55618   0.63134   0.00000  Uiso   1.00
H71    H     0.19113   0.58531   0.52437   0.00000  Uiso   1.00
H72    H     0.08970   0.59756   0.67707   0.00000  Uiso   1.00
H73    H     0.22442   0.49956   0.69812   0.00000  Uiso   1.00
H74    H     0.20865   0.59571   0.39707   0.00000  Uiso   1.00
H75    H     0.99478   0.62153   0.71907   0.00000  Uiso   1.00
H76    H     0.27885   0.41488   0.76345   0.00000  Uiso   1.00
H77    H     0.08938   0.38731   0.56426   0.00000  Uiso   1.00
H78    H     0.10997   0.40718   0.45361   0.00000  Uiso   1.00
H79    H     0.00854   0.41943   0.60631   0.00000  Uiso   1.00
H80    H     0.14326   0.32143   0.62736   0.00000  Uiso   1.00
H81    H     0.14277   0.45114   0.33963   0.00000  Uiso   1.00
H82    H     0.92891   0.47695   0.66164   0.00000  Uiso   1.00
H83    H     0.21298   0.27030   0.70602   0.00000  Uiso   1.00
O84    O     0.19063   0.53955   0.29677   0.00000  Uiso   1.00
O85    O     0.91005   0.57342   0.71924   0.00000  Uiso   1.00
O86    O     0.28275   0.30230   0.77745   0.00000  Uiso   1.00
N87    N     0.19032   0.55895   0.39874   0.00000  Uiso   1.00
N88    N     0.99037   0.58310   0.69978   0.00000  Uiso   1.00
N89    N     0.25595   0.38990   0.74129   0.00000  Uiso   1.00
N90    N     0.15488   0.48116   0.36783   0.00000  Uiso   1.00
N91    N     0.95492   0.50530   0.66888   0.00000  Uiso   1.00
N92    N     0.22050   0.31210   0.71038   0.00000  Uiso   1.00
C93    C     0.85131   0.98251   0.61597   0.00000  Uiso   1.00
C94    C     0.84849   0.99010   0.54855   0.00000  Uiso   1.00
C95    C     0.82638   0.95314   0.50908   0.00000  Uiso   1.00
C96    C     0.82772   0.96765   0.44909   0.00000  Uiso   1.00
C97    C     0.81992   0.97186   0.34740   0.00000  Uiso   1.00
C98    C     0.90361   0.98344   0.63151   0.00000  Uiso   1.00
C99    C     0.92783   0.94089   0.66180   0.00000  Uiso   1.00
C100   C     0.97556   0.94979   0.67166   0.00000  Uiso   1.00
C101   C     0.05331   0.94368   0.69881   0.00000  Uiso   1.00
C102   C     0.83041   0.03669   0.64294   0.00000  Uiso   1.00
C103   C     0.79310   0.03890   0.68285   0.00000  Uiso   1.00
C104   C     0.77920   0.09264   0.70234   0.00000  Uiso   1.00
C105   C     0.74331   0.16920   0.74724   0.00000  Uiso   1.00
C106   C     0.89300   0.07400   0.57963   0.00000  Uiso   1.00
C107   C     0.87114   0.03979   0.52881   0.00000  Uiso   1.00
C108   C     0.87250   0.05436   0.46887   0.00000  Uiso   1.00
C109   C     0.85040   0.01743   0.42931   0.00000  Uiso   1.00
C110   C     0.92625   0.03313   0.61177   0.00000  Uiso   1.00
C111   C     0.97395   0.04211   0.62159   0.00000  Uiso   1.00
C112   C     0.99824   0.99958   0.65188   0.00000  Uiso   1.00
C113   C     0.85305   0.08638   0.62320   0.00000  Uiso   1.00
C114   C     0.83921   0.14012   0.64264   0.00000  Uiso   1.00
C115   C     0.80189   0.14242   0.68257   0.00000  Uiso   1.00
H116   H     0.83369   0.94382   0.63134   0.00000  Uiso   1.00
H117   H     0.80887   0.91469   0.52437   0.00000  Uiso   1.00
H118   H     0.91030   0.90244   0.67707   0.00000  Uiso   1.00
H119   H     0.77558   0.00044   0.69812   0.00000  Uiso   1.00
H120   H     0.79135   0.90429   0.39707   0.00000  Uiso   1.00
H121   H     0.00522   0.87847   0.71907   0.00000  Uiso   1.00
H122   H     0.72115   0.08512   0.76345   0.00000  Uiso   1.00
H123   H     0.91062   0.11269   0.56426   0.00000  Uiso   1.00
H124   H     0.89003   0.09282   0.45361   0.00000  Uiso   1.00
H125   H     0.99146   0.08057   0.60631   0.00000  Uiso   1.00
H126   H     0.85674   0.17857   0.62736   0.00000  Uiso   1.00
H127   H     0.85723   0.04886   0.33963   0.00000  Uiso   1.00
H128   H     0.07109   0.02305   0.66164   0.00000  Uiso   1.00
H129   H     0.78702   0.22970   0.70602   0.00000  Uiso   1.00
O130   O     0.80937   0.96045   0.29677   0.00000  Uiso   1.00
O131   O     0.08995   0.92658   0.71924   0.00000  Uiso   1.00
O132   O     0.71725   0.19770   0.77745   0.00000  Uiso   1.00
N133   N     0.80968   0.94105   0.39874   0.00000  Uiso   1.00
N134   N     0.00963   0.91690   0.69978   0.00000  Uiso   1.00
N135   N     0.74405   0.11010   0.74129   0.00000  Uiso   1.00
N136   N     0.84512   0.01884   0.36783   0.00000  Uiso   1.00
N137   N     0.04508   0.99470   0.66888   0.00000  Uiso   1.00
N138   N     0.77950   0.18790   0.71038   0.00000  Uiso   1.00
C139   C     0.35131   0.48251   0.11597   0.00000  Uiso   1.00
C140   C     0.34849   0.49010   0.04855   0.00000  Uiso   1.00
C141   C     0.32638   0.45314   0.00908   0.00000  Uiso   1.00
C142   C     0.32772   0.46765   0.94909   0.00000  Uiso   1.00
C143   C     0.31992   0.47186   0.84740   0.00000  Uiso   1.00
C144   C     0.40361   0.48344   0.13151   0.00000  Uiso   1.00
C145   C     0.42783   0.44089   0.16180   0.00000  Uiso   1.00
C146   C     0.47556   0.44979   0.17166   0.00000  Uiso   1.00
C147   C     0.55331   0.44368   0.19881   0.00000  Uiso   1.00
C148   C     0.33041   0.53669   0.14294   0.00000  Uiso   1.00
C149   C     0.29310   0.53890   0.18285   0.00000  Uiso   1.00
C150   C     0.27920   0.59264   0.20234   0.00000  Uiso   1.00
C151   C     0.24331   0.66920   0.24724   0.00000  Uiso   1.00
C152   C     0.39300   0.57400   0.07963   0.00000  Uiso   1.00
C153   C     0.37114   0.53979   0.02881   0.00000  Uiso   1.00
C154   C     0.37250   0.55436   0.96887   0.00000  Uiso   1.00
C155   C     0.35040   0.51743   0.92931   0.00000  Uiso   1.00
C156   C     0.42625   0.53313   0.11177   0.00000  Uiso   1.00
C157   C     0.47395   0.54211   0.12159   0.00000  Uiso   1.00
C158   C     0.49824   0.49958   0.15188   0.00000  Uiso   1.00
C159   C     0.35305   0.58638   0.12320   0.00000  Uiso   1.00
C160   C     0.33921   0.64012   0.14264   0.00000  Uiso   1.00
C161   C     0.30189   0.64242   0.18257   0.00000  Uiso   1.00
H162   H     0.33369   0.44382   0.13134   0.00000  Uiso   1.00
H163   H     0.30887   0.41469   0.02437   0.00000  Uiso   1.00
H164   H     0.41030   0.40244   0.17707   0.00000  Uiso   1.00
H165   H     0.27558   0.50044   0.19812   0.00000  Uiso   1.00
H166   H     0.29135   0.40429   0.89707   0.00000  Uiso   1.00
H167   H     0.50522   0.37847   0.21907   0.00000  Uiso   1.00
H168   H     0.22115   0.58512   0.26345   0.00000  Uiso   1.00
H169   H     0.41062   0.61269   0.06426   0.00000  Uiso   1.00
H170   H     0.39003   0.59282   0.95361   0.00000  Uiso   1.00
H171   H     0.49146   0.58057   0.10631   0.00000  Uiso   1.00
H172   H     0.35674   0.67857   0.12736   0.00000  Uiso   1.00
H173   H     0.35723   0.54886   0.83963   0.00000  Uiso   1.00
H174   H     0.57109   0.52305   0.16164   0.00000  Uiso   1.00
H175   H     0.28702   0.72970   0.20602   0.00000  Uiso   1.00
O176   O     0.30937   0.46045   0.79677   0.00000  Uiso   1.00
O177   O     0.58995   0.42658   0.21924   0.00000  Uiso   1.00
O178   O     0.21725   0.69770   0.27745   0.00000  Uiso   1.00
N179   N     0.30968   0.44105   0.89874   0.00000  Uiso   1.00
N180   N     0.50963   0.41690   0.19978   0.00000  Uiso   1.00
N181   N     0.24405   0.61010   0.24129   0.00000  Uiso   1.00
N182   N     0.34512   0.51884   0.86783   0.00000  Uiso   1.00
N183   N     0.54508   0.49470   0.16888   0.00000  Uiso   1.00
N184   N     0.27950   0.68790   0.21038   0.00000  Uiso   1.00
C185   C     0.35131   0.51749   0.38403   0.00000  Uiso   1.00
C186   C     0.34849   0.50990   0.45145   0.00000  Uiso   1.00
C187   C     0.32638   0.54686   0.49092   0.00000  Uiso   1.00
C188   C     0.32772   0.53235   0.55091   0.00000  Uiso   1.00
C189   C     0.31992   0.52814   0.65260   0.00000  Uiso   1.00
C190   C     0.40361   0.51656   0.36849   0.00000  Uiso   1.00
C191   C     0.42783   0.55911   0.33820   0.00000  Uiso   1.00
C192   C     0.47556   0.55021   0.32834   0.00000  Uiso   1.00
C193   C     0.55331   0.55632   0.30119   0.00000  Uiso   1.00
C194   C     0.33041   0.46331   0.35706   0.00000  Uiso   1.00
C195   C     0.29310   0.46110   0.31715   0.00000  Uiso   1.00
C196   C     0.27920   0.40736   0.29766   0.00000  Uiso   1.00
C197   C     0.24331   0.33080   0.25276   0.00000  Uiso   1.00
C198   C     0.39300   0.42600   0.42037   0.00000  Uiso   1.00
C199   C     0.37114   0.46021   0.47119   0.00000  Uiso   1.00
C200   C     0.37250   0.44564   0.53113   0.00000  Uiso   1.00
C201   C     0.35040   0.48257   0.57069   0.00000  Uiso   1.00
C202   C     0.42625   0.46687   0.38823   0.00000  Uiso   1.00
C203   C     0.47395   0.45789   0.37841   0.00000  Uiso   1.00
C204   C     0.49824   0.50042   0.34812   0.00000  Uiso   1.00
C205   C     0.35305   0.41362   0.37680   0.00000  Uiso   1.00
C206   C     0.33921   0.35988   0.35736   0.00000  Uiso   1.00
C207   C     0.30189   0.35758   0.31743   0.00000  Uiso   1.00
H208   H     0.33369   0.55618   0.36866   0.00000  Uiso   1.00
H209   H     0.30887   0.58531   0.47563   0.00000  Uiso   1.00
H210   H     0.41030   0.59756   0.32293   0.00000  Uiso   1.00
H211   H     0.27558   0.49956   0.30188   0.00000  Uiso   1.00
H212   H     0.29135   0.59571   0.60293   0.00000  Uiso   1.00
H213   H     0.50522   0.62153   0.28093   0.00000  Uiso   1.00
H214   H     0.22115   0.41488   0.23655   0.00000  Uiso   1.00
H215   H     0.41062   0.38731   0.43574   0.00000  Uiso   1.00
H216   H     0.39003   0.40718   0.54639   0.00000  Uiso   1.00
H217   H     0.49146   0.41943   0.39369   0.00000  Uiso   1.00
H218   H     0.35674   0.32143   0.37264   0.00000  Uiso   1.00
H219   H     0.35723   0.45114   0.66037   0.00000  Uiso   1.00
H220   H     0.57109   0.47695   0.33836   0.00000  Uiso   1.00
H221   H     0.28702   0.27030   0.29398   0.00000  Uiso   1.00
O222   O     0.30937   0.53955   0.70323   0.00000  Uiso   1.00
O223   O     0.58995   0.57342   0.28076   0.00000  Uiso   1.00
O224   O     0.21725   0.30230   0.22255   0.00000  Uiso   1.00
N225   N     0.30968   0.55895   0.60126   0.00000  Uiso   1.00
N226   N     0.50963   0.58310   0.30022   0.00000  Uiso   1.00
N227   N     0.24405   0.38990   0.25871   0.00000  Uiso   1.00
N228   N     0.34512   0.48116   0.63217   0.00000  Uiso   1.00
N229   N     0.54508   0.50530   0.33112   0.00000  Uiso   1.00
N230   N     0.27950   0.31210   0.28962   0.00000  Uiso   1.00
C231   C     0.85131   0.01749   0.88403   0.00000  Uiso   1.00
C232   C     0.84849   0.00990   0.95145   0.00000  Uiso   1.00
C233   C     0.82638   0.04686   0.99092   0.00000  Uiso   1.00
C234   C     0.82772   0.03235   0.05091   0.00000  Uiso   1.00
C235   C     0.81992   0.02814   0.15260   0.00000  Uiso   1.00
C236   C     0.90361   0.01656   0.86849   0.00000  Uiso   1.00
C237   C     0.92783   0.05911   0.83820   0.00000  Uiso   1.00
C238   C     0.97556   0.05021   0.82834   0.00000  Uiso   1.00
C239   C     0.05331   0.05632   0.80119   0.00000  Uiso   1.00
C240   C     0.83041   0.96331   0.85706   0.00000  Uiso   1.00
C241   C     0.79310   0.96110   0.81715   0.00000  Uiso   1.00
C242   C     0.77920   0.90736   0.79766   0.00000  Uiso   1.00
C243   C     0.74331   0.83080   0.75276   0.00000  Uiso   1.00
C244   C     0.89300   0.92600   0.92037   0.00000  Uiso   1.00
C245   C     0.87114   0.96021   0.97119   0.00000  Uiso   1.00
C246   C     0.87250   0.94564   0.03113   0.00000  Uiso   1.00
C247   C     0.85040   0.98257   0.07069   0.00000  Uiso   1.00
C248   C     0.92625   0.96687   0.88823   0.00000  Uiso   1.00
C249   C     0.97395   0.95789   0.87841   0.00000  Uiso   1.00
C250   C     0.99824   0.00042   0.84812   0.00000  Uiso   1.00
C251   C     0.85305   0.91362   0.87680   0.00000  Uiso   1.00
C252   C     0.83921   0.85988   0.85736   0.00000  Uiso   1.00
C253   C     0.80189   0.85758   0.81743   0.00000  Uiso   1.00
H254   H     0.83369   0.05618   0.86866   0.00000  Uiso   1.00
H255   H     0.80887   0.08531   0.97563   0.00000  Uiso   1.00
H256   H     0.91030   0.09756   0.82293   0.00000  Uiso   1.00
H257   H     0.77558   0.99956   0.80188   0.00000  Uiso   1.00
H258   H     0.79135   0.09571   0.10293   0.00000  Uiso   1.00
H259   H     0.00522   0.12153   0.78093   0.00000  Uiso   1.00
H260   H     0.72115   0.91488   0.73655   0.00000  Uiso   1.00
H261   H     0.91062   0.88731   0.93574   0.00000  Uiso   1.00
H262   H     0.89003   0.90718   0.04639   0.00000  Uiso   1.00
H263   H     0.99146   0.91943   0.89369   0.00000  Uiso   1.00
H264   H     0.85674   0.82143   0.87264   0.00000  Uiso   1.00
H265   H     0.85723   0.95114   0.16037   0.00000  Uiso   1.00
H266   H     0.07109   0.97695   0.83836   0.00000  Uiso   1.00
H267   H     0.78702   0.77030   0.79398   0.00000  Uiso   1.00
O268   O     0.80937   0.03955   0.20323   0.00000  Uiso   1.00
O269   O     0.08995   0.07342   0.78076   0.00000  Uiso   1.00
O270   O     0.71725   0.80230   0.72255   0.00000  Uiso   1.00
N271   N     0.80968   0.05895   0.10126   0.00000  Uiso   1.00
N272   N     0.00963   0.08310   0.80022   0.00000  Uiso   1.00
N273   N     0.74405   0.88990   0.75871   0.00000  Uiso   1.00
N274   N     0.84512   0.98116   0.13217   0.00000  Uiso   1.00
N275   N     0.04508   0.00530   0.83112   0.00000  Uiso   1.00
N276   N     0.77950   0.81210   0.78962   0.00000  Uiso   1.00
C277   C     0.14869   0.48251   0.88403   0.00000  Uiso   1.00
C278   C     0.15151   0.49010   0.95145   0.00000  Uiso   1.00
C279   C     0.17362   0.45314   0.99092   0.00000  Uiso   1.00
C280   C     0.17228   0.46765   0.05091   0.00000  Uiso   1.00
C281   C     0.18008   0.47186   0.15260   0.00000  Uiso   1.00
C282   C     0.09639   0.48344   0.86849   0.00000  Uiso   1.00
C283   C     0.07217   0.44089   0.83820   0.00000  Uiso   1.00
C284   C     0.02444   0.44979   0.82834   0.00000  Uiso   1.00
C285   C     0.94669   0.44368   0.80119   0.00000  Uiso   1.00
C286   C     0.16959   0.53669   0.85706   0.00000  Uiso   1.00
C287   C     0.20690   0.53890   0.81715   0.00000  Uiso   1.00
C288   C     0.22080   0.59264   0.79766   0.00000  Uiso   1.00
C289   C     0.25669   0.66920   0.75276   0.00000  Uiso   1.00
C290   C     0.10700   0.57400   0.92037   0.00000  Uiso   1.00
C291   C     0.12886   0.53979   0.97119   0.00000  Uiso   1.00
C292   C     0.12750   0.55436   0.03113   0.00000  Uiso   1.00
C293   C     0.14960   0.51743   0.07069   0.00000  Uiso   1.00
C294   C     0.07375   0.53313   0.88823   0.00000  Uiso   1.00
C295   C     0.02605   0.54211   0.87841   0.00000  Uiso   1.00
C296   C     0.00176   0.49958   0.84812   0.00000  Uiso   1.00
C297   C     0.14695   0.58638   0.87680   0.00000  Uiso   1.00
C298   C     0.16079   0.64012   0.85736   0.00000  Uiso   1.00
C299   C     0.19811   0.64242   0.81743   0.00000  Uiso   1.00
H300   H     0.16631   0.44382   0.86866   0.00000  Uiso   1.00
H301   H     0.19113   0.41469   0.97563   0.00000  Uiso   1.00
H302   H     0.08970   0.40244   0.82293   0.00000  Uiso   1.00
H303   H     0.22442   0.50044   0.80188   0.00000  Uiso   1.00
H304   H     0.20865   0.40429   0.10293   0.00000  Uiso   1.00
H305   H     0.99478   0.37847   0.78093   0.00000  Uiso   1.00
H306   H     0.27885   0.58512   0.73655   0.00000  Uiso   1.00
H307   H     0.08938   0.61269   0.93574   0.00000  Uiso   1.00
H308   H     0.10997   0.59282   0.04639   0.00000  Uiso   1.00
H309   H     0.00854   0.58057   0.89369   0.00000  Uiso   1.00
H310   H     0.14326   0.67857   0.87264   0.00000  Uiso   1.00
H311   H     0.14277   0.54886   0.16037   0.00000  Uiso   1.00
H312   H     0.92891   0.52305   0.83836   0.00000  Uiso   1.00
H313   H     0.21298   0.72970   0.79398   0.00000  Uiso   1.00
O314   O     0.19063   0.46045   0.20323   0.00000  Uiso   1.00
O315   O     0.91005   0.42658   0.78076   0.00000  Uiso   1.00
O316   O     0.28275   0.69770   0.72255   0.00000  Uiso   1.00
N317   N     0.19032   0.44105   0.10126   0.00000  Uiso   1.00
N318   N     0.99037   0.41690   0.80022   0.00000  Uiso   1.00
N319   N     0.25595   0.61010   0.75871   0.00000  Uiso   1.00
N320   N     0.15488   0.51884   0.13217   0.00000  Uiso   1.00
N321   N     0.95492   0.49470   0.83112   0.00000  Uiso   1.00
N322   N     0.22050   0.68790   0.78962   0.00000  Uiso   1.00
C323   C     0.64869   0.98251   0.38403   0.00000  Uiso   1.00
C324   C     0.65151   0.99010   0.45145   0.00000  Uiso   1.00
C325   C     0.67362   0.95314   0.49092   0.00000  Uiso   1.00
C326   C     0.67228   0.96765   0.55091   0.00000  Uiso   1.00
C327   C     0.68008   0.97186   0.65260   0.00000  Uiso   1.00
C328   C     0.59639   0.98344   0.36849   0.00000  Uiso   1.00
C329   C     0.57217   0.94089   0.33820   0.00000  Uiso   1.00
C330   C     0.52444   0.94979   0.32834   0.00000  Uiso   1.00
C331   C     0.44669   0.94368   0.30119   0.00000  Uiso   1.00
C332   C     0.66959   0.03669   0.35706   0.00000  Uiso   1.00
C333   C     0.70690   0.03890   0.31715   0.00000  Uiso   1.00
C334   C     0.72080   0.09264   0.29766   0.00000  Uiso   1.00
C335   C     0.75669   0.16920   0.25276   0.00000  Uiso   1.00
C336   C     0.60700   0.07400   0.42037   0.00000  Uiso   1.00
C337   C     0.62886   0.03979   0.47119   0.00000  Uiso   1.00
C338   C     0.62750   0.05436   0.53113   0.00000  Uiso   1.00
C339   C     0.64960   0.01743   0.57069   0.00000  Uiso   1.00
C340   C     0.57375   0.03313   0.38823   0.00000  Uiso   1.00
C341   C     0.52605   0.04211   0.37841   0.00000  Uiso   1.00
C342   C     0.50176   0.99958   0.34812   0.00000  Uiso   1.00
C343   C     0.64695   0.08638   0.37680   0.00000  Uiso   1.00
C344   C     0.66079   0.14012   0.35736   0.00000  Uiso   1.00
C345   C     0.69811   0.14242   0.31743   0.00000  Uiso   1.00
H346   H     0.66631   0.94382   0.36866   0.00000  Uiso   1.00
H347   H     0.69113   0.91469   0.47563   0.00000  Uiso   1.00
H348   H     0.58970   0.90244   0.32293   0.00000  Uiso   1.00
H349   H     0.72442   0.00044   0.30188   0.00000  Uiso   1.00
H350   H     0.70865   0.90429   0.60293   0.00000  Uiso   1.00
H351   H     0.49478   0.87847   0.28093   0.00000  Uiso   1.00
H352   H     0.77885   0.08512   0.23655   0.00000  Uiso   1.00
H353   H     0.58938   0.11269   0.43574   0.00000  Uiso   1.00
H354   H     0.60997   0.09282   0.54639   0.00000  Uiso   1.00
H355   H     0.50854   0.08057   0.39369   0.00000  Uiso   1.00
H356   H     0.64326   0.17857   0.37264   0.00000  Uiso   1.00
H357   H     0.64277   0.04886   0.66037   0.00000  Uiso   1.00
H358   H     0.42891   0.02305   0.33836   0.00000  Uiso   1.00
H359   H     0.71298   0.22970   0.29398   0.00000  Uiso   1.00
O360   O     0.69063   0.96045   0.70323   0.00000  Uiso   1.00
O361   O     0.41005   0.92658   0.28076   0.00000  Uiso   1.00
O362   O     0.78275   0.19770   0.22255   0.00000  Uiso   1.00
N363   N     0.69032   0.94105   0.60126   0.00000  Uiso   1.00
N364   N     0.49037   0.91690   0.30022   0.00000  Uiso   1.00
N365   N     0.75595   0.11010   0.25871   0.00000  Uiso   1.00
N366   N     0.65488   0.01884   0.63217   0.00000  Uiso   1.00
N367   N     0.45492   0.99470   0.33112   0.00000  Uiso   1.00
N368   N     0.72050   0.18790   0.28962   0.00000  Uiso   1.00
C369   C     0.35131   0.98251   0.88403   0.00000  Uiso   1.00
C370   C     0.34849   0.99010   0.95145   0.00000  Uiso   1.00
C371   C     0.32638   0.95314   0.99092   0.00000  Uiso   1.00
C372   C     0.32772   0.96765   0.05091   0.00000  Uiso   1.00
C373   C     0.31992   0.97186   0.15260   0.00000  Uiso   1.00
C374   C     0.40361   0.98344   0.86849   0.00000  Uiso   1.00
C375   C     0.42783   0.94089   0.83820   0.00000  Uiso   1.00
C376   C     0.47556   0.94979   0.82834   0.00000  Uiso   1.00
C377   C     0.55331   0.94368   0.80119   0.00000  Uiso   1.00
C378   C     0.33041   0.03669   0.85706   0.00000  Uiso   1.00
C379   C     0.29310   0.03890   0.81715   0.00000  Uiso   1.00
C380   C     0.27920   0.09264   0.79766   0.00000  Uiso   1.00
C381   C     0.24331   0.16920   0.75276   0.00000  Uiso   1.00
C382   C     0.39300   0.07400   0.92037   0.00000  Uiso   1.00
C383   C     0.37114   0.03979   0.97119   0.00000  Uiso   1.00
C384   C     0.37250   0.05436   0.03113   0.00000  Uiso   1.00
C385   C     0.35040   0.01743   0.07069   0.00000  Uiso   1.00
C386   C     0.42625   0.03313   0.88823   0.00000  Uiso   1.00
C387   C     0.47395   0.04211   0.87841   0.00000  Uiso   1.00
C388   C     0.49824   0.99958   0.84812   0.00000  Uiso   1.00
C389   C     0.35305   0.08638   0.87680   0.00000  Uiso   1.00
C390   C     0.33921   0.14012   0.85736   0.00000  Uiso   1.00
C391   C     0.30189   0.14242   0.81743   0.00000  Uiso   1.00
H392   H     0.33369   0.94382   0.86866   0.00000  Uiso   1.00
H393   H     0.30887   0.91469   0.97563   0.00000  Uiso   1.00
H394   H     0.41030   0.90244   0.82293   0.00000  Uiso   1.00
H395   H     0.27558   0.00044   0.80188   0.00000  Uiso   1.00
H396   H     0.29135   0.90429   0.10293   0.00000  Uiso   1.00
H397   H     0.50522   0.87847   0.78093   0.00000  Uiso   1.00
H398   H     0.22115   0.08512   0.73655   0.00000  Uiso   1.00
H399   H     0.41062   0.11269   0.93574   0.00000  Uiso   1.00
H400   H     0.39003   0.09282   0.04639   0.00000  Uiso   1.00
H401   H     0.49146   0.08057   0.89369   0.00000  Uiso   1.00
H402   H     0.35674   0.17857   0.87264   0.00000  Uiso   1.00
H403   H     0.35723   0.04886   0.16037   0.00000  Uiso   1.00
H404   H     0.57109   0.02305   0.83836   0.00000  Uiso   1.00
H405   H     0.28702   0.22970   0.79398   0.00000  Uiso   1.00
O406   O     0.30937   0.96045   0.20323   0.00000  Uiso   1.00
O407   O     0.58995   0.92658   0.78076   0.00000  Uiso   1.00
O408   O     0.21725   0.19770   0.72255   0.00000  Uiso   1.00
N409   N     0.30968   0.94105   0.10126   0.00000  Uiso   1.00
N410   N     0.50963   0.91690   0.80022   0.00000  Uiso   1.00
N411   N     0.24405   0.11010   0.75871   0.00000  Uiso   1.00
N412   N     0.34512   0.01884   0.13217   0.00000  Uiso   1.00
N413   N     0.54508   0.99470   0.83112   0.00000  Uiso   1.00
N414   N     0.27950   0.18790   0.78962   0.00000  Uiso   1.00
C415   C     0.85131   0.48251   0.38403   0.00000  Uiso   1.00
C416   C     0.84849   0.49010   0.45145   0.00000  Uiso   1.00
C417   C     0.82638   0.45314   0.49092   0.00000  Uiso   1.00
C418   C     0.82772   0.46765   0.55091   0.00000  Uiso   1.00
C419   C     0.81992   0.47186   0.65260   0.00000  Uiso   1.00
C420   C     0.90361   0.48344   0.36849   0.00000  Uiso   1.00
C421   C     0.92783   0.44089   0.33820   0.00000  Uiso   1.00
C422   C     0.97556   0.44979   0.32834   0.00000  Uiso   1.00
C423   C     0.05331   0.44368   0.30119   0.00000  Uiso   1.00
C424   C     0.83041   0.53669   0.35706   0.00000  Uiso   1.00
C425   C     0.79310   0.53890   0.31715   0.00000  Uiso   1.00
C426   C     0.77920   0.59264   0.29766   0.00000  Uiso   1.00
C427   C     0.74331   0.66920   0.25276   0.00000  Uiso   1.00
C428   C     0.89300   0.57400   0.42037   0.00000  Uiso   1.00
C429   C     0.87114   0.53979   0.47119   0.00000  Uiso   1.00
C430   C     0.87250   0.55436   0.53113   0.00000  Uiso   1.00
C431   C     0.85040   0.51743   0.57069   0.00000  Uiso   1.00
C432   C     0.92625   0.53313   0.38823   0.00000  Uiso   1.00
C433   C     0.97395   0.54211   0.37841   0.00000  Uiso   1.00
C434   C     0.99824   0.49958   0.34812   0.00000  Uiso   1.00
C435   C     0.85305   0.58638   0.37680   0.00000  Uiso   1.00
C436   C     0.83921   0.64012   0.35736   0.00000  Uiso   1.00
C437   C     0.80189   0.64242   0.31743   0.00000  Uiso   1.00
H438   H     0.83369   0.44382   0.36866   0.00000  Uiso   1.00
H439   H     0.80887   0.41469   0.47563   0.00000  Uiso   1.00
H440   H     0.91030   0.40244   0.32293   0.00000  Uiso   1.00
H441   H     0.77558   0.50044   0.30188   0.00000  Uiso   1.00
H442   H     0.79135   0.40429   0.60293   0.00000  Uiso   1.00
H443   H     0.00522   0.37847   0.28093   0.00000  Uiso   1.00
H444   H     0.72115   0.58512   0.23655   0.00000  Uiso   1.00
H445   H     0.91062   0.61269   0.43574   0.00000  Uiso   1.00
H446   H     0.89003   0.59282   0.54639   0.00000  Uiso   1.00
H447   H     0.99146   0.58057   0.39369   0.00000  Uiso   1.00
H448   H     0.85674   0.67857   0.37264   0.00000  Uiso   1.00
H449   H     0.85723   0.54886   0.66037   0.00000  Uiso   1.00
H450   H     0.07109   0.52305   0.33836   0.00000  Uiso   1.00
H451   H     0.78702   0.72970   0.29398   0.00000  Uiso   1.00
O452   O     0.80937   0.46045   0.70323   0.00000  Uiso   1.00
O453   O     0.08995   0.42658   0.28076   0.00000  Uiso   1.00
O454   O     0.71725   0.69770   0.22255   0.00000  Uiso   1.00
N455   N     0.80968   0.44105   0.60126   0.00000  Uiso   1.00
N456   N     0.00963   0.41690   0.30022   0.00000  Uiso   1.00
N457   N     0.74405   0.61010   0.25871   0.00000  Uiso   1.00
N458   N     0.84512   0.51884   0.63217   0.00000  Uiso   1.00
N459   N     0.04508   0.49470   0.33112   0.00000  Uiso   1.00
N460   N     0.77950   0.68790   0.28962   0.00000  Uiso   1.00
C461   C     0.14869   0.01749   0.38403   0.00000  Uiso   1.00
C462   C     0.15151   0.00990   0.45145   0.00000  Uiso   1.00
C463   C     0.17362   0.04686   0.49092   0.00000  Uiso   1.00
C464   C     0.17228   0.03235   0.55091   0.00000  Uiso   1.00
C465   C     0.18008   0.02814   0.65260   0.00000  Uiso   1.00
C466   C     0.09639   0.01656   0.36849   0.00000  Uiso   1.00
C467   C     0.07217   0.05911   0.33820   0.00000  Uiso   1.00
C468   C     0.02444   0.05021   0.32834   0.00000  Uiso   1.00
C469   C     0.94669   0.05632   0.30119   0.00000  Uiso   1.00
C470   C     0.16959   0.96331   0.35706   0.00000  Uiso   1.00
C471   C     0.20690   0.96110   0.31715   0.00000  Uiso   1.00
C472   C     0.22080   0.90736   0.29766   0.00000  Uiso   1.00
C473   C     0.25669   0.83080   0.25276   0.00000  Uiso   1.00
C474   C     0.10700   0.92600   0.42037   0.00000  Uiso   1.00
C475   C     0.12886   0.96021   0.47119   0.00000  Uiso   1.00
C476   C     0.12750   0.94564   0.53113   0.00000  Uiso   1.00
C477   C     0.14960   0.98257   0.57069   0.00000  Uiso   1.00
C478   C     0.07375   0.96687   0.38823   0.00000  Uiso   1.00
C479   C     0.02605   0.95789   0.37841   0.00000  Uiso   1.00
C480   C     0.00176   0.00042   0.34812   0.00000  Uiso   1.00
C481   C     0.14695   0.91362   0.37680   0.00000  Uiso   1.00
C482   C     0.16079   0.85988   0.35736   0.00000  Uiso   1.00
C483   C     0.19811   0.85758   0.31743   0.00000  Uiso   1.00
H484   H     0.16631   0.05618   0.36866   0.00000  Uiso   1.00
H485   H     0.19113   0.08531   0.47563   0.00000  Uiso   1.00
H486   H     0.08970   0.09756   0.32293   0.00000  Uiso   1.00
H487   H     0.22442   0.99956   0.30188   0.00000  Uiso   1.00
H488   H     0.20865   0.09571   0.60293   0.00000  Uiso   1.00
H489   H     0.99478   0.12153   0.28093   0.00000  Uiso   1.00
H490   H     0.27885   0.91488   0.23655   0.00000  Uiso   1.00
H491   H     0.08938   0.88731   0.43574   0.00000  Uiso   1.00
H492   H     0.10997   0.90718   0.54639   0.00000  Uiso   1.00
H493   H     0.00854   0.91943   0.39369   0.00000  Uiso   1.00
H494   H     0.14326   0.82143   0.37264   0.00000  Uiso   1.00
H495   H     0.14277   0.95114   0.66037   0.00000  Uiso   1.00
H496   H     0.92891   0.97695   0.33836   0.00000  Uiso   1.00
H497   H     0.21298   0.77030   0.29398   0.00000  Uiso   1.00
O498   O     0.19063   0.03955   0.70323   0.00000  Uiso   1.00
O499   O     0.91005   0.07342   0.28076   0.00000  Uiso   1.00
O500   O     0.28275   0.80230   0.22255   0.00000  Uiso   1.00
N501   N     0.19032   0.05895   0.60126   0.00000  Uiso   1.00
N502   N     0.99037   0.08310   0.30022   0.00000  Uiso   1.00
N503   N     0.25595   0.88990   0.25871   0.00000  Uiso   1.00
N504   N     0.15488   0.98116   0.63217   0.00000  Uiso   1.00
N505   N     0.95492   0.00530   0.33112   0.00000  Uiso   1.00
N506   N     0.22050   0.81210   0.28962   0.00000  Uiso   1.00
C507   C     0.64869   0.51749   0.88403   0.00000  Uiso   1.00
C508   C     0.65151   0.50990   0.95145   0.00000  Uiso   1.00
C509   C     0.67362   0.54686   0.99092   0.00000  Uiso   1.00
C510   C     0.67228   0.53235   0.05091   0.00000  Uiso   1.00
C511   C     0.68008   0.52814   0.15260   0.00000  Uiso   1.00
C512   C     0.59639   0.51656   0.86849   0.00000  Uiso   1.00
C513   C     0.57217   0.55911   0.83820   0.00000  Uiso   1.00
C514   C     0.52444   0.55021   0.82834   0.00000  Uiso   1.00
C515   C     0.44669   0.55632   0.80119   0.00000  Uiso   1.00
C516   C     0.66959   0.46331   0.85706   0.00000  Uiso   1.00
C517   C     0.70690   0.46110   0.81715   0.00000  Uiso   1.00
C518   C     0.72080   0.40736   0.79766   0.00000  Uiso   1.00
C519   C     0.75669   0.33080   0.75276   0.00000  Uiso   1.00
C520   C     0.60700   0.42600   0.92037   0.00000  Uiso   1.00
C521   C     0.62886   0.46021   0.97119   0.00000  Uiso   1.00
C522   C     0.62750   0.44564   0.03113   0.00000  Uiso   1.00
C523   C     0.64960   0.48257   0.07069   0.00000  Uiso   1.00
C524   C     0.57375   0.46687   0.88823   0.00000  Uiso   1.00
C525   C     0.52605   0.45789   0.87841   0.00000  Uiso   1.00
C526   C     0.50176   0.50042   0.84812   0.00000  Uiso   1.00
C527   C     0.64695   0.41362   0.87680   0.00000  Uiso   1.00
C528   C     0.66079   0.35988   0.85736   0.00000  Uiso   1.00
C529   C     0.69811   0.35758   0.81743   0.00000  Uiso   1.00
H530   H     0.66631   0.55618   0.86866   0.00000  Uiso   1.00
H531   H     0.69113   0.58531   0.97563   0.00000  Uiso   1.00
H532   H     0.58970   0.59756   0.82293   0.00000  Uiso   1.00
H533   H     0.72442   0.49956   0.80188   0.00000  Uiso   1.00
H534   H     0.70865   0.59571   0.10293   0.00000  Uiso   1.00
H535   H     0.49478   0.62153   0.78093   0.00000  Uiso   1.00
H536   H     0.77885   0.41488   0.73655   0.00000  Uiso   1.00
H537   H     0.58938   0.38731   0.93574   0.00000  Uiso   1.00
H538   H     0.60997   0.40718   0.04639   0.00000  Uiso   1.00
H539   H     0.50854   0.41943   0.89369   0.00000  Uiso   1.00
H540   H     0.64326   0.32143   0.87264   0.00000  Uiso   1.00
H541   H     0.64277   0.45114   0.16037   0.00000  Uiso   1.00
H542   H     0.42891   0.47695   0.83836   0.00000  Uiso   1.00
H543   H     0.71298   0.27030   0.79398   0.00000  Uiso   1.00
O544   O     0.69063   0.53955   0.20323   0.00000  Uiso   1.00
O545   O     0.41005   0.57342   0.78076   0.00000  Uiso   1.00
O546   O     0.78275   0.30230   0.72255   0.00000  Uiso   1.00
N547   N     0.69032   0.55895   0.10126   0.00000  Uiso   1.00
N548   N     0.49037   0.58310   0.80022   0.00000  Uiso   1.00
N549   N     0.75595   0.38990   0.75871   0.00000  Uiso   1.00
N550   N     0.65488   0.48116   0.13217   0.00000  Uiso   1.00
N551   N     0.45492   0.50530   0.83112   0.00000  Uiso   1.00
N552   N     0.72050   0.31210   0.78962   0.00000  Uiso   1.00
C553   C     0.64869   0.48251   0.61597   0.00000  Uiso   1.00
C554   C     0.65151   0.49010   0.54855   0.00000  Uiso   1.00
C555   C     0.67362   0.45314   0.50908   0.00000  Uiso   1.00
C556   C     0.67228   0.46765   0.44909   0.00000  Uiso   1.00
C557   C     0.68008   0.47186   0.34740   0.00000  Uiso   1.00
C558   C     0.59639   0.48344   0.63151   0.00000  Uiso   1.00
C559   C     0.57217   0.44089   0.66180   0.00000  Uiso   1.00
C560   C     0.52444   0.44979   0.67166   0.00000  Uiso   1.00
C561   C     0.44669   0.44368   0.69881   0.00000  Uiso   1.00
C562   C     0.66959   0.53669   0.64294   0.00000  Uiso   1.00
C563   C     0.70690   0.53890   0.68285   0.00000  Uiso   1.00
C564   C     0.72080   0.59264   0.70234   0.00000  Uiso   1.00
C565   C     0.75669   0.66920   0.74724   0.00000  Uiso   1.00
C566   C     0.60700   0.57400   0.57963   0.00000  Uiso   1.00
C567   C     0.62886   0.53979   0.52881   0.00000  Uiso   1.00
C568   C     0.62750   0.55436   0.46887   0.00000  Uiso   1.00
C569   C     0.64960   0.51743   0.42931   0.00000  Uiso   1.00
C570   C     0.57375   0.53313   0.61177   0.00000  Uiso   1.00
C571   C     0.52605   0.54211   0.62159   0.00000  Uiso   1.00
C572   C     0.50176   0.49958   0.65188   0.00000  Uiso   1.00
C573   C     0.64695   0.58638   0.62320   0.00000  Uiso   1.00
C574   C     0.66079   0.64012   0.64264   0.00000  Uiso   1.00
C575   C     0.69811   0.64242   0.68257   0.00000  Uiso   1.00
H576   H     0.66631   0.44382   0.63134   0.00000  Uiso   1.00
H577   H     0.69113   0.41469   0.52437   0.00000  Uiso   1.00
H578   H     0.58970   0.40244   0.67707   0.00000  Uiso   1.00
H579   H     0.72442   0.50044   0.69812   0.00000  Uiso   1.00
H580   H     0.70865   0.40429   0.39707   0.00000  Uiso   1.00
H581   H     0.49478   0.37847   0.71907   0.00000  Uiso   1.00
H582   H     0.77885   0.58512   0.76345   0.00000  Uiso   1.00
H583   H     0.58938   0.61269   0.56426   0.00000  Uiso   1.00
H584   H     0.60997   0.59282   0.45361   0.00000  Uiso   1.00
H585   H     0.50854   0.58057   0.60631   0.00000  Uiso   1.00
H586   H     0.64326   0.67857   0.62736   0.00000  Uiso   1.00
H587   H     0.64277   0.54886   0.33963   0.00000  Uiso   1.00
H588   H     0.42891   0.52305   0.66164   0.00000  Uiso   1.00
H589   H     0.71298   0.72970   0.70602   0.00000  Uiso   1.00
O590   O     0.69063   0.46045   0.29677   0.00000  Uiso   1.00
O591   O     0.41005   0.42658   0.71924   0.00000  Uiso   1.00
O592   O     0.78275   0.69770   0.77745   0.00000  Uiso   1.00
N593   N     0.69032   0.44105   0.39874   0.00000  Uiso   1.00
N594   N     0.49037   0.41690   0.69978   0.00000  Uiso   1.00
N595   N     0.75595   0.61010   0.74129   0.00000  Uiso   1.00
N596   N     0.65488   0.51884   0.36783   0.00000  Uiso   1.00
N597   N     0.45492   0.49470   0.66888   0.00000  Uiso   1.00
N598   N     0.72050   0.68790   0.71038   0.00000  Uiso   1.00
C599   C     0.14869   0.98251   0.11597   0.00000  Uiso   1.00
C600   C     0.15151   0.99010   0.04855   0.00000  Uiso   1.00
C601   C     0.17362   0.95314   0.00908   0.00000  Uiso   1.00
C602   C     0.17228   0.96765   0.94909   0.00000  Uiso   1.00
C603   C     0.18008   0.97186   0.84740   0.00000  Uiso   1.00
C604   C     0.09639   0.98344   0.13151   0.00000  Uiso   1.00
C605   C     0.07217   0.94089   0.16180   0.00000  Uiso   1.00
C606   C     0.02444   0.94979   0.17166   0.00000  Uiso   1.00
C607   C     0.94669   0.94368   0.19881   0.00000  Uiso   1.00
C608   C     0.16959   0.03669   0.14294   0.00000  Uiso   1.00
C609   C     0.20690   0.03890   0.18285   0.00000  Uiso   1.00
C610   C     0.22080   0.09264   0.20234   0.00000  Uiso   1.00
C611   C     0.25669   0.16920   0.24724   0.00000  Uiso   1.00
C612   C     0.10700   0.07400   0.07963   0.00000  Uiso   1.00
C613   C     0.12886   0.03979   0.02881   0.00000  Uiso   1.00
C614   C     0.12750   0.05436   0.96887   0.00000  Uiso   1.00
C615   C     0.14960   0.01743   0.92931   0.00000  Uiso   1.00
C616   C     0.07375   0.03313   0.11177   0.00000  Uiso   1.00
C617   C     0.02605   0.04211   0.12159   0.00000  Uiso   1.00
C618   C     0.00176   0.99958   0.15188   0.00000  Uiso   1.00
C619   C     0.14695   0.08638   0.12320   0.00000  Uiso   1.00
C620   C     0.16079   0.14012   0.14264   0.00000  Uiso   1.00
C621   C     0.19811   0.14242   0.18257   0.00000  Uiso   1.00
H622   H     0.16631   0.94382   0.13134   0.00000  Uiso   1.00
H623   H     0.19113   0.91469   0.02437   0.00000  Uiso   1.00
H624   H     0.08970   0.90244   0.17707   0.00000  Uiso   1.00
H625   H     0.22442   0.00044   0.19812   0.00000  Uiso   1.00
H626   H     0.20865   0.90429   0.89707   0.00000  Uiso   1.00
H627   H     0.99478   0.87847   0.21907   0.00000  Uiso   1.00
H628   H     0.27885   0.08512   0.26345   0.00000  Uiso   1.00
H629   H     0.08938   0.11269   0.06426   0.00000  Uiso   1.00
H630   H     0.10997   0.09282   0.95361   0.00000  Uiso   1.00
H631   H     0.00854   0.08057   0.10631   0.00000  Uiso   1.00
H632   H     0.14326   0.17857   0.12736   0.00000  Uiso   1.00
H633   H     0.14277   0.04886   0.83963   0.00000  Uiso   1.00
H634   H     0.92891   0.02305   0.16164   0.00000  Uiso   1.00
H635   H     0.21298   0.22970   0.20602   0.00000  Uiso   1.00
O636   O     0.19063   0.96045   0.79677   0.00000  Uiso   1.00
O637   O     0.91005   0.92658   0.21924   0.00000  Uiso   1.00
O638   O     0.28275   0.19770   0.27745   0.00000  Uiso   1.00
N639   N     0.19032   0.94105   0.89874   0.00000  Uiso   1.00
N640   N     0.99037   0.91690   0.19978   0.00000  Uiso   1.00
N641   N     0.25595   0.11010   0.24129   0.00000  Uiso   1.00
N642   N     0.15488   0.01884   0.86783   0.00000  Uiso   1.00
N643   N     0.95492   0.99470   0.16888   0.00000  Uiso   1.00
N644   N     0.22050   0.18790   0.21038   0.00000  Uiso   1.00
C645   C     0.85131   0.51749   0.11597   0.00000  Uiso   1.00
C646   C     0.84849   0.50990   0.04855   0.00000  Uiso   1.00
C647   C     0.82638   0.54686   0.00908   0.00000  Uiso   1.00
C648   C     0.82772   0.53235   0.94909   0.00000  Uiso   1.00
C649   C     0.81992   0.52814   0.84740   0.00000  Uiso   1.00
C650   C     0.90361   0.51656   0.13151   0.00000  Uiso   1.00
C651   C     0.92783   0.55911   0.16180   0.00000  Uiso   1.00
C652   C     0.97556   0.55021   0.17166   0.00000  Uiso   1.00
C653   C     0.05331   0.55632   0.19881   0.00000  Uiso   1.00
C654   C     0.83041   0.46331   0.14294   0.00000  Uiso   1.00
C655   C     0.79310   0.46110   0.18285   0.00000  Uiso   1.00
C656   C     0.77920   0.40736   0.20234   0.00000  Uiso   1.00
C657   C     0.74331   0.33080   0.24724   0.00000  Uiso   1.00
C658   C     0.89300   0.42600   0.07963   0.00000  Uiso   1.00
C659   C     0.87114   0.46021   0.02881   0.00000  Uiso   1.00
C660   C     0.87250   0.44564   0.96887   0.00000  Uiso   1.00
C661   C     0.85040   0.48257   0.92931   0.00000  Uiso   1.00
C662   C     0.92625   0.46687   0.11177   0.00000  Uiso   1.00
C663   C     0.97395   0.45789   0.12159   0.00000  Uiso   1.00
C664   C     0.99824   0.50042   0.15188   0.00000  Uiso   1.00
C665   C     0.85305   0.41362   0.12320   0.00000  Uiso   1.00
C666   C     0.83921   0.35988   0.14264   0.00000  Uiso   1.00
C667   C     0.80189   0.35758   0.18257   0.00000  Uiso   1.00
H668   H     0.83369   0.55618   0.13134   0.00000  Uiso   1.00
H669   H     0.80887   0.58531   0.02437   0.00000  Uiso   1.00
H670   H     0.91030   0.59756   0.17707   0.00000  Uiso   1.00
H671   H     0.77558   0.49956   0.19812   0.00000  Uiso   1.00
H672   H     0.79135   0.59571   0.89707   0.00000  Uiso   1.00
H673   H     0.00522   0.62153   0.21907   0.00000  Uiso   1.00
H674   H     0.72115   0.41488   0.26345   0.00000  Uiso   1.00
H675   H     0.91062   0.38731   0.06426   0.00000  Uiso   1.00
H676   H     0.89003   0.40718   0.95361   0.00000  Uiso   1.00
H677   H     0.99146   0.41943   0.10631   0.00000  Uiso   1.00
H678   H     0.85674   0.32143   0.12736   0.00000  Uiso   1.00
H679   H     0.85723   0.45114   0.83963   0.00000  Uiso   1.00
H680   H     0.07109   0.47695   0.16164   0.00000  Uiso   1.00
H681   H     0.78702   0.27030   0.20602   0.00000  Uiso   1.00
O682   O     0.80937   0.53955   0.79677   0.00000  Uiso   1.00
O683   O     0.08995   0.57342   0.21924   0.00000  Uiso   1.00
O684   O     0.71725   0.30230   0.27745   0.00000  Uiso   1.00
N685   N     0.80968   0.55895   0.89874   0.00000  Uiso   1.00
N686   N     0.00963   0.58310   0.19978   0.00000  Uiso   1.00
N687   N     0.74405   0.38990   0.24129   0.00000  Uiso   1.00
N688   N     0.84512   0.48116   0.86783   0.00000  Uiso   1.00
N689   N     0.04508   0.50530   0.16888   0.00000  Uiso   1.00
N690   N     0.77950   0.31210   0.21038   0.00000  Uiso   1.00
C691   C     0.35131   0.01749   0.61597   0.00000  Uiso   1.00
C692   C     0.34849   0.00990   0.54855   0.00000  Uiso   1.00
C693   C     0.32638   0.04686   0.50908   0.00000  Uiso   1.00
C694   C     0.32772   0.03235   0.44909   0.00000  Uiso   1.00
C695   C     0.31992   0.02814   0.34740   0.00000  Uiso   1.00
C696   C     0.40361   0.01656   0.63151   0.00000  Uiso   1.00
C697   C     0.42783   0.05911   0.66180   0.00000  Uiso   1.00
C698   C     0.47556   0.05021   0.67166   0.00000  Uiso   1.00
C699   C     0.55331   0.05632   0.69881   0.00000  Uiso   1.00
C700   C     0.33041   0.96331   0.64294   0.00000  Uiso   1.00
C701   C     0.29310   0.96110   0.68285   0.00000  Uiso   1.00
C702   C     0.27920   0.90736   0.70234   0.00000  Uiso   1.00
C703   C     0.24331   0.83080   0.74724   0.00000  Uiso   1.00
C704   C     0.39300   0.92600   0.57963   0.00000  Uiso   1.00
C705   C     0.37114   0.96021   0.52881   0.00000  Uiso   1.00
C706   C     0.37250   0.94564   0.46887   0.00000  Uiso   1.00
C707   C     0.35040   0.98257   0.42931   0.00000  Uiso   1.00
C708   C     0.42625   0.96687   0.61177   0.00000  Uiso   1.00
C709   C     0.47395   0.95789   0.62159   0.00000  Uiso   1.00
C710   C     0.49824   0.00042   0.65188   0.00000  Uiso   1.00
C711   C     0.35305   0.91362   0.62320   0.00000  Uiso   1.00
C712   C     0.33921   0.85988   0.64264   0.00000  Uiso   1.00
C713   C     0.30189   0.85758   0.68257   0.00000  Uiso   1.00
H714   H     0.33369   0.05618   0.63134   0.00000  Uiso   1.00
H715   H     0.30887   0.08531   0.52437   0.00000  Uiso   1.00
H716   H     0.41030   0.09756   0.67707   0.00000  Uiso   1.00
H717   H     0.27558   0.99956   0.69812   0.00000  Uiso   1.00
H718   H     0.29135   0.09571   0.39707   0.00000  Uiso   1.00
H719   H     0.50522   0.12153   0.71907   0.00000  Uiso   1.00
H720   H     0.22115   0.91488   0.76345   0.00000  Uiso   1.00
H721   H     0.41062   0.88731   0.56426   0.00000  Uiso   1.00
H722   H     0.39003   0.90718   0.45361   0.00000  Uiso   1.00
H723   H     0.49146   0.91943   0.60631   0.00000  Uiso   1.00
H724   H     0.35674   0.82143   0.62736   0.00000  Uiso   1.00
H725   H     0.35723   0.95114   0.33963   0.00000  Uiso   1.00
H726   H     0.57109   0.97695   0.66164   0.00000  Uiso   1.00
H727   H     0.28702   0.77030   0.70602   0.00000  Uiso   1.00
O728   O     0.30937   0.03955   0.29677   0.00000  Uiso   1.00
O729   O     0.58995   0.07342   0.71924   0.00000  Uiso   1.00
O730   O     0.21725   0.80230   0.77745   0.00000  Uiso   1.00
N731   N     0.30968   0.05895   0.39874   0.00000  Uiso   1.00
N732   N     0.50963   0.08310   0.69978   0.00000  Uiso   1.00
N733   N     0.24405   0.88990   0.74129   0.00000  Uiso   1.00
N734   N     0.34512   0.98116   0.36783   0.00000  Uiso   1.00
N735   N     0.54508   0.00530   0.66888   0.00000  Uiso   1.00
N736   N     0.27950   0.81210   0.71038   0.00000  Uiso   1.00
