data_job_01498
_audit_creation_date              2018-12-19
_audit_creation_method            'Materials Studio'
_symmetry_space_group_name_H-M    'P1'
_symmetry_Int_Tables_number       1
_symmetry_cell_setting            triclinic
loop_
_symmetry_equiv_pos_as_xyz
  x,y,z
_cell_length_a                    19.6037
_cell_length_b                    19.6037
_cell_length_c                    26.5926
_cell_angle_alpha                 90.0000
_cell_angle_beta                  90.0000
_cell_angle_gamma                 90.0000
loop_
_atom_site_label
_atom_site_type_symbol
_atom_site_fract_x
_atom_site_fract_y
_atom_site_fract_z
_atom_site_U_iso_or_equiv
_atom_site_adp_type
_atom_site_occupancy
C1     C     0.56608   0.09633   0.46983   0.00000  Uiso   1.00
C2     C     0.60594   0.06248   0.51228   0.00000  Uiso   1.00
C3     C     0.59788   0.99574   0.52865   0.00000  Uiso   1.00
C4     C     0.63922   0.97442   0.56802   0.00000  Uiso   1.00
C5     C     0.69384   0.91519   0.63057   0.00000  Uiso   1.00
C6     C     0.53324   0.15969   0.49266   0.00000  Uiso   1.00
C7     C     0.46405   0.17469   0.49251   0.00000  Uiso   1.00
C8     C     0.44420   0.23521   0.51535   0.00000  Uiso   1.00
C9     C     0.38596   0.32692   0.54740   0.00000  Uiso   1.00
C10    C     0.61919   0.12220   0.43254   0.00000  Uiso   1.00
C11    C     0.62227   0.10570   0.38184   0.00000  Uiso   1.00
C12    C     0.67477   0.13468   0.35405   0.00000  Uiso   1.00
C13    C     0.74998   0.16819   0.29276   0.00000  Uiso   1.00
C14    C     0.65384   0.17714   0.51065   0.00000  Uiso   1.00
C15    C     0.65361   0.10637   0.53445   0.00000  Uiso   1.00
C16    C     0.69498   0.08514   0.57380   0.00000  Uiso   1.00
C17    C     0.68698   0.01839   0.59022   0.00000  Uiso   1.00
C18    C     0.58091   0.20358   0.51482   0.00000  Uiso   1.00
C19    C     0.56115   0.26409   0.53766   0.00000  Uiso   1.00
C20    C     0.49196   0.27918   0.53755   0.00000  Uiso   1.00
C21    C     0.66686   0.16609   0.45470   0.00000  Uiso   1.00
C22    C     0.71937   0.19510   0.42699   0.00000  Uiso   1.00
C23    C     0.72253   0.17865   0.37626   0.00000  Uiso   1.00
H24    H     0.52896   0.06217   0.45258   0.00000  Uiso   1.00
H25    H     0.56097   0.96179   0.51149   0.00000  Uiso   1.00
H26    H     0.42717   0.14072   0.47535   0.00000  Uiso   1.00
H27    H     0.58537   0.07174   0.36469   0.00000  Uiso   1.00
H28    H     0.61747   0.86988   0.58659   0.00000  Uiso   1.00
H29    H     0.33535   0.24716   0.51037   0.00000  Uiso   1.00
H30    H     0.66893   0.10170   0.27704   0.00000  Uiso   1.00
H31    H     0.69096   0.21131   0.52791   0.00000  Uiso   1.00
H32    H     0.73187   0.11912   0.59095   0.00000  Uiso   1.00
H33    H     0.59806   0.29805   0.55481   0.00000  Uiso   1.00
H34    H     0.75625   0.22906   0.44416   0.00000  Uiso   1.00
H35    H     0.75617   0.99757   0.65109   0.00000  Uiso   1.00
H36    H     0.47405   0.37486   0.57487   0.00000  Uiso   1.00
H37    H     0.80763   0.22940   0.34154   0.00000  Uiso   1.00
O38    O     0.71079   0.87040   0.65896   0.00000  Uiso   1.00
O39    O     0.34066   0.36538   0.55896   0.00000  Uiso   1.00
O40    O     0.77831   0.17454   0.25283   0.00000  Uiso   1.00
N41    N     0.64451   0.91258   0.59311   0.00000  Uiso   1.00
N42    N     0.38074   0.26531   0.52186   0.00000  Uiso   1.00
N43    N     0.69260   0.12933   0.30371   0.00000  Uiso   1.00
N44    N     0.71914   0.98129   0.62781   0.00000  Uiso   1.00
N45    N     0.45537   0.33402   0.55656   0.00000  Uiso   1.00
N46    N     0.76723   0.19804   0.33841   0.00000  Uiso   1.00
C47    C     0.06608   0.59633   0.96983   0.00000  Uiso   1.00
C48    C     0.10594   0.56248   0.01228   0.00000  Uiso   1.00
C49    C     0.09788   0.49574   0.02865   0.00000  Uiso   1.00
C50    C     0.13922   0.47442   0.06802   0.00000  Uiso   1.00
C51    C     0.19384   0.41519   0.13057   0.00000  Uiso   1.00
C52    C     0.03324   0.65969   0.99266   0.00000  Uiso   1.00
C53    C     0.96405   0.67469   0.99251   0.00000  Uiso   1.00
C54    C     0.94420   0.73521   0.01535   0.00000  Uiso   1.00
C55    C     0.88596   0.82692   0.04740   0.00000  Uiso   1.00
C56    C     0.11919   0.62220   0.93254   0.00000  Uiso   1.00
C57    C     0.12227   0.60570   0.88184   0.00000  Uiso   1.00
C58    C     0.17477   0.63468   0.85405   0.00000  Uiso   1.00
C59    C     0.24998   0.66819   0.79276   0.00000  Uiso   1.00
C60    C     0.15384   0.67714   0.01065   0.00000  Uiso   1.00
C61    C     0.15361   0.60637   0.03445   0.00000  Uiso   1.00
C62    C     0.19498   0.58514   0.07380   0.00000  Uiso   1.00
C63    C     0.18698   0.51839   0.09022   0.00000  Uiso   1.00
C64    C     0.08091   0.70358   0.01482   0.00000  Uiso   1.00
C65    C     0.06115   0.76409   0.03766   0.00000  Uiso   1.00
C66    C     0.99196   0.77918   0.03755   0.00000  Uiso   1.00
C67    C     0.16686   0.66609   0.95470   0.00000  Uiso   1.00
C68    C     0.21937   0.69510   0.92699   0.00000  Uiso   1.00
C69    C     0.22253   0.67865   0.87626   0.00000  Uiso   1.00
H70    H     0.02896   0.56217   0.95258   0.00000  Uiso   1.00
H71    H     0.06097   0.46179   0.01149   0.00000  Uiso   1.00
H72    H     0.92717   0.64072   0.97535   0.00000  Uiso   1.00
H73    H     0.08537   0.57174   0.86469   0.00000  Uiso   1.00
H74    H     0.11747   0.36988   0.08659   0.00000  Uiso   1.00
H75    H     0.83535   0.74716   0.01037   0.00000  Uiso   1.00
H76    H     0.16893   0.60170   0.77704   0.00000  Uiso   1.00
H77    H     0.19096   0.71131   0.02791   0.00000  Uiso   1.00
H78    H     0.23187   0.61912   0.09095   0.00000  Uiso   1.00
H79    H     0.09806   0.79805   0.05481   0.00000  Uiso   1.00
H80    H     0.25625   0.72906   0.94416   0.00000  Uiso   1.00
H81    H     0.25617   0.49757   0.15109   0.00000  Uiso   1.00
H82    H     0.97405   0.87486   0.07487   0.00000  Uiso   1.00
H83    H     0.30763   0.72940   0.84154   0.00000  Uiso   1.00
O84    O     0.21079   0.37040   0.15896   0.00000  Uiso   1.00
O85    O     0.84066   0.86538   0.05896   0.00000  Uiso   1.00
O86    O     0.27831   0.67454   0.75283   0.00000  Uiso   1.00
N87    N     0.14451   0.41258   0.09311   0.00000  Uiso   1.00
N88    N     0.88074   0.76531   0.02186   0.00000  Uiso   1.00
N89    N     0.19260   0.62933   0.80371   0.00000  Uiso   1.00
N90    N     0.21914   0.48129   0.12781   0.00000  Uiso   1.00
N91    N     0.95537   0.83402   0.05656   0.00000  Uiso   1.00
N92    N     0.26723   0.69804   0.83841   0.00000  Uiso   1.00
C93    C     0.93392   0.40367   0.96983   0.00000  Uiso   1.00
C94    C     0.89406   0.43752   0.01228   0.00000  Uiso   1.00
C95    C     0.90212   0.50426   0.02865   0.00000  Uiso   1.00
C96    C     0.86078   0.52558   0.06802   0.00000  Uiso   1.00
C97    C     0.80616   0.58481   0.13057   0.00000  Uiso   1.00
C98    C     0.96676   0.34031   0.99266   0.00000  Uiso   1.00
C99    C     0.03595   0.32531   0.99251   0.00000  Uiso   1.00
C100   C     0.05580   0.26479   0.01535   0.00000  Uiso   1.00
C101   C     0.11404   0.17308   0.04740   0.00000  Uiso   1.00
C102   C     0.88081   0.37780   0.93254   0.00000  Uiso   1.00
C103   C     0.87773   0.39430   0.88184   0.00000  Uiso   1.00
C104   C     0.82523   0.36532   0.85405   0.00000  Uiso   1.00
C105   C     0.75002   0.33181   0.79276   0.00000  Uiso   1.00
C106   C     0.84616   0.32286   0.01065   0.00000  Uiso   1.00
C107   C     0.84639   0.39363   0.03445   0.00000  Uiso   1.00
C108   C     0.80502   0.41486   0.07380   0.00000  Uiso   1.00
C109   C     0.81302   0.48161   0.09022   0.00000  Uiso   1.00
C110   C     0.91909   0.29642   0.01482   0.00000  Uiso   1.00
C111   C     0.93885   0.23591   0.03766   0.00000  Uiso   1.00
C112   C     0.00804   0.22082   0.03755   0.00000  Uiso   1.00
C113   C     0.83314   0.33391   0.95470   0.00000  Uiso   1.00
C114   C     0.78063   0.30490   0.92699   0.00000  Uiso   1.00
C115   C     0.77747   0.32135   0.87626   0.00000  Uiso   1.00
H116   H     0.97104   0.43783   0.95258   0.00000  Uiso   1.00
H117   H     0.93903   0.53821   0.01149   0.00000  Uiso   1.00
H118   H     0.07283   0.35928   0.97535   0.00000  Uiso   1.00
H119   H     0.91463   0.42826   0.86469   0.00000  Uiso   1.00
H120   H     0.88253   0.63012   0.08659   0.00000  Uiso   1.00
H121   H     0.16465   0.25284   0.01037   0.00000  Uiso   1.00
H122   H     0.83107   0.39830   0.77704   0.00000  Uiso   1.00
H123   H     0.80904   0.28869   0.02791   0.00000  Uiso   1.00
H124   H     0.76813   0.38088   0.09095   0.00000  Uiso   1.00
H125   H     0.90194   0.20195   0.05481   0.00000  Uiso   1.00
H126   H     0.74375   0.27094   0.94416   0.00000  Uiso   1.00
H127   H     0.74383   0.50243   0.15109   0.00000  Uiso   1.00
H128   H     0.02595   0.12514   0.07487   0.00000  Uiso   1.00
H129   H     0.69237   0.27060   0.84154   0.00000  Uiso   1.00
O130   O     0.78921   0.62960   0.15896   0.00000  Uiso   1.00
O131   O     0.15934   0.13462   0.05896   0.00000  Uiso   1.00
O132   O     0.72169   0.32546   0.75283   0.00000  Uiso   1.00
N133   N     0.85549   0.58742   0.09311   0.00000  Uiso   1.00
N134   N     0.11926   0.23469   0.02186   0.00000  Uiso   1.00
N135   N     0.80740   0.37067   0.80371   0.00000  Uiso   1.00
N136   N     0.78086   0.51871   0.12781   0.00000  Uiso   1.00
N137   N     0.04463   0.16598   0.05656   0.00000  Uiso   1.00
N138   N     0.73277   0.30196   0.83841   0.00000  Uiso   1.00
C139   C     0.43392   0.90367   0.46983   0.00000  Uiso   1.00
C140   C     0.39406   0.93752   0.51228   0.00000  Uiso   1.00
C141   C     0.40212   0.00426   0.52865   0.00000  Uiso   1.00
C142   C     0.36078   0.02558   0.56802   0.00000  Uiso   1.00
C143   C     0.30616   0.08481   0.63057   0.00000  Uiso   1.00
C144   C     0.46676   0.84031   0.49266   0.00000  Uiso   1.00
C145   C     0.53595   0.82531   0.49251   0.00000  Uiso   1.00
C146   C     0.55580   0.76479   0.51535   0.00000  Uiso   1.00
C147   C     0.61404   0.67308   0.54740   0.00000  Uiso   1.00
C148   C     0.38081   0.87780   0.43254   0.00000  Uiso   1.00
C149   C     0.37773   0.89430   0.38184   0.00000  Uiso   1.00
C150   C     0.32523   0.86532   0.35405   0.00000  Uiso   1.00
C151   C     0.25002   0.83181   0.29276   0.00000  Uiso   1.00
C152   C     0.34616   0.82286   0.51065   0.00000  Uiso   1.00
C153   C     0.34639   0.89363   0.53445   0.00000  Uiso   1.00
C154   C     0.30502   0.91486   0.57380   0.00000  Uiso   1.00
C155   C     0.31302   0.98161   0.59022   0.00000  Uiso   1.00
C156   C     0.41909   0.79642   0.51482   0.00000  Uiso   1.00
C157   C     0.43885   0.73591   0.53766   0.00000  Uiso   1.00
C158   C     0.50804   0.72082   0.53755   0.00000  Uiso   1.00
C159   C     0.33314   0.83391   0.45470   0.00000  Uiso   1.00
C160   C     0.28063   0.80490   0.42699   0.00000  Uiso   1.00
C161   C     0.27747   0.82135   0.37626   0.00000  Uiso   1.00
H162   H     0.47104   0.93783   0.45258   0.00000  Uiso   1.00
H163   H     0.43903   0.03821   0.51149   0.00000  Uiso   1.00
H164   H     0.57283   0.85928   0.47535   0.00000  Uiso   1.00
H165   H     0.41463   0.92826   0.36469   0.00000  Uiso   1.00
H166   H     0.38253   0.13012   0.58659   0.00000  Uiso   1.00
H167   H     0.66465   0.75284   0.51037   0.00000  Uiso   1.00
H168   H     0.33107   0.89830   0.27704   0.00000  Uiso   1.00
H169   H     0.30904   0.78869   0.52791   0.00000  Uiso   1.00
H170   H     0.26813   0.88088   0.59095   0.00000  Uiso   1.00
H171   H     0.40194   0.70195   0.55481   0.00000  Uiso   1.00
H172   H     0.24375   0.77094   0.44416   0.00000  Uiso   1.00
H173   H     0.24383   0.00243   0.65109   0.00000  Uiso   1.00
H174   H     0.52595   0.62514   0.57487   0.00000  Uiso   1.00
H175   H     0.19237   0.77060   0.34154   0.00000  Uiso   1.00
O176   O     0.28921   0.12960   0.65896   0.00000  Uiso   1.00
O177   O     0.65934   0.63462   0.55896   0.00000  Uiso   1.00
O178   O     0.22169   0.82546   0.25283   0.00000  Uiso   1.00
N179   N     0.35549   0.08742   0.59311   0.00000  Uiso   1.00
N180   N     0.61926   0.73469   0.52186   0.00000  Uiso   1.00
N181   N     0.30740   0.87067   0.30371   0.00000  Uiso   1.00
N182   N     0.28086   0.01871   0.62781   0.00000  Uiso   1.00
N183   N     0.54463   0.66598   0.55656   0.00000  Uiso   1.00
N184   N     0.23277   0.80196   0.33841   0.00000  Uiso   1.00
C185   C     0.90367   0.06608   0.71983   0.00000  Uiso   1.00
C186   C     0.93752   0.10594   0.76228   0.00000  Uiso   1.00
C187   C     0.00426   0.09788   0.77865   0.00000  Uiso   1.00
C188   C     0.02558   0.13922   0.81802   0.00000  Uiso   1.00
C189   C     0.08481   0.19384   0.88057   0.00000  Uiso   1.00
C190   C     0.84031   0.03324   0.74266   0.00000  Uiso   1.00
C191   C     0.82531   0.96405   0.74251   0.00000  Uiso   1.00
C192   C     0.76479   0.94420   0.76535   0.00000  Uiso   1.00
C193   C     0.67308   0.88596   0.79740   0.00000  Uiso   1.00
C194   C     0.87780   0.11919   0.68254   0.00000  Uiso   1.00
C195   C     0.89430   0.12227   0.63184   0.00000  Uiso   1.00
C196   C     0.86532   0.17477   0.60405   0.00000  Uiso   1.00
C197   C     0.83181   0.24998   0.54276   0.00000  Uiso   1.00
C198   C     0.82286   0.15384   0.76065   0.00000  Uiso   1.00
C199   C     0.89363   0.15361   0.78445   0.00000  Uiso   1.00
C200   C     0.91486   0.19498   0.82380   0.00000  Uiso   1.00
C201   C     0.98161   0.18698   0.84022   0.00000  Uiso   1.00
C202   C     0.79642   0.08091   0.76482   0.00000  Uiso   1.00
C203   C     0.73591   0.06115   0.78766   0.00000  Uiso   1.00
C204   C     0.72082   0.99196   0.78755   0.00000  Uiso   1.00
C205   C     0.83391   0.16686   0.70470   0.00000  Uiso   1.00
C206   C     0.80490   0.21937   0.67699   0.00000  Uiso   1.00
C207   C     0.82135   0.22253   0.62626   0.00000  Uiso   1.00
H208   H     0.93783   0.02896   0.70258   0.00000  Uiso   1.00
H209   H     0.03821   0.06097   0.76149   0.00000  Uiso   1.00
H210   H     0.85928   0.92717   0.72535   0.00000  Uiso   1.00
H211   H     0.92826   0.08537   0.61469   0.00000  Uiso   1.00
H212   H     0.13012   0.11747   0.83659   0.00000  Uiso   1.00
H213   H     0.75284   0.83535   0.76037   0.00000  Uiso   1.00
H214   H     0.89830   0.16893   0.52704   0.00000  Uiso   1.00
H215   H     0.78869   0.19096   0.77791   0.00000  Uiso   1.00
H216   H     0.88088   0.23187   0.84095   0.00000  Uiso   1.00
H217   H     0.70195   0.09806   0.80481   0.00000  Uiso   1.00
H218   H     0.77094   0.25625   0.69416   0.00000  Uiso   1.00
H219   H     0.00243   0.25617   0.90109   0.00000  Uiso   1.00
H220   H     0.62514   0.97405   0.82487   0.00000  Uiso   1.00
H221   H     0.77060   0.30763   0.59154   0.00000  Uiso   1.00
O222   O     0.12960   0.21079   0.90896   0.00000  Uiso   1.00
O223   O     0.63462   0.84066   0.80896   0.00000  Uiso   1.00
O224   O     0.82546   0.27831   0.50283   0.00000  Uiso   1.00
N225   N     0.08742   0.14451   0.84311   0.00000  Uiso   1.00
N226   N     0.73469   0.88074   0.77186   0.00000  Uiso   1.00
N227   N     0.87067   0.19260   0.55371   0.00000  Uiso   1.00
N228   N     0.01871   0.21914   0.87781   0.00000  Uiso   1.00
N229   N     0.66598   0.95537   0.80656   0.00000  Uiso   1.00
N230   N     0.80196   0.26723   0.58841   0.00000  Uiso   1.00
C231   C     0.40367   0.56608   0.21983   0.00000  Uiso   1.00
C232   C     0.43752   0.60594   0.26228   0.00000  Uiso   1.00
C233   C     0.50426   0.59788   0.27865   0.00000  Uiso   1.00
C234   C     0.52558   0.63922   0.31802   0.00000  Uiso   1.00
C235   C     0.58481   0.69384   0.38057   0.00000  Uiso   1.00
C236   C     0.34031   0.53324   0.24266   0.00000  Uiso   1.00
C237   C     0.32531   0.46405   0.24251   0.00000  Uiso   1.00
C238   C     0.26479   0.44420   0.26535   0.00000  Uiso   1.00
C239   C     0.17308   0.38596   0.29740   0.00000  Uiso   1.00
C240   C     0.37780   0.61919   0.18254   0.00000  Uiso   1.00
C241   C     0.39430   0.62227   0.13184   0.00000  Uiso   1.00
C242   C     0.36532   0.67477   0.10405   0.00000  Uiso   1.00
C243   C     0.33181   0.74998   0.04276   0.00000  Uiso   1.00
C244   C     0.32286   0.65384   0.26065   0.00000  Uiso   1.00
C245   C     0.39363   0.65361   0.28445   0.00000  Uiso   1.00
C246   C     0.41486   0.69498   0.32380   0.00000  Uiso   1.00
C247   C     0.48161   0.68698   0.34022   0.00000  Uiso   1.00
C248   C     0.29642   0.58091   0.26482   0.00000  Uiso   1.00
C249   C     0.23591   0.56115   0.28766   0.00000  Uiso   1.00
C250   C     0.22082   0.49196   0.28755   0.00000  Uiso   1.00
C251   C     0.33391   0.66686   0.20470   0.00000  Uiso   1.00
C252   C     0.30490   0.71937   0.17699   0.00000  Uiso   1.00
C253   C     0.32135   0.72253   0.12626   0.00000  Uiso   1.00
H254   H     0.43783   0.52896   0.20258   0.00000  Uiso   1.00
H255   H     0.53821   0.56097   0.26149   0.00000  Uiso   1.00
H256   H     0.35928   0.42717   0.22535   0.00000  Uiso   1.00
H257   H     0.42826   0.58537   0.11469   0.00000  Uiso   1.00
H258   H     0.63012   0.61747   0.33659   0.00000  Uiso   1.00
H259   H     0.25284   0.33535   0.26037   0.00000  Uiso   1.00
H260   H     0.39830   0.66893   0.02704   0.00000  Uiso   1.00
H261   H     0.28869   0.69096   0.27791   0.00000  Uiso   1.00
H262   H     0.38088   0.73187   0.34095   0.00000  Uiso   1.00
H263   H     0.20195   0.59806   0.30481   0.00000  Uiso   1.00
H264   H     0.27094   0.75625   0.19416   0.00000  Uiso   1.00
H265   H     0.50243   0.75617   0.40109   0.00000  Uiso   1.00
H266   H     0.12514   0.47405   0.32487   0.00000  Uiso   1.00
H267   H     0.27060   0.80763   0.09154   0.00000  Uiso   1.00
O268   O     0.62960   0.71079   0.40896   0.00000  Uiso   1.00
O269   O     0.13462   0.34066   0.30896   0.00000  Uiso   1.00
O270   O     0.32546   0.77831   0.00283   0.00000  Uiso   1.00
N271   N     0.58742   0.64451   0.34311   0.00000  Uiso   1.00
N272   N     0.23469   0.38074   0.27186   0.00000  Uiso   1.00
N273   N     0.37067   0.69260   0.05371   0.00000  Uiso   1.00
N274   N     0.51871   0.71914   0.37781   0.00000  Uiso   1.00
N275   N     0.16598   0.45537   0.30656   0.00000  Uiso   1.00
N276   N     0.30196   0.76723   0.08841   0.00000  Uiso   1.00
C277   C     0.59633   0.43392   0.21983   0.00000  Uiso   1.00
C278   C     0.56248   0.39406   0.26228   0.00000  Uiso   1.00
C279   C     0.49574   0.40212   0.27865   0.00000  Uiso   1.00
C280   C     0.47442   0.36078   0.31802   0.00000  Uiso   1.00
C281   C     0.41519   0.30616   0.38057   0.00000  Uiso   1.00
C282   C     0.65969   0.46676   0.24266   0.00000  Uiso   1.00
C283   C     0.67469   0.53595   0.24251   0.00000  Uiso   1.00
C284   C     0.73521   0.55580   0.26535   0.00000  Uiso   1.00
C285   C     0.82692   0.61404   0.29740   0.00000  Uiso   1.00
C286   C     0.62220   0.38081   0.18254   0.00000  Uiso   1.00
C287   C     0.60570   0.37773   0.13184   0.00000  Uiso   1.00
C288   C     0.63468   0.32523   0.10405   0.00000  Uiso   1.00
C289   C     0.66819   0.25002   0.04276   0.00000  Uiso   1.00
C290   C     0.67714   0.34616   0.26065   0.00000  Uiso   1.00
C291   C     0.60637   0.34639   0.28445   0.00000  Uiso   1.00
C292   C     0.58514   0.30502   0.32380   0.00000  Uiso   1.00
C293   C     0.51839   0.31302   0.34022   0.00000  Uiso   1.00
C294   C     0.70358   0.41909   0.26482   0.00000  Uiso   1.00
C295   C     0.76409   0.43885   0.28766   0.00000  Uiso   1.00
C296   C     0.77918   0.50804   0.28755   0.00000  Uiso   1.00
C297   C     0.66609   0.33314   0.20470   0.00000  Uiso   1.00
C298   C     0.69510   0.28063   0.17699   0.00000  Uiso   1.00
C299   C     0.67865   0.27747   0.12626   0.00000  Uiso   1.00
H300   H     0.56217   0.47104   0.20258   0.00000  Uiso   1.00
H301   H     0.46179   0.43903   0.26149   0.00000  Uiso   1.00
H302   H     0.64072   0.57283   0.22535   0.00000  Uiso   1.00
H303   H     0.57174   0.41463   0.11469   0.00000  Uiso   1.00
H304   H     0.36988   0.38253   0.33659   0.00000  Uiso   1.00
H305   H     0.74716   0.66465   0.26037   0.00000  Uiso   1.00
H306   H     0.60170   0.33107   0.02704   0.00000  Uiso   1.00
H307   H     0.71131   0.30904   0.27791   0.00000  Uiso   1.00
H308   H     0.61912   0.26813   0.34095   0.00000  Uiso   1.00
H309   H     0.79805   0.40194   0.30481   0.00000  Uiso   1.00
H310   H     0.72906   0.24375   0.19416   0.00000  Uiso   1.00
H311   H     0.49757   0.24383   0.40109   0.00000  Uiso   1.00
H312   H     0.87486   0.52595   0.32487   0.00000  Uiso   1.00
H313   H     0.72940   0.19237   0.09154   0.00000  Uiso   1.00
O314   O     0.37040   0.28921   0.40896   0.00000  Uiso   1.00
O315   O     0.86538   0.65934   0.30896   0.00000  Uiso   1.00
O316   O     0.67454   0.22169   0.00283   0.00000  Uiso   1.00
N317   N     0.41258   0.35549   0.34311   0.00000  Uiso   1.00
N318   N     0.76531   0.61926   0.27186   0.00000  Uiso   1.00
N319   N     0.62933   0.30740   0.05371   0.00000  Uiso   1.00
N320   N     0.48129   0.28086   0.37781   0.00000  Uiso   1.00
N321   N     0.83402   0.54463   0.30656   0.00000  Uiso   1.00
N322   N     0.69804   0.23277   0.08841   0.00000  Uiso   1.00
C323   C     0.09633   0.93392   0.71983   0.00000  Uiso   1.00
C324   C     0.06248   0.89406   0.76228   0.00000  Uiso   1.00
C325   C     0.99574   0.90212   0.77865   0.00000  Uiso   1.00
C326   C     0.97442   0.86078   0.81802   0.00000  Uiso   1.00
C327   C     0.91519   0.80616   0.88057   0.00000  Uiso   1.00
C328   C     0.15969   0.96676   0.74266   0.00000  Uiso   1.00
C329   C     0.17469   0.03595   0.74251   0.00000  Uiso   1.00
C330   C     0.23521   0.05580   0.76535   0.00000  Uiso   1.00
C331   C     0.32692   0.11404   0.79740   0.00000  Uiso   1.00
C332   C     0.12220   0.88081   0.68254   0.00000  Uiso   1.00
C333   C     0.10570   0.87773   0.63184   0.00000  Uiso   1.00
C334   C     0.13468   0.82523   0.60405   0.00000  Uiso   1.00
C335   C     0.16819   0.75002   0.54276   0.00000  Uiso   1.00
C336   C     0.17714   0.84616   0.76065   0.00000  Uiso   1.00
C337   C     0.10637   0.84639   0.78445   0.00000  Uiso   1.00
C338   C     0.08514   0.80502   0.82380   0.00000  Uiso   1.00
C339   C     0.01839   0.81302   0.84022   0.00000  Uiso   1.00
C340   C     0.20358   0.91909   0.76482   0.00000  Uiso   1.00
C341   C     0.26409   0.93885   0.78766   0.00000  Uiso   1.00
C342   C     0.27918   0.00804   0.78755   0.00000  Uiso   1.00
C343   C     0.16609   0.83314   0.70470   0.00000  Uiso   1.00
C344   C     0.19510   0.78063   0.67699   0.00000  Uiso   1.00
C345   C     0.17865   0.77747   0.62626   0.00000  Uiso   1.00
H346   H     0.06217   0.97104   0.70258   0.00000  Uiso   1.00
H347   H     0.96179   0.93903   0.76149   0.00000  Uiso   1.00
H348   H     0.14072   0.07283   0.72535   0.00000  Uiso   1.00
H349   H     0.07174   0.91463   0.61469   0.00000  Uiso   1.00
H350   H     0.86988   0.88253   0.83659   0.00000  Uiso   1.00
H351   H     0.24716   0.16465   0.76037   0.00000  Uiso   1.00
H352   H     0.10170   0.83107   0.52704   0.00000  Uiso   1.00
H353   H     0.21131   0.80904   0.77791   0.00000  Uiso   1.00
H354   H     0.11912   0.76813   0.84095   0.00000  Uiso   1.00
H355   H     0.29805   0.90194   0.80481   0.00000  Uiso   1.00
H356   H     0.22906   0.74375   0.69416   0.00000  Uiso   1.00
H357   H     0.99757   0.74383   0.90109   0.00000  Uiso   1.00
H358   H     0.37486   0.02595   0.82487   0.00000  Uiso   1.00
H359   H     0.22940   0.69237   0.59154   0.00000  Uiso   1.00
O360   O     0.87040   0.78921   0.90896   0.00000  Uiso   1.00
O361   O     0.36538   0.15934   0.80896   0.00000  Uiso   1.00
O362   O     0.17454   0.72169   0.50283   0.00000  Uiso   1.00
N363   N     0.91258   0.85549   0.84311   0.00000  Uiso   1.00
N364   N     0.26531   0.11926   0.77186   0.00000  Uiso   1.00
N365   N     0.12933   0.80740   0.55371   0.00000  Uiso   1.00
N366   N     0.98129   0.78086   0.87781   0.00000  Uiso   1.00
N367   N     0.33402   0.04463   0.80656   0.00000  Uiso   1.00
N368   N     0.19804   0.73277   0.58841   0.00000  Uiso   1.00
C369   C     0.43392   0.40367   0.78017   0.00000  Uiso   1.00
C370   C     0.39406   0.43752   0.73772   0.00000  Uiso   1.00
C371   C     0.40212   0.50426   0.72135   0.00000  Uiso   1.00
C372   C     0.36078   0.52558   0.68198   0.00000  Uiso   1.00
C373   C     0.30616   0.58481   0.61943   0.00000  Uiso   1.00
C374   C     0.46676   0.34031   0.75734   0.00000  Uiso   1.00
C375   C     0.53595   0.32531   0.75749   0.00000  Uiso   1.00
C376   C     0.55580   0.26479   0.73465   0.00000  Uiso   1.00
C377   C     0.61404   0.17308   0.70260   0.00000  Uiso   1.00
C378   C     0.38081   0.37780   0.81746   0.00000  Uiso   1.00
C379   C     0.37773   0.39430   0.86816   0.00000  Uiso   1.00
C380   C     0.32523   0.36532   0.89595   0.00000  Uiso   1.00
C381   C     0.25002   0.33181   0.95724   0.00000  Uiso   1.00
C382   C     0.34616   0.32286   0.73935   0.00000  Uiso   1.00
C383   C     0.34639   0.39363   0.71555   0.00000  Uiso   1.00
C384   C     0.30502   0.41486   0.67620   0.00000  Uiso   1.00
C385   C     0.31302   0.48161   0.65978   0.00000  Uiso   1.00
C386   C     0.41909   0.29642   0.73518   0.00000  Uiso   1.00
C387   C     0.43885   0.23591   0.71234   0.00000  Uiso   1.00
C388   C     0.50804   0.22082   0.71245   0.00000  Uiso   1.00
C389   C     0.33314   0.33391   0.79530   0.00000  Uiso   1.00
C390   C     0.28063   0.30490   0.82301   0.00000  Uiso   1.00
C391   C     0.27747   0.32135   0.87374   0.00000  Uiso   1.00
H392   H     0.47104   0.43783   0.79742   0.00000  Uiso   1.00
H393   H     0.43903   0.53821   0.73851   0.00000  Uiso   1.00
H394   H     0.57283   0.35928   0.77465   0.00000  Uiso   1.00
H395   H     0.41463   0.42826   0.88531   0.00000  Uiso   1.00
H396   H     0.38253   0.63012   0.66341   0.00000  Uiso   1.00
H397   H     0.66465   0.25284   0.73963   0.00000  Uiso   1.00
H398   H     0.33107   0.39830   0.97296   0.00000  Uiso   1.00
H399   H     0.30904   0.28869   0.72209   0.00000  Uiso   1.00
H400   H     0.26813   0.38088   0.65905   0.00000  Uiso   1.00
H401   H     0.40194   0.20195   0.69519   0.00000  Uiso   1.00
H402   H     0.24375   0.27094   0.80584   0.00000  Uiso   1.00
H403   H     0.24383   0.50243   0.59891   0.00000  Uiso   1.00
H404   H     0.52595   0.12514   0.67513   0.00000  Uiso   1.00
H405   H     0.19237   0.27060   0.90846   0.00000  Uiso   1.00
O406   O     0.28921   0.62960   0.59104   0.00000  Uiso   1.00
O407   O     0.65934   0.13462   0.69104   0.00000  Uiso   1.00
O408   O     0.22169   0.32546   0.99717   0.00000  Uiso   1.00
N409   N     0.35549   0.58742   0.65689   0.00000  Uiso   1.00
N410   N     0.61926   0.23469   0.72814   0.00000  Uiso   1.00
N411   N     0.30740   0.37067   0.94629   0.00000  Uiso   1.00
N412   N     0.28086   0.51871   0.62219   0.00000  Uiso   1.00
N413   N     0.54463   0.16598   0.69344   0.00000  Uiso   1.00
N414   N     0.23277   0.30196   0.91159   0.00000  Uiso   1.00
C415   C     0.93392   0.90367   0.28017   0.00000  Uiso   1.00
C416   C     0.89406   0.93752   0.23772   0.00000  Uiso   1.00
C417   C     0.90212   0.00426   0.22135   0.00000  Uiso   1.00
C418   C     0.86078   0.02558   0.18198   0.00000  Uiso   1.00
C419   C     0.80616   0.08481   0.11943   0.00000  Uiso   1.00
C420   C     0.96676   0.84031   0.25734   0.00000  Uiso   1.00
C421   C     0.03595   0.82531   0.25749   0.00000  Uiso   1.00
C422   C     0.05580   0.76479   0.23465   0.00000  Uiso   1.00
C423   C     0.11404   0.67308   0.20260   0.00000  Uiso   1.00
C424   C     0.88081   0.87780   0.31746   0.00000  Uiso   1.00
C425   C     0.87773   0.89430   0.36816   0.00000  Uiso   1.00
C426   C     0.82523   0.86532   0.39595   0.00000  Uiso   1.00
C427   C     0.75002   0.83181   0.45724   0.00000  Uiso   1.00
C428   C     0.84616   0.82286   0.23935   0.00000  Uiso   1.00
C429   C     0.84639   0.89363   0.21555   0.00000  Uiso   1.00
C430   C     0.80502   0.91486   0.17620   0.00000  Uiso   1.00
C431   C     0.81302   0.98161   0.15978   0.00000  Uiso   1.00
C432   C     0.91909   0.79642   0.23518   0.00000  Uiso   1.00
C433   C     0.93885   0.73591   0.21234   0.00000  Uiso   1.00
C434   C     0.00804   0.72082   0.21245   0.00000  Uiso   1.00
C435   C     0.83314   0.83391   0.29530   0.00000  Uiso   1.00
C436   C     0.78063   0.80490   0.32301   0.00000  Uiso   1.00
C437   C     0.77747   0.82135   0.37374   0.00000  Uiso   1.00
H438   H     0.97104   0.93783   0.29742   0.00000  Uiso   1.00
H439   H     0.93903   0.03821   0.23851   0.00000  Uiso   1.00
H440   H     0.07283   0.85928   0.27465   0.00000  Uiso   1.00
H441   H     0.91463   0.92826   0.38531   0.00000  Uiso   1.00
H442   H     0.88253   0.13012   0.16341   0.00000  Uiso   1.00
H443   H     0.16465   0.75284   0.23963   0.00000  Uiso   1.00
H444   H     0.83107   0.89830   0.47296   0.00000  Uiso   1.00
H445   H     0.80904   0.78869   0.22209   0.00000  Uiso   1.00
H446   H     0.76813   0.88088   0.15905   0.00000  Uiso   1.00
H447   H     0.90194   0.70195   0.19519   0.00000  Uiso   1.00
H448   H     0.74375   0.77094   0.30584   0.00000  Uiso   1.00
H449   H     0.74383   0.00243   0.09891   0.00000  Uiso   1.00
H450   H     0.02595   0.62514   0.17513   0.00000  Uiso   1.00
H451   H     0.69237   0.77060   0.40846   0.00000  Uiso   1.00
O452   O     0.78921   0.12960   0.09104   0.00000  Uiso   1.00
O453   O     0.15934   0.63462   0.19104   0.00000  Uiso   1.00
O454   O     0.72169   0.82546   0.49717   0.00000  Uiso   1.00
N455   N     0.85549   0.08742   0.15689   0.00000  Uiso   1.00
N456   N     0.11926   0.73469   0.22814   0.00000  Uiso   1.00
N457   N     0.80740   0.87067   0.44629   0.00000  Uiso   1.00
N458   N     0.78086   0.01871   0.12219   0.00000  Uiso   1.00
N459   N     0.04463   0.66598   0.19344   0.00000  Uiso   1.00
N460   N     0.73277   0.80196   0.41159   0.00000  Uiso   1.00
C461   C     0.06608   0.09633   0.28017   0.00000  Uiso   1.00
C462   C     0.10594   0.06248   0.23772   0.00000  Uiso   1.00
C463   C     0.09788   0.99574   0.22135   0.00000  Uiso   1.00
C464   C     0.13922   0.97442   0.18198   0.00000  Uiso   1.00
C465   C     0.19384   0.91519   0.11943   0.00000  Uiso   1.00
C466   C     0.03324   0.15969   0.25734   0.00000  Uiso   1.00
C467   C     0.96405   0.17469   0.25749   0.00000  Uiso   1.00
C468   C     0.94420   0.23521   0.23465   0.00000  Uiso   1.00
C469   C     0.88596   0.32692   0.20260   0.00000  Uiso   1.00
C470   C     0.11919   0.12220   0.31746   0.00000  Uiso   1.00
C471   C     0.12227   0.10570   0.36816   0.00000  Uiso   1.00
C472   C     0.17477   0.13468   0.39595   0.00000  Uiso   1.00
C473   C     0.24998   0.16819   0.45724   0.00000  Uiso   1.00
C474   C     0.15384   0.17714   0.23935   0.00000  Uiso   1.00
C475   C     0.15361   0.10637   0.21555   0.00000  Uiso   1.00
C476   C     0.19498   0.08514   0.17620   0.00000  Uiso   1.00
C477   C     0.18698   0.01839   0.15978   0.00000  Uiso   1.00
C478   C     0.08091   0.20358   0.23518   0.00000  Uiso   1.00
C479   C     0.06115   0.26409   0.21234   0.00000  Uiso   1.00
C480   C     0.99196   0.27918   0.21245   0.00000  Uiso   1.00
C481   C     0.16686   0.16609   0.29530   0.00000  Uiso   1.00
C482   C     0.21937   0.19510   0.32301   0.00000  Uiso   1.00
C483   C     0.22253   0.17865   0.37374   0.00000  Uiso   1.00
H484   H     0.02896   0.06217   0.29742   0.00000  Uiso   1.00
H485   H     0.06097   0.96179   0.23851   0.00000  Uiso   1.00
H486   H     0.92717   0.14072   0.27465   0.00000  Uiso   1.00
H487   H     0.08537   0.07174   0.38531   0.00000  Uiso   1.00
H488   H     0.11747   0.86988   0.16341   0.00000  Uiso   1.00
H489   H     0.83535   0.24716   0.23963   0.00000  Uiso   1.00
H490   H     0.16893   0.10170   0.47296   0.00000  Uiso   1.00
H491   H     0.19096   0.21131   0.22209   0.00000  Uiso   1.00
H492   H     0.23187   0.11912   0.15905   0.00000  Uiso   1.00
H493   H     0.09806   0.29805   0.19519   0.00000  Uiso   1.00
H494   H     0.25625   0.22906   0.30584   0.00000  Uiso   1.00
H495   H     0.25617   0.99757   0.09891   0.00000  Uiso   1.00
H496   H     0.97405   0.37486   0.17513   0.00000  Uiso   1.00
H497   H     0.30763   0.22940   0.40846   0.00000  Uiso   1.00
O498   O     0.21079   0.87040   0.09104   0.00000  Uiso   1.00
O499   O     0.84066   0.36538   0.19104   0.00000  Uiso   1.00
O500   O     0.27831   0.17454   0.49717   0.00000  Uiso   1.00
N501   N     0.14451   0.91258   0.15689   0.00000  Uiso   1.00
N502   N     0.88074   0.26531   0.22814   0.00000  Uiso   1.00
N503   N     0.19260   0.12933   0.44629   0.00000  Uiso   1.00
N504   N     0.21914   0.98129   0.12219   0.00000  Uiso   1.00
N505   N     0.95537   0.33402   0.19344   0.00000  Uiso   1.00
N506   N     0.26723   0.19804   0.41159   0.00000  Uiso   1.00
C507   C     0.56608   0.59633   0.78017   0.00000  Uiso   1.00
C508   C     0.60594   0.56248   0.73772   0.00000  Uiso   1.00
C509   C     0.59788   0.49574   0.72135   0.00000  Uiso   1.00
C510   C     0.63922   0.47442   0.68198   0.00000  Uiso   1.00
C511   C     0.69384   0.41519   0.61943   0.00000  Uiso   1.00
C512   C     0.53324   0.65969   0.75734   0.00000  Uiso   1.00
C513   C     0.46405   0.67469   0.75749   0.00000  Uiso   1.00
C514   C     0.44420   0.73521   0.73465   0.00000  Uiso   1.00
C515   C     0.38596   0.82692   0.70260   0.00000  Uiso   1.00
C516   C     0.61919   0.62220   0.81746   0.00000  Uiso   1.00
C517   C     0.62227   0.60570   0.86816   0.00000  Uiso   1.00
C518   C     0.67477   0.63468   0.89595   0.00000  Uiso   1.00
C519   C     0.74998   0.66819   0.95724   0.00000  Uiso   1.00
C520   C     0.65384   0.67714   0.73935   0.00000  Uiso   1.00
C521   C     0.65361   0.60637   0.71555   0.00000  Uiso   1.00
C522   C     0.69498   0.58514   0.67620   0.00000  Uiso   1.00
C523   C     0.68698   0.51839   0.65978   0.00000  Uiso   1.00
C524   C     0.58091   0.70358   0.73518   0.00000  Uiso   1.00
C525   C     0.56115   0.76409   0.71234   0.00000  Uiso   1.00
C526   C     0.49196   0.77918   0.71245   0.00000  Uiso   1.00
C527   C     0.66686   0.66609   0.79530   0.00000  Uiso   1.00
C528   C     0.71937   0.69510   0.82301   0.00000  Uiso   1.00
C529   C     0.72253   0.67865   0.87374   0.00000  Uiso   1.00
H530   H     0.52896   0.56217   0.79742   0.00000  Uiso   1.00
H531   H     0.56097   0.46179   0.73851   0.00000  Uiso   1.00
H532   H     0.42717   0.64072   0.77465   0.00000  Uiso   1.00
H533   H     0.58537   0.57174   0.88531   0.00000  Uiso   1.00
H534   H     0.61747   0.36988   0.66341   0.00000  Uiso   1.00
H535   H     0.33535   0.74716   0.73963   0.00000  Uiso   1.00
H536   H     0.66893   0.60170   0.97296   0.00000  Uiso   1.00
H537   H     0.69096   0.71131   0.72209   0.00000  Uiso   1.00
H538   H     0.73187   0.61912   0.65905   0.00000  Uiso   1.00
H539   H     0.59806   0.79805   0.69519   0.00000  Uiso   1.00
H540   H     0.75625   0.72906   0.80584   0.00000  Uiso   1.00
H541   H     0.75617   0.49757   0.59891   0.00000  Uiso   1.00
H542   H     0.47405   0.87486   0.67513   0.00000  Uiso   1.00
H543   H     0.80763   0.72940   0.90846   0.00000  Uiso   1.00
O544   O     0.71079   0.37040   0.59104   0.00000  Uiso   1.00
O545   O     0.34066   0.86538   0.69104   0.00000  Uiso   1.00
O546   O     0.77831   0.67454   0.99717   0.00000  Uiso   1.00
N547   N     0.64451   0.41258   0.65689   0.00000  Uiso   1.00
N548   N     0.38074   0.76531   0.72814   0.00000  Uiso   1.00
N549   N     0.69260   0.62933   0.94629   0.00000  Uiso   1.00
N550   N     0.71914   0.48129   0.62219   0.00000  Uiso   1.00
N551   N     0.45537   0.83402   0.69344   0.00000  Uiso   1.00
N552   N     0.76723   0.69804   0.91159   0.00000  Uiso   1.00
C553   C     0.09633   0.43392   0.53017   0.00000  Uiso   1.00
C554   C     0.06248   0.39406   0.48772   0.00000  Uiso   1.00
C555   C     0.99574   0.40212   0.47135   0.00000  Uiso   1.00
C556   C     0.97442   0.36078   0.43198   0.00000  Uiso   1.00
C557   C     0.91519   0.30616   0.36943   0.00000  Uiso   1.00
C558   C     0.15969   0.46676   0.50734   0.00000  Uiso   1.00
C559   C     0.17469   0.53595   0.50749   0.00000  Uiso   1.00
C560   C     0.23521   0.55580   0.48465   0.00000  Uiso   1.00
C561   C     0.32692   0.61404   0.45260   0.00000  Uiso   1.00
C562   C     0.12220   0.38081   0.56746   0.00000  Uiso   1.00
C563   C     0.10570   0.37773   0.61816   0.00000  Uiso   1.00
C564   C     0.13468   0.32523   0.64595   0.00000  Uiso   1.00
C565   C     0.16819   0.25002   0.70724   0.00000  Uiso   1.00
C566   C     0.17714   0.34616   0.48935   0.00000  Uiso   1.00
C567   C     0.10637   0.34639   0.46555   0.00000  Uiso   1.00
C568   C     0.08514   0.30502   0.42620   0.00000  Uiso   1.00
C569   C     0.01839   0.31302   0.40978   0.00000  Uiso   1.00
C570   C     0.20358   0.41909   0.48518   0.00000  Uiso   1.00
C571   C     0.26409   0.43885   0.46234   0.00000  Uiso   1.00
C572   C     0.27918   0.50804   0.46245   0.00000  Uiso   1.00
C573   C     0.16609   0.33314   0.54530   0.00000  Uiso   1.00
C574   C     0.19510   0.28063   0.57301   0.00000  Uiso   1.00
C575   C     0.17865   0.27747   0.62374   0.00000  Uiso   1.00
H576   H     0.06217   0.47104   0.54742   0.00000  Uiso   1.00
H577   H     0.96179   0.43903   0.48851   0.00000  Uiso   1.00
H578   H     0.14072   0.57283   0.52465   0.00000  Uiso   1.00
H579   H     0.07174   0.41463   0.63531   0.00000  Uiso   1.00
H580   H     0.86988   0.38253   0.41341   0.00000  Uiso   1.00
H581   H     0.24716   0.66465   0.48963   0.00000  Uiso   1.00
H582   H     0.10170   0.33107   0.72296   0.00000  Uiso   1.00
H583   H     0.21131   0.30904   0.47209   0.00000  Uiso   1.00
H584   H     0.11912   0.26813   0.40905   0.00000  Uiso   1.00
H585   H     0.29805   0.40194   0.44519   0.00000  Uiso   1.00
H586   H     0.22906   0.24375   0.55584   0.00000  Uiso   1.00
H587   H     0.99757   0.24383   0.34891   0.00000  Uiso   1.00
H588   H     0.37486   0.52595   0.42513   0.00000  Uiso   1.00
H589   H     0.22940   0.19237   0.65846   0.00000  Uiso   1.00
O590   O     0.87040   0.28921   0.34104   0.00000  Uiso   1.00
O591   O     0.36538   0.65934   0.44104   0.00000  Uiso   1.00
O592   O     0.17454   0.22169   0.74717   0.00000  Uiso   1.00
N593   N     0.91258   0.35549   0.40689   0.00000  Uiso   1.00
N594   N     0.26531   0.61926   0.47814   0.00000  Uiso   1.00
N595   N     0.12933   0.30740   0.69629   0.00000  Uiso   1.00
N596   N     0.98129   0.28086   0.37219   0.00000  Uiso   1.00
N597   N     0.33402   0.54463   0.44344   0.00000  Uiso   1.00
N598   N     0.19804   0.23277   0.66159   0.00000  Uiso   1.00
C599   C     0.59633   0.93392   0.03017   0.00000  Uiso   1.00
C600   C     0.56248   0.89406   0.98772   0.00000  Uiso   1.00
C601   C     0.49574   0.90212   0.97135   0.00000  Uiso   1.00
C602   C     0.47442   0.86078   0.93198   0.00000  Uiso   1.00
C603   C     0.41519   0.80616   0.86943   0.00000  Uiso   1.00
C604   C     0.65969   0.96676   0.00734   0.00000  Uiso   1.00
C605   C     0.67469   0.03595   0.00749   0.00000  Uiso   1.00
C606   C     0.73521   0.05580   0.98465   0.00000  Uiso   1.00
C607   C     0.82692   0.11404   0.95260   0.00000  Uiso   1.00
C608   C     0.62220   0.88081   0.06746   0.00000  Uiso   1.00
C609   C     0.60570   0.87773   0.11816   0.00000  Uiso   1.00
C610   C     0.63468   0.82523   0.14595   0.00000  Uiso   1.00
C611   C     0.66819   0.75002   0.20724   0.00000  Uiso   1.00
C612   C     0.67714   0.84616   0.98935   0.00000  Uiso   1.00
C613   C     0.60637   0.84639   0.96555   0.00000  Uiso   1.00
C614   C     0.58514   0.80502   0.92620   0.00000  Uiso   1.00
C615   C     0.51839   0.81302   0.90978   0.00000  Uiso   1.00
C616   C     0.70358   0.91909   0.98518   0.00000  Uiso   1.00
C617   C     0.76409   0.93885   0.96234   0.00000  Uiso   1.00
C618   C     0.77918   0.00804   0.96245   0.00000  Uiso   1.00
C619   C     0.66609   0.83314   0.04530   0.00000  Uiso   1.00
C620   C     0.69510   0.78063   0.07301   0.00000  Uiso   1.00
C621   C     0.67865   0.77747   0.12374   0.00000  Uiso   1.00
H622   H     0.56217   0.97104   0.04742   0.00000  Uiso   1.00
H623   H     0.46179   0.93903   0.98851   0.00000  Uiso   1.00
H624   H     0.64072   0.07283   0.02465   0.00000  Uiso   1.00
H625   H     0.57174   0.91463   0.13531   0.00000  Uiso   1.00
H626   H     0.36988   0.88253   0.91341   0.00000  Uiso   1.00
H627   H     0.74716   0.16465   0.98963   0.00000  Uiso   1.00
H628   H     0.60170   0.83107   0.22296   0.00000  Uiso   1.00
H629   H     0.71131   0.80904   0.97209   0.00000  Uiso   1.00
H630   H     0.61912   0.76813   0.90905   0.00000  Uiso   1.00
H631   H     0.79805   0.90194   0.94519   0.00000  Uiso   1.00
H632   H     0.72906   0.74375   0.05584   0.00000  Uiso   1.00
H633   H     0.49757   0.74383   0.84891   0.00000  Uiso   1.00
H634   H     0.87486   0.02595   0.92513   0.00000  Uiso   1.00
H635   H     0.72940   0.69237   0.15846   0.00000  Uiso   1.00
O636   O     0.37040   0.78921   0.84104   0.00000  Uiso   1.00
O637   O     0.86538   0.15934   0.94104   0.00000  Uiso   1.00
O638   O     0.67454   0.72169   0.24717   0.00000  Uiso   1.00
N639   N     0.41258   0.85549   0.90689   0.00000  Uiso   1.00
N640   N     0.76531   0.11926   0.97814   0.00000  Uiso   1.00
N641   N     0.62933   0.80740   0.19629   0.00000  Uiso   1.00
N642   N     0.48129   0.78086   0.87219   0.00000  Uiso   1.00
N643   N     0.83402   0.04463   0.94344   0.00000  Uiso   1.00
N644   N     0.69804   0.73277   0.16159   0.00000  Uiso   1.00
C645   C     0.40367   0.06608   0.03017   0.00000  Uiso   1.00
C646   C     0.43752   0.10594   0.98772   0.00000  Uiso   1.00
C647   C     0.50426   0.09788   0.97135   0.00000  Uiso   1.00
C648   C     0.52558   0.13922   0.93198   0.00000  Uiso   1.00
C649   C     0.58481   0.19384   0.86943   0.00000  Uiso   1.00
C650   C     0.34031   0.03324   0.00734   0.00000  Uiso   1.00
C651   C     0.32531   0.96405   0.00749   0.00000  Uiso   1.00
C652   C     0.26479   0.94420   0.98465   0.00000  Uiso   1.00
C653   C     0.17308   0.88596   0.95260   0.00000  Uiso   1.00
C654   C     0.37780   0.11919   0.06746   0.00000  Uiso   1.00
C655   C     0.39430   0.12227   0.11816   0.00000  Uiso   1.00
C656   C     0.36532   0.17477   0.14595   0.00000  Uiso   1.00
C657   C     0.33181   0.24998   0.20724   0.00000  Uiso   1.00
C658   C     0.32286   0.15384   0.98935   0.00000  Uiso   1.00
C659   C     0.39363   0.15361   0.96555   0.00000  Uiso   1.00
C660   C     0.41486   0.19498   0.92620   0.00000  Uiso   1.00
C661   C     0.48161   0.18698   0.90978   0.00000  Uiso   1.00
C662   C     0.29642   0.08091   0.98518   0.00000  Uiso   1.00
C663   C     0.23591   0.06115   0.96234   0.00000  Uiso   1.00
C664   C     0.22082   0.99196   0.96245   0.00000  Uiso   1.00
C665   C     0.33391   0.16686   0.04530   0.00000  Uiso   1.00
C666   C     0.30490   0.21937   0.07301   0.00000  Uiso   1.00
C667   C     0.32135   0.22253   0.12374   0.00000  Uiso   1.00
H668   H     0.43783   0.02896   0.04742   0.00000  Uiso   1.00
H669   H     0.53821   0.06097   0.98851   0.00000  Uiso   1.00
H670   H     0.35928   0.92717   0.02465   0.00000  Uiso   1.00
H671   H     0.42826   0.08537   0.13531   0.00000  Uiso   1.00
H672   H     0.63012   0.11747   0.91341   0.00000  Uiso   1.00
H673   H     0.25284   0.83535   0.98963   0.00000  Uiso   1.00
H674   H     0.39830   0.16893   0.22296   0.00000  Uiso   1.00
H675   H     0.28869   0.19096   0.97209   0.00000  Uiso   1.00
H676   H     0.38088   0.23187   0.90905   0.00000  Uiso   1.00
H677   H     0.20195   0.09806   0.94519   0.00000  Uiso   1.00
H678   H     0.27094   0.25625   0.05584   0.00000  Uiso   1.00
H679   H     0.50243   0.25617   0.84891   0.00000  Uiso   1.00
H680   H     0.12514   0.97405   0.92513   0.00000  Uiso   1.00
H681   H     0.27060   0.30763   0.15846   0.00000  Uiso   1.00
O682   O     0.62960   0.21079   0.84104   0.00000  Uiso   1.00
O683   O     0.13462   0.84066   0.94104   0.00000  Uiso   1.00
O684   O     0.32546   0.27831   0.24717   0.00000  Uiso   1.00
N685   N     0.58742   0.14451   0.90689   0.00000  Uiso   1.00
N686   N     0.23469   0.88074   0.97814   0.00000  Uiso   1.00
N687   N     0.37067   0.19260   0.19629   0.00000  Uiso   1.00
N688   N     0.51871   0.21914   0.87219   0.00000  Uiso   1.00
N689   N     0.16598   0.95537   0.94344   0.00000  Uiso   1.00
N690   N     0.30196   0.26723   0.16159   0.00000  Uiso   1.00
C691   C     0.90367   0.56608   0.53017   0.00000  Uiso   1.00
C692   C     0.93752   0.60594   0.48772   0.00000  Uiso   1.00
C693   C     0.00426   0.59788   0.47135   0.00000  Uiso   1.00
C694   C     0.02558   0.63922   0.43198   0.00000  Uiso   1.00
C695   C     0.08481   0.69384   0.36943   0.00000  Uiso   1.00
C696   C     0.84031   0.53324   0.50734   0.00000  Uiso   1.00
C697   C     0.82531   0.46405   0.50749   0.00000  Uiso   1.00
C698   C     0.76479   0.44420   0.48465   0.00000  Uiso   1.00
C699   C     0.67308   0.38596   0.45260   0.00000  Uiso   1.00
C700   C     0.87780   0.61919   0.56746   0.00000  Uiso   1.00
C701   C     0.89430   0.62227   0.61816   0.00000  Uiso   1.00
C702   C     0.86532   0.67477   0.64595   0.00000  Uiso   1.00
C703   C     0.83181   0.74998   0.70724   0.00000  Uiso   1.00
C704   C     0.82286   0.65384   0.48935   0.00000  Uiso   1.00
C705   C     0.89363   0.65361   0.46555   0.00000  Uiso   1.00
C706   C     0.91486   0.69498   0.42620   0.00000  Uiso   1.00
C707   C     0.98161   0.68698   0.40978   0.00000  Uiso   1.00
C708   C     0.79642   0.58091   0.48518   0.00000  Uiso   1.00
C709   C     0.73591   0.56115   0.46234   0.00000  Uiso   1.00
C710   C     0.72082   0.49196   0.46245   0.00000  Uiso   1.00
C711   C     0.83391   0.66686   0.54530   0.00000  Uiso   1.00
C712   C     0.80490   0.71937   0.57301   0.00000  Uiso   1.00
C713   C     0.82135   0.72253   0.62374   0.00000  Uiso   1.00
H714   H     0.93783   0.52896   0.54742   0.00000  Uiso   1.00
H715   H     0.03821   0.56097   0.48851   0.00000  Uiso   1.00
H716   H     0.85928   0.42717   0.52465   0.00000  Uiso   1.00
H717   H     0.92826   0.58537   0.63531   0.00000  Uiso   1.00
H718   H     0.13012   0.61747   0.41341   0.00000  Uiso   1.00
H719   H     0.75284   0.33535   0.48963   0.00000  Uiso   1.00
H720   H     0.89830   0.66893   0.72296   0.00000  Uiso   1.00
H721   H     0.78869   0.69096   0.47209   0.00000  Uiso   1.00
H722   H     0.88088   0.73187   0.40905   0.00000  Uiso   1.00
H723   H     0.70195   0.59806   0.44519   0.00000  Uiso   1.00
H724   H     0.77094   0.75625   0.55584   0.00000  Uiso   1.00
H725   H     0.00243   0.75617   0.34891   0.00000  Uiso   1.00
H726   H     0.62514   0.47405   0.42513   0.00000  Uiso   1.00
H727   H     0.77060   0.80763   0.65846   0.00000  Uiso   1.00
O728   O     0.12960   0.71079   0.34104   0.00000  Uiso   1.00
O729   O     0.63462   0.34066   0.44104   0.00000  Uiso   1.00
O730   O     0.82546   0.77831   0.74717   0.00000  Uiso   1.00
N731   N     0.08742   0.64451   0.40689   0.00000  Uiso   1.00
N732   N     0.73469   0.38074   0.47814   0.00000  Uiso   1.00
N733   N     0.87067   0.69260   0.69629   0.00000  Uiso   1.00
N734   N     0.01871   0.71914   0.37219   0.00000  Uiso   1.00
N735   N     0.66598   0.45537   0.44344   0.00000  Uiso   1.00
N736   N     0.80196   0.76723   0.66159   0.00000  Uiso   1.00
