data_job_06933
_audit_creation_date              2018-12-19
_audit_creation_method            'Materials Studio'
_symmetry_space_group_name_H-M    'P1'
_symmetry_Int_Tables_number       1
_symmetry_cell_setting            triclinic
loop_
_symmetry_equiv_pos_as_xyz
  x,y,z
_cell_length_a                    43.2376
_cell_length_b                    22.6910
_cell_length_c                    20.3073
_cell_angle_alpha                 90.0000
_cell_angle_beta                  62.5491
_cell_angle_gamma                 90.0000
loop_
_atom_site_label
_atom_site_type_symbol
_atom_site_fract_x
_atom_site_fract_y
_atom_site_fract_z
_atom_site_U_iso_or_equiv
_atom_site_adp_type
_atom_site_occupancy
C1     C     0.36684   0.44646   0.40994   0.00000  Uiso   1.00
C2     C     0.36683   0.50188   0.36747   0.00000  Uiso   1.00
C3     C     0.34760   0.55255   0.39834   0.00000  Uiso   1.00
C4     C     0.35119   0.59844   0.35010   0.00000  Uiso   1.00
C5     C     0.84781   0.18518   0.29575   0.00000  Uiso   1.00
C6     C     0.35675   0.39591   0.37419   0.00000  Uiso   1.00
C7     C     0.32904   0.35748   0.41071   0.00000  Uiso   1.00
C8     C     0.32415   0.31416   0.36813   0.00000  Uiso   1.00
C9     C     0.30514   0.23636   0.32423   0.00000  Uiso   1.00
C10    C     0.40474   0.43569   0.39184   0.00000  Uiso   1.00
C11    C     0.41739   0.43069   0.44321   0.00000  Uiso   1.00
C12    C     0.45291   0.42084   0.41548   0.00000  Uiso   1.00
C13    C     0.50841   0.40480   0.39899   0.00000  Uiso   1.00
C14    C     0.40742   0.43784   0.26937   0.00000  Uiso   1.00
C15    C     0.38887   0.49719   0.29112   0.00000  Uiso   1.00
C16    C     0.39249   0.54301   0.24281   0.00000  Uiso   1.00
C17    C     0.37327   0.59375   0.27361   0.00000  Uiso   1.00
C18    C     0.37879   0.39123   0.29784   0.00000  Uiso   1.00
C19    C     0.37394   0.34794   0.25519   0.00000  Uiso   1.00
C20    C     0.34623   0.30947   0.29164   0.00000  Uiso   1.00
C21    C     0.42678   0.43100   0.31549   0.00000  Uiso   1.00
C22    C     0.46228   0.42115   0.28768   0.00000  Uiso   1.00
C23    C     0.47499   0.41614   0.33899   0.00000  Uiso   1.00
H24    H     0.34968   0.45010   0.46939   0.00000  Uiso   1.00
H25    H     0.33055   0.55616   0.45743   0.00000  Uiso   1.00
H26    H     0.31200   0.36112   0.46980   0.00000  Uiso   1.00
H27    H     0.40033   0.43431   0.50229   0.00000  Uiso   1.00
H28    H     0.31904   0.67166   0.41050   0.00000  Uiso   1.00
H29    H     0.27993   0.26040   0.43659   0.00000  Uiso   1.00
H30    H     0.46620   0.41474   0.50510   0.00000  Uiso   1.00
H31    H     0.42457   0.43419   0.20993   0.00000  Uiso   1.00
H32    H     0.40955   0.53937   0.18373   0.00000  Uiso   1.00
H33    H     0.39100   0.34433   0.19611   0.00000  Uiso   1.00
H34    H     0.47933   0.41753   0.22859   0.00000  Uiso   1.00
H35    H     0.88316   0.15804   0.18835   0.00000  Uiso   1.00
H36    H     0.34405   0.24677   0.21445   0.00000  Uiso   1.00
H37    H     0.53032   0.40112   0.28295   0.00000  Uiso   1.00
O38    O     0.83986   0.23432   0.28687   0.00000  Uiso   1.00
O39    O     0.28855   0.19475   0.32111   0.00000  Uiso   1.00
O40    O     0.53293   0.39726   0.41099   0.00000  Uiso   1.00
N41    N     0.33620   0.65403   0.36181   0.00000  Uiso   1.00
N42    N     0.29963   0.26952   0.38621   0.00000  Uiso   1.00
N43    N     0.47378   0.41381   0.45025   0.00000  Uiso   1.00
N44    N     0.87070   0.14669   0.24228   0.00000  Uiso   1.00
N45    N     0.33414   0.26219   0.26667   0.00000  Uiso   1.00
N46    N     0.50828   0.40648   0.33072   0.00000  Uiso   1.00
C47    C     0.03460   0.35471   0.38671   0.00000  Uiso   1.00
C48    C     0.02513   0.30019   0.35590   0.00000  Uiso   1.00
C49    C     0.99556   0.26582   0.39346   0.00000  Uiso   1.00
C50    C     0.99164   0.21776   0.35563   0.00000  Uiso   1.00
C51    C     0.97318   0.13509   0.31888   0.00000  Uiso   1.00
C52    C     0.07066   0.34281   0.37995   0.00000  Uiso   1.00
C53    C     0.07936   0.34430   0.43773   0.00000  Uiso   1.00
C54    C     0.11377   0.33213   0.42014   0.00000  Uiso   1.00
C55    C     0.16600   0.31569   0.42071   0.00000  Uiso   1.00
C56    C     0.03928   0.40451   0.33248   0.00000  Uiso   1.00
C57    C     0.02161   0.45787   0.35033   0.00000  Uiso   1.00
C58    C     0.02962   0.49766   0.29278   0.00000  Uiso   1.00
C59    C     0.53313   0.07700   0.21964   0.00000  Uiso   1.00
C60    C     0.08024   0.33047   0.25275   0.00000  Uiso   1.00
C61    C     0.04992   0.28703   0.28314   0.00000  Uiso   1.00
C62    C     0.04605   0.23901   0.24525   0.00000  Uiso   1.00
C63    C     0.01648   0.20458   0.28274   0.00000  Uiso   1.00
C64    C     0.09545   0.32965   0.30719   0.00000  Uiso   1.00
C65    C     0.12986   0.31749   0.28952   0.00000  Uiso   1.00
C66    C     0.13861   0.31895   0.34725   0.00000  Uiso   1.00
C67    C     0.06408   0.39135   0.25971   0.00000  Uiso   1.00
C68    C     0.07211   0.43106   0.20212   0.00000  Uiso   1.00
C69    C     0.05446   0.48447   0.21989   0.00000  Uiso   1.00
H70    H     0.01530   0.36495   0.44336   0.00000  Uiso   1.00
H71    H     0.97638   0.27602   0.44977   0.00000  Uiso   1.00
H72    H     0.06017   0.35449   0.49403   0.00000  Uiso   1.00
H73    H     0.00243   0.46804   0.40665   0.00000  Uiso   1.00
H74    H     0.94416   0.17160   0.42480   0.00000  Uiso   1.00
H75    H     0.12085   0.33708   0.51811   0.00000  Uiso   1.00
H76    H     0.49910   0.07653   0.33386   0.00000  Uiso   1.00
H77    H     0.09954   0.32023   0.19610   0.00000  Uiso   1.00
H78    H     0.06524   0.22884   0.18894   0.00000  Uiso   1.00
H79    H     0.14904   0.30731   0.23320   0.00000  Uiso   1.00
H80    H     0.09130   0.42086   0.14582   0.00000  Uiso   1.00
H81    H     0.01629   0.13330   0.21310   0.00000  Uiso   1.00
H82    H     0.19298   0.29879   0.30642   0.00000  Uiso   1.00
H83    H     0.07122   0.53824   0.12216   0.00000  Uiso   1.00
O84    O     0.95615   0.09313   0.31871   0.00000  Uiso   1.00
O85    O     0.18796   0.31025   0.44113   0.00000  Uiso   1.00
O86    O     0.52822   0.12439   0.19940   0.00000  Uiso   1.00
N87    N     0.96584   0.17513   0.37595   0.00000  Uiso   1.00
N88    N     0.13103   0.32984   0.46320   0.00000  Uiso   1.00
N89    N     0.51721   0.05371   0.29094   0.00000  Uiso   1.00
N90    N     0.00465   0.15453   0.26204   0.00000  Uiso   1.00
N91    N     0.16984   0.30924   0.34929   0.00000  Uiso   1.00
N92    N     0.05602   0.53311   0.17703   0.00000  Uiso   1.00
C93    C     0.24225   0.88018   0.32350   0.00000  Uiso   1.00
C94    C     0.27710   0.88623   0.32473   0.00000  Uiso   1.00
C95    C     0.28552   0.86127   0.37679   0.00000  Uiso   1.00
C96    C     0.31878   0.87200   0.36827   0.00000  Uiso   1.00
C97    C     0.36925   0.87617   0.37909   0.00000  Uiso   1.00
C98    C     0.22929   0.94283   0.32443   0.00000  Uiso   1.00
C99    C     0.19750   0.96546   0.37623   0.00000  Uiso   1.00
C100   C     0.19051   0.02384   0.36745   0.00000  Uiso   1.00
C101   C     0.16674   0.11587   0.37778   0.00000  Uiso   1.00
C102   C     0.25056   0.85497   0.24753   0.00000  Uiso   1.00
C103   C     0.23666   0.80373   0.23467   0.00000  Uiso   1.00
C104   C     0.24758   0.78814   0.16114   0.00000  Uiso   1.00
C105   C     0.75684   0.24376   0.05208   0.00000  Uiso   1.00
C106   C     0.28634   0.94363   0.21578   0.00000  Uiso   1.00
C107   C     0.30105   0.92069   0.26622   0.00000  Uiso   1.00
C108   C     0.33431   0.93146   0.25761   0.00000  Uiso   1.00
C109   C     0.34277   0.90652   0.30965   0.00000  Uiso   1.00
C110   C     0.25324   0.97729   0.26592   0.00000  Uiso   1.00
C111   C     0.24629   0.03565   0.25705   0.00000  Uiso   1.00
C112   C     0.21450   0.05836   0.30883   0.00000  Uiso   1.00
C113   C     0.27452   0.88943   0.18902   0.00000  Uiso   1.00
C114   C     0.28545   0.87392   0.11549   0.00000  Uiso   1.00
C115   C     0.27157   0.82266   0.10253   0.00000  Uiso   1.00
H116   H     0.22360   0.85336   0.36906   0.00000  Uiso   1.00
H117   H     0.26698   0.83461   0.42207   0.00000  Uiso   1.00
H118   H     0.17897   0.93878   0.42150   0.00000  Uiso   1.00
H119   H     0.71813   0.27707   0.27997   0.00000  Uiso   1.00
H120   H     0.32563   0.82903   0.45506   0.00000  Uiso   1.00
H121   H     0.14006   0.04868   0.45385   0.00000  Uiso   1.00
H122   H     0.22263   0.70769   0.15539   0.00000  Uiso   1.00
H123   H     0.30499   0.97046   0.17022   0.00000  Uiso   1.00
H124   H     0.35284   0.95813   0.21232   0.00000  Uiso   1.00
H125   H     0.26483   0.06230   0.21176   0.00000  Uiso   1.00
H126   H     0.30399   0.90060   0.07022   0.00000  Uiso   1.00
H127   H     0.39532   0.92929   0.28482   0.00000  Uiso   1.00
H128   H     0.20974   0.14894   0.28361   0.00000  Uiso   1.00
H129   H     0.29231   0.80795   0.98516   0.00000  Uiso   1.00
O130   O     0.89048   0.36896   0.40123   0.00000  Uiso   1.00
O131   O     0.14701   0.15712   0.39965   0.00000  Uiso   1.00
O132   O     0.25534   0.70975   0.00808   0.00000  Uiso   1.00
N133   N     0.33547   0.85431   0.40920   0.00000  Uiso   1.00
N134   N     0.16197   0.05967   0.40809   0.00000  Uiso   1.00
N135   N     0.73916   0.24088   0.12905   0.00000  Uiso   1.00
N136   N     0.37296   0.90826   0.31760   0.00000  Uiso   1.00
N137   N     0.19947   0.11362   0.31648   0.00000  Uiso   1.00
N138   N     0.27666   0.79483   0.03745   0.00000  Uiso   1.00
C139   C     0.23585   0.06535   0.83278   0.00000  Uiso   1.00
C140   C     0.26988   0.06196   0.83796   0.00000  Uiso   1.00
C141   C     0.27589   0.08668   0.89354   0.00000  Uiso   1.00
C142   C     0.30878   0.07865   0.88831   0.00000  Uiso   1.00
C143   C     0.35768   0.07817   0.90532   0.00000  Uiso   1.00
C144   C     0.22529   0.00180   0.82906   0.00000  Uiso   1.00
C145   C     0.19380   0.97594   0.87715   0.00000  Uiso   1.00
C146   C     0.18915   0.91726   0.86442   0.00000  Uiso   1.00
C147   C     0.66880   0.32340   0.86758   0.00000  Uiso   1.00
C148   C     0.24509   0.09239   0.75722   0.00000  Uiso   1.00
C149   C     0.23023   0.14269   0.74490   0.00000  Uiso   1.00
C150   C     0.24224   0.16028   0.67168   0.00000  Uiso   1.00
C151   C     0.25263   0.20706   0.56329   0.00000  Uiso   1.00
C152   C     0.28359   0.00713   0.72466   0.00000  Uiso   1.00
C153   C     0.29581   0.03034   0.77924   0.00000  Uiso   1.00
C154   C     0.32870   0.02227   0.77392   0.00000  Uiso   1.00
C155   C     0.33475   0.04697   0.82948   0.00000  Uiso   1.00
C156   C     0.25122   0.97017   0.77034   0.00000  Uiso   1.00
C157   C     0.24661   0.91153   0.75753   0.00000  Uiso   1.00
C158   C     0.21512   0.88558   0.80559   0.00000  Uiso   1.00
C159   C     0.27102   0.06077   0.69849   0.00000  Uiso   1.00
C160   C     0.28305   0.07828   0.62528   0.00000  Uiso   1.00
C161   C     0.26822   0.12860   0.61285   0.00000  Uiso   1.00
H162   H     0.21566   0.08996   0.87850   0.00000  Uiso   1.00
H163   H     0.25581   0.11114   0.93898   0.00000  Uiso   1.00
H164   H     0.17374   0.00042   0.92259   0.00000  Uiso   1.00
H165   H     0.21017   0.16715   0.79036   0.00000  Uiso   1.00
H166   H     0.31176   0.12066   0.98016   0.00000  Uiso   1.00
H167   H     0.13869   0.88720   0.94557   0.00000  Uiso   1.00
H168   H     0.21551   0.23878   0.66674   0.00000  Uiso   1.00
H169   H     0.30377   0.98251   0.67894   0.00000  Uiso   1.00
H170   H     0.34876   0.99779   0.72847   0.00000  Uiso   1.00
H171   H     0.26668   0.88707   0.71208   0.00000  Uiso   1.00
H172   H     0.30311   0.05379   0.57985   0.00000  Uiso   1.00
H173   H     0.38720   0.02866   0.80930   0.00000  Uiso   1.00
H174   H     0.21412   0.79520   0.77472   0.00000  Uiso   1.00
H175   H     0.29095   0.14677   0.49588   0.00000  Uiso   1.00
O176   O     0.37748   0.08664   0.93093   0.00000  Uiso   1.00
O177   O     0.65041   0.28035   0.88555   0.00000  Uiso   1.00
O178   O     0.25121   0.24161   0.51972   0.00000  Uiso   1.00
N179   N     0.32334   0.09692   0.93314   0.00000  Uiso   1.00
N180   N     0.16153   0.87865   0.90081   0.00000  Uiso   1.00
N181   N     0.23335   0.20733   0.64012   0.00000  Uiso   1.00
N182   N     0.36394   0.04742   0.84120   0.00000  Uiso   1.00
N183   N     0.20213   0.82914   0.80888   0.00000  Uiso   1.00
N184   N     0.27394   0.15783   0.54819   0.00000  Uiso   1.00
C185   C     0.36661   0.50435   0.90910   0.00000  Uiso   1.00
C186   C     0.36591   0.44713   0.87042   0.00000  Uiso   1.00
C187   C     0.34575   0.39799   0.90453   0.00000  Uiso   1.00
C188   C     0.34883   0.35002   0.85948   0.00000  Uiso   1.00
C189   C     0.34431   0.26100   0.81104   0.00000  Uiso   1.00
C190   C     0.35766   0.55326   0.86925   0.00000  Uiso   1.00
C191   C     0.33057   0.59336   0.90237   0.00000  Uiso   1.00
C192   C     0.32670   0.63474   0.85633   0.00000  Uiso   1.00
C193   C     0.80939   0.21052   0.80607   0.00000  Uiso   1.00
C194   C     0.40457   0.51415   0.89123   0.00000  Uiso   1.00
C195   C     0.41692   0.52138   0.94283   0.00000  Uiso   1.00
C196   C     0.45254   0.52983   0.91529   0.00000  Uiso   1.00
C197   C     0.00806   0.04489   0.89917   0.00000  Uiso   1.00
C198   C     0.40791   0.50652   0.76844   0.00000  Uiso   1.00
C199   C     0.38834   0.44831   0.79402   0.00000  Uiso   1.00
C200   C     0.39145   0.40040   0.74891   0.00000  Uiso   1.00
C201   C     0.37130   0.35120   0.78294   0.00000  Uiso   1.00
C202   C     0.38009   0.55444   0.79285   0.00000  Uiso   1.00
C203   C     0.37626   0.59577   0.74675   0.00000  Uiso   1.00
C204   C     0.34917   0.63592   0.77979   0.00000  Uiso   1.00
C205   C     0.42700   0.51533   0.81482   0.00000  Uiso   1.00
C206   C     0.46261   0.52378   0.78720   0.00000  Uiso   1.00
C207   C     0.97501   0.03102   0.83875   0.00000  Uiso   1.00
H208   H     0.34915   0.50343   0.96858   0.00000  Uiso   1.00
H209   H     0.32839   0.39710   0.96366   0.00000  Uiso   1.00
H210   H     0.31321   0.59244   0.96149   0.00000  Uiso   1.00
H211   H     0.39955   0.52046   0.00194   0.00000  Uiso   1.00
H212   H     0.31527   0.27973   0.92450   0.00000  Uiso   1.00
H213   H     0.28327   0.69164   0.91995   0.00000  Uiso   1.00
H214   H     0.96532   0.03986   0.00525   0.00000  Uiso   1.00
H215   H     0.42538   0.50745   0.70895   0.00000  Uiso   1.00
H216   H     0.40881   0.40133   0.68978   0.00000  Uiso   1.00
H217   H     0.39363   0.59667   0.68763   0.00000  Uiso   1.00
H218   H     0.97996   0.02469   0.72808   0.00000  Uiso   1.00
H219   H     0.38054   0.28317   0.70222   0.00000  Uiso   1.00
H220   H     0.84854   0.19508   0.69767   0.00000  Uiso   1.00
H221   H     0.03059   0.04330   0.78297   0.00000  Uiso   1.00
O222   O     0.33562   0.21158   0.80543   0.00000  Uiso   1.00
O223   O     0.79364   0.25199   0.79947   0.00000  Uiso   1.00
O224   O     0.03249   0.05286   0.91138   0.00000  Uiso   1.00
N225   N     0.33291   0.29510   0.87482   0.00000  Uiso   1.00
N226   N     0.30299   0.68021   0.87056   0.00000  Uiso   1.00
N227   N     0.97319   0.03832   0.95031   0.00000  Uiso   1.00
N228   N     0.36803   0.29695   0.75521   0.00000  Uiso   1.00
N229   N     0.83811   0.18205   0.75096   0.00000  Uiso   1.00
N230   N     0.00831   0.04017   0.83070   0.00000  Uiso   1.00
C231   C     0.53608   0.10015   0.89391   0.00000  Uiso   1.00
C232   C     0.52589   0.15200   0.86018   0.00000  Uiso   1.00
C233   C     0.49804   0.18983   0.89816   0.00000  Uiso   1.00
C234   C     0.49308   0.23457   0.85734   0.00000  Uiso   1.00
C235   C     0.47390   0.31409   0.81655   0.00000  Uiso   1.00
C236   C     0.57391   0.11070   0.87654   0.00000  Uiso   1.00
C237   C     0.58644   0.11380   0.92827   0.00000  Uiso   1.00
C238   C     0.62190   0.12376   0.90121   0.00000  Uiso   1.00
C239   C     0.17728   0.63912   0.88580   0.00000  Uiso   1.00
C240   C     0.53635   0.04610   0.84903   0.00000  Uiso   1.00
C241   C     0.01729   0.49487   0.87764   0.00000  Uiso   1.00
C242   C     0.02114   0.45044   0.82743   0.00000  Uiso   1.00
C243   C     0.01820   0.36549   0.76933   0.00000  Uiso   1.00
C244   C     0.57681   0.11232   0.75386   0.00000  Uiso   1.00
C245   C     0.54801   0.15861   0.78411   0.00000  Uiso   1.00
C246   C     0.54309   0.20329   0.74322   0.00000  Uiso   1.00
C247   C     0.51524   0.24119   0.78113   0.00000  Uiso   1.00
C248   C     0.59603   0.11731   0.80047   0.00000  Uiso   1.00
C249   C     0.63149   0.12726   0.77333   0.00000  Uiso   1.00
C250   C     0.14406   0.63038   0.82500   0.00000  Uiso   1.00
C251   C     0.55847   0.05270   0.77297   0.00000  Uiso   1.00
C252   C     0.06235   0.50834   0.72270   0.00000  Uiso   1.00
C253   C     0.04330   0.45706   0.75122   0.00000  Uiso   1.00
H254   H     0.51886   0.09501   0.95313   0.00000  Uiso   1.00
H255   H     0.48093   0.18471   0.95703   0.00000  Uiso   1.00
H256   H     0.56931   0.10868   0.98713   0.00000  Uiso   1.00
H257   H     0.00018   0.48978   0.93651   0.00000  Uiso   1.00
H258   H     0.44864   0.28709   0.92782   0.00000  Uiso   1.00
H259   H     0.13500   0.62676   0.99128   0.00000  Uiso   1.00
H260   H     0.98922   0.37602   0.88454   0.00000  Uiso   1.00
H261   H     0.59403   0.11746   0.69464   0.00000  Uiso   1.00
H262   H     0.56022   0.20840   0.68435   0.00000  Uiso   1.00
H263   H     0.14860   0.63237   0.71446   0.00000  Uiso   1.00
H264   H     0.07947   0.51346   0.66384   0.00000  Uiso   1.00
H265   H     0.51299   0.30632   0.70650   0.00000  Uiso   1.00
H266   H     0.19935   0.64599   0.76997   0.00000  Uiso   1.00
H267   H     0.05357   0.39525   0.66323   0.00000  Uiso   1.00
O268   O     0.45722   0.35613   0.81506   0.00000  Uiso   1.00
O269   O     0.20172   0.64577   0.89833   0.00000  Uiso   1.00
O270   O     0.01046   0.31681   0.75829   0.00000  Uiso   1.00
N271   N     0.46842   0.27913   0.87714   0.00000  Uiso   1.00
N272   N     0.14265   0.62924   0.93648   0.00000  Uiso   1.00
N273   N     0.00637   0.39481   0.83669   0.00000  Uiso   1.00
N274   N     0.50304   0.28947   0.75805   0.00000  Uiso   1.00
N275   N     0.17728   0.63958   0.81739   0.00000  Uiso   1.00
N276   N     0.04100   0.40516   0.71760   0.00000  Uiso   1.00
C277   C     0.86684   0.94646   0.40994   0.00000  Uiso   1.00
C278   C     0.86683   0.00188   0.36747   0.00000  Uiso   1.00
C279   C     0.84760   0.05255   0.39834   0.00000  Uiso   1.00
C280   C     0.85119   0.09844   0.35010   0.00000  Uiso   1.00
C281   C     0.34781   0.68518   0.29575   0.00000  Uiso   1.00
C282   C     0.85675   0.89591   0.37419   0.00000  Uiso   1.00
C283   C     0.82904   0.85748   0.41071   0.00000  Uiso   1.00
C284   C     0.82415   0.81416   0.36813   0.00000  Uiso   1.00
C285   C     0.80514   0.73636   0.32423   0.00000  Uiso   1.00
C286   C     0.90474   0.93569   0.39184   0.00000  Uiso   1.00
C287   C     0.91739   0.93069   0.44321   0.00000  Uiso   1.00
C288   C     0.95291   0.92084   0.41548   0.00000  Uiso   1.00
C289   C     0.00841   0.90480   0.39899   0.00000  Uiso   1.00
C290   C     0.90742   0.93784   0.26937   0.00000  Uiso   1.00
C291   C     0.88887   0.99719   0.29112   0.00000  Uiso   1.00
C292   C     0.89249   0.04301   0.24281   0.00000  Uiso   1.00
C293   C     0.87327   0.09375   0.27361   0.00000  Uiso   1.00
C294   C     0.87879   0.89123   0.29784   0.00000  Uiso   1.00
C295   C     0.87394   0.84794   0.25519   0.00000  Uiso   1.00
C296   C     0.84623   0.80947   0.29164   0.00000  Uiso   1.00
C297   C     0.92678   0.93100   0.31549   0.00000  Uiso   1.00
C298   C     0.96228   0.92115   0.28768   0.00000  Uiso   1.00
C299   C     0.97499   0.91614   0.33899   0.00000  Uiso   1.00
H300   H     0.84968   0.95010   0.46939   0.00000  Uiso   1.00
H301   H     0.83055   0.05616   0.45743   0.00000  Uiso   1.00
H302   H     0.81200   0.86112   0.46980   0.00000  Uiso   1.00
H303   H     0.90033   0.93431   0.50229   0.00000  Uiso   1.00
H304   H     0.81904   0.17166   0.41050   0.00000  Uiso   1.00
H305   H     0.77993   0.76040   0.43659   0.00000  Uiso   1.00
H306   H     0.96620   0.91474   0.50510   0.00000  Uiso   1.00
H307   H     0.92457   0.93419   0.20993   0.00000  Uiso   1.00
H308   H     0.90955   0.03937   0.18373   0.00000  Uiso   1.00
H309   H     0.89100   0.84433   0.19611   0.00000  Uiso   1.00
H310   H     0.97933   0.91753   0.22859   0.00000  Uiso   1.00
H311   H     0.38316   0.65804   0.18835   0.00000  Uiso   1.00
H312   H     0.84405   0.74677   0.21445   0.00000  Uiso   1.00
H313   H     0.03032   0.90112   0.28295   0.00000  Uiso   1.00
O314   O     0.33986   0.73432   0.28687   0.00000  Uiso   1.00
O315   O     0.78855   0.69475   0.32111   0.00000  Uiso   1.00
O316   O     0.03293   0.89726   0.41099   0.00000  Uiso   1.00
N317   N     0.83620   0.15403   0.36181   0.00000  Uiso   1.00
N318   N     0.79963   0.76952   0.38621   0.00000  Uiso   1.00
N319   N     0.97378   0.91381   0.45025   0.00000  Uiso   1.00
N320   N     0.37070   0.64669   0.24228   0.00000  Uiso   1.00
N321   N     0.83414   0.76219   0.26667   0.00000  Uiso   1.00
N322   N     0.00828   0.90648   0.33072   0.00000  Uiso   1.00
C323   C     0.53460   0.85471   0.38671   0.00000  Uiso   1.00
C324   C     0.52513   0.80019   0.35590   0.00000  Uiso   1.00
C325   C     0.49556   0.76582   0.39346   0.00000  Uiso   1.00
C326   C     0.49164   0.71776   0.35563   0.00000  Uiso   1.00
C327   C     0.47318   0.63509   0.31888   0.00000  Uiso   1.00
C328   C     0.57066   0.84281   0.37995   0.00000  Uiso   1.00
C329   C     0.57936   0.84430   0.43773   0.00000  Uiso   1.00
C330   C     0.61377   0.83213   0.42014   0.00000  Uiso   1.00
C331   C     0.66600   0.81569   0.42071   0.00000  Uiso   1.00
C332   C     0.53928   0.90451   0.33248   0.00000  Uiso   1.00
C333   C     0.52161   0.95787   0.35033   0.00000  Uiso   1.00
C334   C     0.52962   0.99766   0.29278   0.00000  Uiso   1.00
C335   C     0.03313   0.57700   0.21964   0.00000  Uiso   1.00
C336   C     0.58024   0.83047   0.25275   0.00000  Uiso   1.00
C337   C     0.54992   0.78703   0.28314   0.00000  Uiso   1.00
C338   C     0.54605   0.73901   0.24525   0.00000  Uiso   1.00
C339   C     0.51648   0.70458   0.28274   0.00000  Uiso   1.00
C340   C     0.59545   0.82965   0.30719   0.00000  Uiso   1.00
C341   C     0.62986   0.81749   0.28952   0.00000  Uiso   1.00
C342   C     0.63861   0.81895   0.34725   0.00000  Uiso   1.00
C343   C     0.56408   0.89135   0.25971   0.00000  Uiso   1.00
C344   C     0.57211   0.93106   0.20212   0.00000  Uiso   1.00
C345   C     0.55446   0.98447   0.21989   0.00000  Uiso   1.00
H346   H     0.51530   0.86495   0.44336   0.00000  Uiso   1.00
H347   H     0.47638   0.77602   0.44977   0.00000  Uiso   1.00
H348   H     0.56017   0.85449   0.49403   0.00000  Uiso   1.00
H349   H     0.50243   0.96804   0.40665   0.00000  Uiso   1.00
H350   H     0.44416   0.67160   0.42480   0.00000  Uiso   1.00
H351   H     0.62085   0.83708   0.51811   0.00000  Uiso   1.00
H352   H     0.99910   0.57653   0.33386   0.00000  Uiso   1.00
H353   H     0.59954   0.82023   0.19610   0.00000  Uiso   1.00
H354   H     0.56524   0.72884   0.18894   0.00000  Uiso   1.00
H355   H     0.64904   0.80731   0.23320   0.00000  Uiso   1.00
H356   H     0.59130   0.92086   0.14582   0.00000  Uiso   1.00
H357   H     0.51629   0.63330   0.21310   0.00000  Uiso   1.00
H358   H     0.69298   0.79879   0.30642   0.00000  Uiso   1.00
H359   H     0.57122   0.03824   0.12216   0.00000  Uiso   1.00
O360   O     0.45615   0.59313   0.31871   0.00000  Uiso   1.00
O361   O     0.68796   0.81025   0.44113   0.00000  Uiso   1.00
O362   O     0.02822   0.62439   0.19940   0.00000  Uiso   1.00
N363   N     0.46584   0.67513   0.37595   0.00000  Uiso   1.00
N364   N     0.63103   0.82984   0.46320   0.00000  Uiso   1.00
N365   N     0.01721   0.55371   0.29094   0.00000  Uiso   1.00
N366   N     0.50465   0.65453   0.26204   0.00000  Uiso   1.00
N367   N     0.66984   0.80924   0.34929   0.00000  Uiso   1.00
N368   N     0.55602   0.03311   0.17703   0.00000  Uiso   1.00
C369   C     0.74225   0.38018   0.32350   0.00000  Uiso   1.00
C370   C     0.77710   0.38623   0.32473   0.00000  Uiso   1.00
C371   C     0.78552   0.36127   0.37679   0.00000  Uiso   1.00
C372   C     0.81878   0.37200   0.36827   0.00000  Uiso   1.00
C373   C     0.86925   0.37617   0.37909   0.00000  Uiso   1.00
C374   C     0.72929   0.44283   0.32443   0.00000  Uiso   1.00
C375   C     0.69750   0.46546   0.37623   0.00000  Uiso   1.00
C376   C     0.69051   0.52384   0.36745   0.00000  Uiso   1.00
C377   C     0.66674   0.61587   0.37778   0.00000  Uiso   1.00
C378   C     0.75056   0.35497   0.24753   0.00000  Uiso   1.00
C379   C     0.73666   0.30373   0.23467   0.00000  Uiso   1.00
C380   C     0.74758   0.28814   0.16114   0.00000  Uiso   1.00
C381   C     0.25684   0.74376   0.05208   0.00000  Uiso   1.00
C382   C     0.78634   0.44363   0.21578   0.00000  Uiso   1.00
C383   C     0.80105   0.42069   0.26622   0.00000  Uiso   1.00
C384   C     0.83431   0.43146   0.25761   0.00000  Uiso   1.00
C385   C     0.84277   0.40652   0.30965   0.00000  Uiso   1.00
C386   C     0.75324   0.47729   0.26592   0.00000  Uiso   1.00
C387   C     0.74629   0.53565   0.25705   0.00000  Uiso   1.00
C388   C     0.71450   0.55836   0.30883   0.00000  Uiso   1.00
C389   C     0.77452   0.38943   0.18902   0.00000  Uiso   1.00
C390   C     0.78545   0.37392   0.11549   0.00000  Uiso   1.00
C391   C     0.77157   0.32266   0.10253   0.00000  Uiso   1.00
H392   H     0.72360   0.35336   0.36906   0.00000  Uiso   1.00
H393   H     0.76698   0.33461   0.42207   0.00000  Uiso   1.00
H394   H     0.67897   0.43878   0.42150   0.00000  Uiso   1.00
H395   H     0.21813   0.77707   0.27997   0.00000  Uiso   1.00
H396   H     0.82563   0.32903   0.45506   0.00000  Uiso   1.00
H397   H     0.64006   0.54868   0.45385   0.00000  Uiso   1.00
H398   H     0.72263   0.20769   0.15539   0.00000  Uiso   1.00
H399   H     0.80499   0.47046   0.17022   0.00000  Uiso   1.00
H400   H     0.85284   0.45813   0.21232   0.00000  Uiso   1.00
H401   H     0.76483   0.56230   0.21176   0.00000  Uiso   1.00
H402   H     0.80399   0.40060   0.07022   0.00000  Uiso   1.00
H403   H     0.89532   0.42929   0.28482   0.00000  Uiso   1.00
H404   H     0.70974   0.64894   0.28361   0.00000  Uiso   1.00
H405   H     0.79231   0.30795   0.98516   0.00000  Uiso   1.00
O406   O     0.39048   0.86896   0.40123   0.00000  Uiso   1.00
O407   O     0.64701   0.65712   0.39965   0.00000  Uiso   1.00
O408   O     0.75534   0.20975   0.00808   0.00000  Uiso   1.00
N409   N     0.83547   0.35431   0.40920   0.00000  Uiso   1.00
N410   N     0.66197   0.55967   0.40809   0.00000  Uiso   1.00
N411   N     0.23916   0.74088   0.12905   0.00000  Uiso   1.00
N412   N     0.87296   0.40826   0.31760   0.00000  Uiso   1.00
N413   N     0.69947   0.61362   0.31648   0.00000  Uiso   1.00
N414   N     0.77666   0.29483   0.03745   0.00000  Uiso   1.00
C415   C     0.73585   0.56535   0.83278   0.00000  Uiso   1.00
C416   C     0.76988   0.56196   0.83796   0.00000  Uiso   1.00
C417   C     0.77589   0.58668   0.89354   0.00000  Uiso   1.00
C418   C     0.80878   0.57865   0.88831   0.00000  Uiso   1.00
C419   C     0.85768   0.57817   0.90532   0.00000  Uiso   1.00
C420   C     0.72529   0.50180   0.82906   0.00000  Uiso   1.00
C421   C     0.69380   0.47594   0.87715   0.00000  Uiso   1.00
C422   C     0.68915   0.41726   0.86442   0.00000  Uiso   1.00
C423   C     0.16880   0.82340   0.86758   0.00000  Uiso   1.00
C424   C     0.74509   0.59239   0.75722   0.00000  Uiso   1.00
C425   C     0.73023   0.64269   0.74490   0.00000  Uiso   1.00
C426   C     0.74224   0.66028   0.67168   0.00000  Uiso   1.00
C427   C     0.75263   0.70706   0.56329   0.00000  Uiso   1.00
C428   C     0.78359   0.50713   0.72466   0.00000  Uiso   1.00
C429   C     0.79581   0.53034   0.77924   0.00000  Uiso   1.00
C430   C     0.82870   0.52227   0.77392   0.00000  Uiso   1.00
C431   C     0.83475   0.54697   0.82948   0.00000  Uiso   1.00
C432   C     0.75122   0.47017   0.77034   0.00000  Uiso   1.00
C433   C     0.74661   0.41153   0.75753   0.00000  Uiso   1.00
C434   C     0.71512   0.38558   0.80559   0.00000  Uiso   1.00
C435   C     0.77102   0.56077   0.69849   0.00000  Uiso   1.00
C436   C     0.78305   0.57828   0.62528   0.00000  Uiso   1.00
C437   C     0.76822   0.62860   0.61285   0.00000  Uiso   1.00
H438   H     0.71566   0.58996   0.87850   0.00000  Uiso   1.00
H439   H     0.75581   0.61114   0.93898   0.00000  Uiso   1.00
H440   H     0.67374   0.50042   0.92259   0.00000  Uiso   1.00
H441   H     0.71017   0.66715   0.79036   0.00000  Uiso   1.00
H442   H     0.81176   0.62066   0.98016   0.00000  Uiso   1.00
H443   H     0.63869   0.38720   0.94557   0.00000  Uiso   1.00
H444   H     0.71551   0.73878   0.66674   0.00000  Uiso   1.00
H445   H     0.80377   0.48251   0.67894   0.00000  Uiso   1.00
H446   H     0.84876   0.49779   0.72847   0.00000  Uiso   1.00
H447   H     0.76668   0.38707   0.71208   0.00000  Uiso   1.00
H448   H     0.80311   0.55379   0.57985   0.00000  Uiso   1.00
H449   H     0.88720   0.52866   0.80930   0.00000  Uiso   1.00
H450   H     0.71412   0.29520   0.77472   0.00000  Uiso   1.00
H451   H     0.79095   0.64677   0.49588   0.00000  Uiso   1.00
O452   O     0.87748   0.58664   0.93093   0.00000  Uiso   1.00
O453   O     0.15041   0.78035   0.88555   0.00000  Uiso   1.00
O454   O     0.75121   0.74161   0.51972   0.00000  Uiso   1.00
N455   N     0.82334   0.59692   0.93314   0.00000  Uiso   1.00
N456   N     0.66153   0.37865   0.90081   0.00000  Uiso   1.00
N457   N     0.73335   0.70733   0.64012   0.00000  Uiso   1.00
N458   N     0.86394   0.54742   0.84120   0.00000  Uiso   1.00
N459   N     0.70213   0.32914   0.80888   0.00000  Uiso   1.00
N460   N     0.77394   0.65783   0.54819   0.00000  Uiso   1.00
C461   C     0.86661   0.00435   0.90910   0.00000  Uiso   1.00
C462   C     0.86591   0.94713   0.87042   0.00000  Uiso   1.00
C463   C     0.84575   0.89799   0.90453   0.00000  Uiso   1.00
C464   C     0.84883   0.85002   0.85948   0.00000  Uiso   1.00
C465   C     0.84431   0.76100   0.81104   0.00000  Uiso   1.00
C466   C     0.85766   0.05326   0.86925   0.00000  Uiso   1.00
C467   C     0.83057   0.09336   0.90237   0.00000  Uiso   1.00
C468   C     0.82670   0.13474   0.85633   0.00000  Uiso   1.00
C469   C     0.30939   0.71052   0.80607   0.00000  Uiso   1.00
C470   C     0.90457   0.01415   0.89123   0.00000  Uiso   1.00
C471   C     0.91692   0.02138   0.94283   0.00000  Uiso   1.00
C472   C     0.95254   0.02983   0.91529   0.00000  Uiso   1.00
C473   C     0.50806   0.54489   0.89917   0.00000  Uiso   1.00
C474   C     0.90791   0.00652   0.76844   0.00000  Uiso   1.00
C475   C     0.88834   0.94831   0.79402   0.00000  Uiso   1.00
C476   C     0.89145   0.90040   0.74891   0.00000  Uiso   1.00
C477   C     0.87130   0.85120   0.78294   0.00000  Uiso   1.00
C478   C     0.88009   0.05444   0.79285   0.00000  Uiso   1.00
C479   C     0.87626   0.09577   0.74675   0.00000  Uiso   1.00
C480   C     0.84917   0.13592   0.77979   0.00000  Uiso   1.00
C481   C     0.92700   0.01533   0.81482   0.00000  Uiso   1.00
C482   C     0.96261   0.02378   0.78720   0.00000  Uiso   1.00
C483   C     0.47501   0.53102   0.83875   0.00000  Uiso   1.00
H484   H     0.84915   0.00343   0.96858   0.00000  Uiso   1.00
H485   H     0.82839   0.89710   0.96366   0.00000  Uiso   1.00
H486   H     0.81321   0.09244   0.96149   0.00000  Uiso   1.00
H487   H     0.89955   0.02046   0.00194   0.00000  Uiso   1.00
H488   H     0.81527   0.77973   0.92450   0.00000  Uiso   1.00
H489   H     0.78327   0.19164   0.91995   0.00000  Uiso   1.00
H490   H     0.46532   0.53986   0.00525   0.00000  Uiso   1.00
H491   H     0.92538   0.00745   0.70895   0.00000  Uiso   1.00
H492   H     0.90881   0.90133   0.68978   0.00000  Uiso   1.00
H493   H     0.89363   0.09667   0.68763   0.00000  Uiso   1.00
H494   H     0.47996   0.52469   0.72808   0.00000  Uiso   1.00
H495   H     0.88054   0.78317   0.70222   0.00000  Uiso   1.00
H496   H     0.34854   0.69508   0.69767   0.00000  Uiso   1.00
H497   H     0.53059   0.54330   0.78297   0.00000  Uiso   1.00
O498   O     0.83562   0.71158   0.80543   0.00000  Uiso   1.00
O499   O     0.29364   0.75199   0.79947   0.00000  Uiso   1.00
O500   O     0.53249   0.55286   0.91138   0.00000  Uiso   1.00
N501   N     0.83291   0.79510   0.87482   0.00000  Uiso   1.00
N502   N     0.80299   0.18021   0.87056   0.00000  Uiso   1.00
N503   N     0.47319   0.53832   0.95031   0.00000  Uiso   1.00
N504   N     0.86803   0.79695   0.75521   0.00000  Uiso   1.00
N505   N     0.33811   0.68205   0.75096   0.00000  Uiso   1.00
N506   N     0.50831   0.54017   0.83070   0.00000  Uiso   1.00
C507   C     0.03608   0.60015   0.89391   0.00000  Uiso   1.00
C508   C     0.02589   0.65200   0.86018   0.00000  Uiso   1.00
C509   C     0.99804   0.68983   0.89816   0.00000  Uiso   1.00
C510   C     0.99308   0.73457   0.85734   0.00000  Uiso   1.00
C511   C     0.97390   0.81409   0.81655   0.00000  Uiso   1.00
C512   C     0.07391   0.61070   0.87654   0.00000  Uiso   1.00
C513   C     0.08644   0.61380   0.92827   0.00000  Uiso   1.00
C514   C     0.12190   0.62376   0.90121   0.00000  Uiso   1.00
C515   C     0.67728   0.13912   0.88580   0.00000  Uiso   1.00
C516   C     0.03635   0.54610   0.84903   0.00000  Uiso   1.00
C517   C     0.51729   0.99487   0.87764   0.00000  Uiso   1.00
C518   C     0.52114   0.95044   0.82743   0.00000  Uiso   1.00
C519   C     0.51820   0.86549   0.76933   0.00000  Uiso   1.00
C520   C     0.07681   0.61232   0.75386   0.00000  Uiso   1.00
C521   C     0.04801   0.65861   0.78411   0.00000  Uiso   1.00
C522   C     0.04309   0.70329   0.74322   0.00000  Uiso   1.00
C523   C     0.01524   0.74119   0.78113   0.00000  Uiso   1.00
C524   C     0.09603   0.61731   0.80047   0.00000  Uiso   1.00
C525   C     0.13149   0.62726   0.77333   0.00000  Uiso   1.00
C526   C     0.64406   0.13038   0.82500   0.00000  Uiso   1.00
C527   C     0.05847   0.55270   0.77297   0.00000  Uiso   1.00
C528   C     0.56235   0.00834   0.72270   0.00000  Uiso   1.00
C529   C     0.54330   0.95706   0.75122   0.00000  Uiso   1.00
H530   H     0.01886   0.59501   0.95313   0.00000  Uiso   1.00
H531   H     0.98093   0.68471   0.95703   0.00000  Uiso   1.00
H532   H     0.06931   0.60868   0.98713   0.00000  Uiso   1.00
H533   H     0.50018   0.98978   0.93651   0.00000  Uiso   1.00
H534   H     0.94864   0.78709   0.92782   0.00000  Uiso   1.00
H535   H     0.63500   0.12676   0.99128   0.00000  Uiso   1.00
H536   H     0.48922   0.87602   0.88454   0.00000  Uiso   1.00
H537   H     0.09403   0.61746   0.69464   0.00000  Uiso   1.00
H538   H     0.06022   0.70840   0.68435   0.00000  Uiso   1.00
H539   H     0.64860   0.13237   0.71446   0.00000  Uiso   1.00
H540   H     0.57947   0.01346   0.66384   0.00000  Uiso   1.00
H541   H     0.01299   0.80632   0.70650   0.00000  Uiso   1.00
H542   H     0.69935   0.14599   0.76997   0.00000  Uiso   1.00
H543   H     0.55357   0.89525   0.66323   0.00000  Uiso   1.00
O544   O     0.95722   0.85613   0.81506   0.00000  Uiso   1.00
O545   O     0.70172   0.14577   0.89833   0.00000  Uiso   1.00
O546   O     0.51046   0.81681   0.75829   0.00000  Uiso   1.00
N547   N     0.96842   0.77913   0.87714   0.00000  Uiso   1.00
N548   N     0.64265   0.12924   0.93648   0.00000  Uiso   1.00
N549   N     0.50637   0.89481   0.83669   0.00000  Uiso   1.00
N550   N     0.00304   0.78947   0.75805   0.00000  Uiso   1.00
N551   N     0.67728   0.13958   0.81739   0.00000  Uiso   1.00
N552   N     0.54100   0.90516   0.71760   0.00000  Uiso   1.00
C553   C     0.63316   0.44646   0.59006   0.00000  Uiso   1.00
C554   C     0.63317   0.50188   0.63253   0.00000  Uiso   1.00
C555   C     0.65240   0.55255   0.60166   0.00000  Uiso   1.00
C556   C     0.64881   0.59844   0.64990   0.00000  Uiso   1.00
C557   C     0.15219   0.18518   0.70425   0.00000  Uiso   1.00
C558   C     0.64325   0.39591   0.62581   0.00000  Uiso   1.00
C559   C     0.67096   0.35748   0.58929   0.00000  Uiso   1.00
C560   C     0.67585   0.31416   0.63187   0.00000  Uiso   1.00
C561   C     0.69486   0.23636   0.67577   0.00000  Uiso   1.00
C562   C     0.59526   0.43569   0.60816   0.00000  Uiso   1.00
C563   C     0.58261   0.43069   0.55679   0.00000  Uiso   1.00
C564   C     0.54709   0.42084   0.58452   0.00000  Uiso   1.00
C565   C     0.49159   0.40480   0.60101   0.00000  Uiso   1.00
C566   C     0.59258   0.43784   0.73063   0.00000  Uiso   1.00
C567   C     0.61113   0.49719   0.70888   0.00000  Uiso   1.00
C568   C     0.60751   0.54301   0.75719   0.00000  Uiso   1.00
C569   C     0.62673   0.59375   0.72639   0.00000  Uiso   1.00
C570   C     0.62121   0.39123   0.70216   0.00000  Uiso   1.00
C571   C     0.62606   0.34794   0.74481   0.00000  Uiso   1.00
C572   C     0.65377   0.30947   0.70836   0.00000  Uiso   1.00
C573   C     0.57322   0.43100   0.68451   0.00000  Uiso   1.00
C574   C     0.53772   0.42115   0.71232   0.00000  Uiso   1.00
C575   C     0.52501   0.41614   0.66101   0.00000  Uiso   1.00
H576   H     0.65032   0.45010   0.53061   0.00000  Uiso   1.00
H577   H     0.66945   0.55616   0.54257   0.00000  Uiso   1.00
H578   H     0.68800   0.36112   0.53020   0.00000  Uiso   1.00
H579   H     0.59967   0.43431   0.49771   0.00000  Uiso   1.00
H580   H     0.68096   0.67166   0.58950   0.00000  Uiso   1.00
H581   H     0.72007   0.26040   0.56341   0.00000  Uiso   1.00
H582   H     0.53380   0.41474   0.49490   0.00000  Uiso   1.00
H583   H     0.57543   0.43419   0.79007   0.00000  Uiso   1.00
H584   H     0.59045   0.53937   0.81627   0.00000  Uiso   1.00
H585   H     0.60900   0.34433   0.80389   0.00000  Uiso   1.00
H586   H     0.52067   0.41753   0.77141   0.00000  Uiso   1.00
H587   H     0.11684   0.15804   0.81165   0.00000  Uiso   1.00
H588   H     0.65595   0.24677   0.78555   0.00000  Uiso   1.00
H589   H     0.46968   0.40112   0.71705   0.00000  Uiso   1.00
O590   O     0.16014   0.23432   0.71313   0.00000  Uiso   1.00
O591   O     0.71145   0.19475   0.67889   0.00000  Uiso   1.00
O592   O     0.46707   0.39726   0.58901   0.00000  Uiso   1.00
N593   N     0.66380   0.65403   0.63819   0.00000  Uiso   1.00
N594   N     0.70037   0.26952   0.61379   0.00000  Uiso   1.00
N595   N     0.52622   0.41381   0.54975   0.00000  Uiso   1.00
N596   N     0.12930   0.14669   0.75772   0.00000  Uiso   1.00
N597   N     0.66586   0.26219   0.73333   0.00000  Uiso   1.00
N598   N     0.49172   0.40648   0.66928   0.00000  Uiso   1.00
C599   C     0.96540   0.35471   0.61329   0.00000  Uiso   1.00
C600   C     0.97487   0.30019   0.64410   0.00000  Uiso   1.00
C601   C     0.00444   0.26582   0.60654   0.00000  Uiso   1.00
C602   C     0.00836   0.21776   0.64437   0.00000  Uiso   1.00
C603   C     0.02682   0.13509   0.68112   0.00000  Uiso   1.00
C604   C     0.92934   0.34281   0.62005   0.00000  Uiso   1.00
C605   C     0.92064   0.34430   0.56227   0.00000  Uiso   1.00
C606   C     0.88623   0.33213   0.57986   0.00000  Uiso   1.00
C607   C     0.83400   0.31569   0.57929   0.00000  Uiso   1.00
C608   C     0.96072   0.40451   0.66752   0.00000  Uiso   1.00
C609   C     0.97839   0.45787   0.64967   0.00000  Uiso   1.00
C610   C     0.97038   0.49766   0.70722   0.00000  Uiso   1.00
C611   C     0.46687   0.07700   0.78036   0.00000  Uiso   1.00
C612   C     0.91976   0.33047   0.74725   0.00000  Uiso   1.00
C613   C     0.95008   0.28703   0.71686   0.00000  Uiso   1.00
C614   C     0.95395   0.23901   0.75475   0.00000  Uiso   1.00
C615   C     0.98352   0.20458   0.71726   0.00000  Uiso   1.00
C616   C     0.90455   0.32965   0.69281   0.00000  Uiso   1.00
C617   C     0.87014   0.31749   0.71048   0.00000  Uiso   1.00
C618   C     0.86139   0.31895   0.65275   0.00000  Uiso   1.00
C619   C     0.93592   0.39135   0.74029   0.00000  Uiso   1.00
C620   C     0.92789   0.43106   0.79788   0.00000  Uiso   1.00
C621   C     0.94554   0.48447   0.78011   0.00000  Uiso   1.00
H622   H     0.98470   0.36495   0.55664   0.00000  Uiso   1.00
H623   H     0.02362   0.27602   0.55023   0.00000  Uiso   1.00
H624   H     0.93983   0.35449   0.50597   0.00000  Uiso   1.00
H625   H     0.99757   0.46804   0.59335   0.00000  Uiso   1.00
H626   H     0.05584   0.17160   0.57520   0.00000  Uiso   1.00
H627   H     0.87915   0.33708   0.48189   0.00000  Uiso   1.00
H628   H     0.50090   0.07653   0.66614   0.00000  Uiso   1.00
H629   H     0.90046   0.32023   0.80390   0.00000  Uiso   1.00
H630   H     0.93476   0.22884   0.81106   0.00000  Uiso   1.00
H631   H     0.85096   0.30731   0.76680   0.00000  Uiso   1.00
H632   H     0.90870   0.42086   0.85418   0.00000  Uiso   1.00
H633   H     0.98371   0.13330   0.78690   0.00000  Uiso   1.00
H634   H     0.80702   0.29879   0.69358   0.00000  Uiso   1.00
H635   H     0.92878   0.53824   0.87784   0.00000  Uiso   1.00
O636   O     0.04385   0.09313   0.68129   0.00000  Uiso   1.00
O637   O     0.81204   0.31025   0.55887   0.00000  Uiso   1.00
O638   O     0.47178   0.12439   0.80060   0.00000  Uiso   1.00
N639   N     0.03416   0.17513   0.62405   0.00000  Uiso   1.00
N640   N     0.86897   0.32984   0.53680   0.00000  Uiso   1.00
N641   N     0.48279   0.05371   0.70906   0.00000  Uiso   1.00
N642   N     0.99535   0.15453   0.73796   0.00000  Uiso   1.00
N643   N     0.83016   0.30924   0.65071   0.00000  Uiso   1.00
N644   N     0.94398   0.53311   0.82297   0.00000  Uiso   1.00
C645   C     0.75775   0.88018   0.67650   0.00000  Uiso   1.00
C646   C     0.72290   0.88623   0.67527   0.00000  Uiso   1.00
C647   C     0.71448   0.86127   0.62321   0.00000  Uiso   1.00
C648   C     0.68122   0.87200   0.63173   0.00000  Uiso   1.00
C649   C     0.63075   0.87617   0.62091   0.00000  Uiso   1.00
C650   C     0.77071   0.94283   0.67557   0.00000  Uiso   1.00
C651   C     0.80250   0.96546   0.62377   0.00000  Uiso   1.00
C652   C     0.80949   0.02384   0.63255   0.00000  Uiso   1.00
C653   C     0.83326   0.11587   0.62222   0.00000  Uiso   1.00
C654   C     0.74944   0.85497   0.75247   0.00000  Uiso   1.00
C655   C     0.76334   0.80373   0.76533   0.00000  Uiso   1.00
C656   C     0.75242   0.78814   0.83886   0.00000  Uiso   1.00
C657   C     0.24316   0.24376   0.94792   0.00000  Uiso   1.00
C658   C     0.71366   0.94363   0.78422   0.00000  Uiso   1.00
C659   C     0.69895   0.92069   0.73378   0.00000  Uiso   1.00
C660   C     0.66569   0.93146   0.74239   0.00000  Uiso   1.00
C661   C     0.65723   0.90652   0.69035   0.00000  Uiso   1.00
C662   C     0.74676   0.97729   0.73408   0.00000  Uiso   1.00
C663   C     0.75371   0.03565   0.74295   0.00000  Uiso   1.00
C664   C     0.78550   0.05836   0.69117   0.00000  Uiso   1.00
C665   C     0.72548   0.88943   0.81098   0.00000  Uiso   1.00
C666   C     0.71455   0.87392   0.88451   0.00000  Uiso   1.00
C667   C     0.72843   0.82266   0.89747   0.00000  Uiso   1.00
H668   H     0.77640   0.85336   0.63094   0.00000  Uiso   1.00
H669   H     0.73302   0.83461   0.57793   0.00000  Uiso   1.00
H670   H     0.82103   0.93878   0.57850   0.00000  Uiso   1.00
H671   H     0.28187   0.27707   0.72003   0.00000  Uiso   1.00
H672   H     0.67437   0.82903   0.54494   0.00000  Uiso   1.00
H673   H     0.85994   0.04868   0.54615   0.00000  Uiso   1.00
H674   H     0.77737   0.70769   0.84461   0.00000  Uiso   1.00
H675   H     0.69501   0.97046   0.82978   0.00000  Uiso   1.00
H676   H     0.64716   0.95813   0.78768   0.00000  Uiso   1.00
H677   H     0.73517   0.06230   0.78824   0.00000  Uiso   1.00
H678   H     0.69601   0.90060   0.92978   0.00000  Uiso   1.00
H679   H     0.60468   0.92929   0.71518   0.00000  Uiso   1.00
H680   H     0.79026   0.14894   0.71639   0.00000  Uiso   1.00
H681   H     0.70769   0.80795   0.01484   0.00000  Uiso   1.00
O682   O     0.10952   0.36896   0.59877   0.00000  Uiso   1.00
O683   O     0.85299   0.15712   0.60035   0.00000  Uiso   1.00
O684   O     0.74466   0.70975   0.99192   0.00000  Uiso   1.00
N685   N     0.66453   0.85431   0.59080   0.00000  Uiso   1.00
N686   N     0.83803   0.05967   0.59191   0.00000  Uiso   1.00
N687   N     0.26084   0.24088   0.87095   0.00000  Uiso   1.00
N688   N     0.62704   0.90826   0.68240   0.00000  Uiso   1.00
N689   N     0.80053   0.11362   0.68352   0.00000  Uiso   1.00
N690   N     0.72334   0.79483   0.96255   0.00000  Uiso   1.00
C691   C     0.76415   0.06535   0.16722   0.00000  Uiso   1.00
C692   C     0.73012   0.06196   0.16204   0.00000  Uiso   1.00
C693   C     0.72411   0.08668   0.10646   0.00000  Uiso   1.00
C694   C     0.69122   0.07865   0.11169   0.00000  Uiso   1.00
C695   C     0.64232   0.07817   0.09468   0.00000  Uiso   1.00
C696   C     0.77471   0.00180   0.17094   0.00000  Uiso   1.00
C697   C     0.80620   0.97594   0.12285   0.00000  Uiso   1.00
C698   C     0.81085   0.91726   0.13558   0.00000  Uiso   1.00
C699   C     0.33120   0.32340   0.13242   0.00000  Uiso   1.00
C700   C     0.75491   0.09239   0.24278   0.00000  Uiso   1.00
C701   C     0.76977   0.14269   0.25510   0.00000  Uiso   1.00
C702   C     0.75776   0.16028   0.32832   0.00000  Uiso   1.00
C703   C     0.74737   0.20706   0.43671   0.00000  Uiso   1.00
C704   C     0.71641   0.00713   0.27534   0.00000  Uiso   1.00
C705   C     0.70419   0.03034   0.22076   0.00000  Uiso   1.00
C706   C     0.67130   0.02227   0.22608   0.00000  Uiso   1.00
C707   C     0.66525   0.04697   0.17052   0.00000  Uiso   1.00
C708   C     0.74878   0.97017   0.22966   0.00000  Uiso   1.00
C709   C     0.75339   0.91153   0.24247   0.00000  Uiso   1.00
C710   C     0.78488   0.88558   0.19441   0.00000  Uiso   1.00
C711   C     0.72898   0.06077   0.30151   0.00000  Uiso   1.00
C712   C     0.71695   0.07828   0.37472   0.00000  Uiso   1.00
C713   C     0.73178   0.12860   0.38715   0.00000  Uiso   1.00
H714   H     0.78434   0.08996   0.12150   0.00000  Uiso   1.00
H715   H     0.74419   0.11114   0.06102   0.00000  Uiso   1.00
H716   H     0.82626   0.00042   0.07741   0.00000  Uiso   1.00
H717   H     0.78983   0.16715   0.20964   0.00000  Uiso   1.00
H718   H     0.68824   0.12066   0.01984   0.00000  Uiso   1.00
H719   H     0.86131   0.88720   0.05443   0.00000  Uiso   1.00
H720   H     0.78449   0.23878   0.33326   0.00000  Uiso   1.00
H721   H     0.69623   0.98251   0.32106   0.00000  Uiso   1.00
H722   H     0.65124   0.99779   0.27153   0.00000  Uiso   1.00
H723   H     0.73332   0.88707   0.28792   0.00000  Uiso   1.00
H724   H     0.69689   0.05379   0.42015   0.00000  Uiso   1.00
H725   H     0.61280   0.02866   0.19070   0.00000  Uiso   1.00
H726   H     0.78588   0.79520   0.22528   0.00000  Uiso   1.00
H727   H     0.70905   0.14677   0.50412   0.00000  Uiso   1.00
O728   O     0.62252   0.08664   0.06907   0.00000  Uiso   1.00
O729   O     0.34959   0.28035   0.11445   0.00000  Uiso   1.00
O730   O     0.74879   0.24161   0.48028   0.00000  Uiso   1.00
N731   N     0.67666   0.09692   0.06686   0.00000  Uiso   1.00
N732   N     0.83847   0.87865   0.09919   0.00000  Uiso   1.00
N733   N     0.76665   0.20733   0.35988   0.00000  Uiso   1.00
N734   N     0.63606   0.04742   0.15880   0.00000  Uiso   1.00
N735   N     0.79787   0.82914   0.19112   0.00000  Uiso   1.00
N736   N     0.72606   0.15783   0.45181   0.00000  Uiso   1.00
C737   C     0.63339   0.50435   0.09090   0.00000  Uiso   1.00
C738   C     0.63409   0.44713   0.12958   0.00000  Uiso   1.00
C739   C     0.65425   0.39799   0.09547   0.00000  Uiso   1.00
C740   C     0.65117   0.35002   0.14052   0.00000  Uiso   1.00
C741   C     0.65569   0.26100   0.18896   0.00000  Uiso   1.00
C742   C     0.64234   0.55326   0.13075   0.00000  Uiso   1.00
C743   C     0.66943   0.59336   0.09763   0.00000  Uiso   1.00
C744   C     0.67330   0.63474   0.14367   0.00000  Uiso   1.00
C745   C     0.19061   0.21052   0.19393   0.00000  Uiso   1.00
C746   C     0.59543   0.51415   0.10877   0.00000  Uiso   1.00
C747   C     0.58308   0.52138   0.05717   0.00000  Uiso   1.00
C748   C     0.54746   0.52983   0.08471   0.00000  Uiso   1.00
C749   C     0.99194   0.04489   0.10083   0.00000  Uiso   1.00
C750   C     0.59209   0.50652   0.23156   0.00000  Uiso   1.00
C751   C     0.61166   0.44831   0.20598   0.00000  Uiso   1.00
C752   C     0.60855   0.40040   0.25109   0.00000  Uiso   1.00
C753   C     0.62870   0.35120   0.21706   0.00000  Uiso   1.00
C754   C     0.61991   0.55444   0.20715   0.00000  Uiso   1.00
C755   C     0.62374   0.59577   0.25325   0.00000  Uiso   1.00
C756   C     0.65083   0.63592   0.22021   0.00000  Uiso   1.00
C757   C     0.57300   0.51533   0.18518   0.00000  Uiso   1.00
C758   C     0.53739   0.52378   0.21280   0.00000  Uiso   1.00
C759   C     0.02499   0.03102   0.16125   0.00000  Uiso   1.00
H760   H     0.65085   0.50343   0.03142   0.00000  Uiso   1.00
H761   H     0.67161   0.39710   0.03634   0.00000  Uiso   1.00
H762   H     0.68679   0.59244   0.03851   0.00000  Uiso   1.00
H763   H     0.60045   0.52046   0.99806   0.00000  Uiso   1.00
H764   H     0.68473   0.27973   0.07550   0.00000  Uiso   1.00
H765   H     0.71673   0.69164   0.08005   0.00000  Uiso   1.00
H766   H     0.03468   0.03986   0.99475   0.00000  Uiso   1.00
H767   H     0.57462   0.50745   0.29105   0.00000  Uiso   1.00
H768   H     0.59119   0.40133   0.31022   0.00000  Uiso   1.00
H769   H     0.60637   0.59667   0.31237   0.00000  Uiso   1.00
H770   H     0.02004   0.02469   0.27192   0.00000  Uiso   1.00
H771   H     0.61946   0.28317   0.29778   0.00000  Uiso   1.00
H772   H     0.15146   0.19508   0.30233   0.00000  Uiso   1.00
H773   H     0.96941   0.04330   0.21703   0.00000  Uiso   1.00
O774   O     0.66438   0.21158   0.19457   0.00000  Uiso   1.00
O775   O     0.20636   0.25199   0.20053   0.00000  Uiso   1.00
O776   O     0.96751   0.05286   0.08862   0.00000  Uiso   1.00
N777   N     0.66709   0.29510   0.12518   0.00000  Uiso   1.00
N778   N     0.69701   0.68021   0.12944   0.00000  Uiso   1.00
N779   N     0.02681   0.03832   0.04969   0.00000  Uiso   1.00
N780   N     0.63197   0.29695   0.24479   0.00000  Uiso   1.00
N781   N     0.16189   0.18205   0.24904   0.00000  Uiso   1.00
N782   N     0.99169   0.04017   0.16930   0.00000  Uiso   1.00
C783   C     0.46392   0.10015   0.10609   0.00000  Uiso   1.00
C784   C     0.47411   0.15200   0.13982   0.00000  Uiso   1.00
C785   C     0.50196   0.18983   0.10184   0.00000  Uiso   1.00
C786   C     0.50692   0.23457   0.14266   0.00000  Uiso   1.00
C787   C     0.52610   0.31409   0.18345   0.00000  Uiso   1.00
C788   C     0.42609   0.11070   0.12346   0.00000  Uiso   1.00
C789   C     0.41356   0.11380   0.07173   0.00000  Uiso   1.00
C790   C     0.37810   0.12376   0.09879   0.00000  Uiso   1.00
C791   C     0.82272   0.63912   0.11420   0.00000  Uiso   1.00
C792   C     0.46365   0.04610   0.15097   0.00000  Uiso   1.00
C793   C     0.98271   0.49487   0.12236   0.00000  Uiso   1.00
C794   C     0.97886   0.45044   0.17257   0.00000  Uiso   1.00
C795   C     0.98180   0.36549   0.23067   0.00000  Uiso   1.00
C796   C     0.42319   0.11232   0.24614   0.00000  Uiso   1.00
C797   C     0.45199   0.15861   0.21589   0.00000  Uiso   1.00
C798   C     0.45691   0.20329   0.25678   0.00000  Uiso   1.00
C799   C     0.48476   0.24119   0.21887   0.00000  Uiso   1.00
C800   C     0.40397   0.11731   0.19953   0.00000  Uiso   1.00
C801   C     0.36851   0.12726   0.22667   0.00000  Uiso   1.00
C802   C     0.85594   0.63038   0.17500   0.00000  Uiso   1.00
C803   C     0.44153   0.05270   0.22703   0.00000  Uiso   1.00
C804   C     0.93765   0.50834   0.27730   0.00000  Uiso   1.00
C805   C     0.95670   0.45706   0.24878   0.00000  Uiso   1.00
H806   H     0.48114   0.09501   0.04687   0.00000  Uiso   1.00
H807   H     0.51907   0.18471   0.04297   0.00000  Uiso   1.00
H808   H     0.43069   0.10868   0.01287   0.00000  Uiso   1.00
H809   H     0.99982   0.48978   0.06349   0.00000  Uiso   1.00
H810   H     0.55136   0.28709   0.07218   0.00000  Uiso   1.00
H811   H     0.86500   0.62676   0.00872   0.00000  Uiso   1.00
H812   H     0.01078   0.37602   0.11546   0.00000  Uiso   1.00
H813   H     0.40597   0.11746   0.30536   0.00000  Uiso   1.00
H814   H     0.43978   0.20840   0.31565   0.00000  Uiso   1.00
H815   H     0.85140   0.63237   0.28554   0.00000  Uiso   1.00
H816   H     0.92053   0.51346   0.33616   0.00000  Uiso   1.00
H817   H     0.48701   0.30632   0.29350   0.00000  Uiso   1.00
H818   H     0.80065   0.64599   0.23003   0.00000  Uiso   1.00
H819   H     0.94643   0.39525   0.33677   0.00000  Uiso   1.00
O820   O     0.54278   0.35613   0.18494   0.00000  Uiso   1.00
O821   O     0.79828   0.64577   0.10167   0.00000  Uiso   1.00
O822   O     0.98954   0.31681   0.24171   0.00000  Uiso   1.00
N823   N     0.53158   0.27913   0.12286   0.00000  Uiso   1.00
N824   N     0.85735   0.62924   0.06352   0.00000  Uiso   1.00
N825   N     0.99363   0.39481   0.16331   0.00000  Uiso   1.00
N826   N     0.49696   0.28947   0.24195   0.00000  Uiso   1.00
N827   N     0.82272   0.63958   0.18261   0.00000  Uiso   1.00
N828   N     0.95900   0.40516   0.28240   0.00000  Uiso   1.00
C829   C     0.13316   0.94646   0.59006   0.00000  Uiso   1.00
C830   C     0.13317   0.00188   0.63253   0.00000  Uiso   1.00
C831   C     0.15240   0.05255   0.60166   0.00000  Uiso   1.00
C832   C     0.14881   0.09844   0.64990   0.00000  Uiso   1.00
C833   C     0.65219   0.68518   0.70425   0.00000  Uiso   1.00
C834   C     0.14325   0.89591   0.62581   0.00000  Uiso   1.00
C835   C     0.17096   0.85748   0.58929   0.00000  Uiso   1.00
C836   C     0.17585   0.81416   0.63187   0.00000  Uiso   1.00
C837   C     0.19486   0.73636   0.67577   0.00000  Uiso   1.00
C838   C     0.09526   0.93569   0.60816   0.00000  Uiso   1.00
C839   C     0.08261   0.93069   0.55679   0.00000  Uiso   1.00
C840   C     0.04709   0.92084   0.58452   0.00000  Uiso   1.00
C841   C     0.99159   0.90480   0.60101   0.00000  Uiso   1.00
C842   C     0.09258   0.93784   0.73063   0.00000  Uiso   1.00
C843   C     0.11113   0.99719   0.70888   0.00000  Uiso   1.00
C844   C     0.10751   0.04301   0.75719   0.00000  Uiso   1.00
C845   C     0.12673   0.09375   0.72639   0.00000  Uiso   1.00
C846   C     0.12121   0.89123   0.70216   0.00000  Uiso   1.00
C847   C     0.12606   0.84794   0.74481   0.00000  Uiso   1.00
C848   C     0.15377   0.80947   0.70836   0.00000  Uiso   1.00
C849   C     0.07322   0.93100   0.68451   0.00000  Uiso   1.00
C850   C     0.03772   0.92115   0.71232   0.00000  Uiso   1.00
C851   C     0.02501   0.91614   0.66101   0.00000  Uiso   1.00
H852   H     0.15032   0.95010   0.53061   0.00000  Uiso   1.00
H853   H     0.16945   0.05616   0.54257   0.00000  Uiso   1.00
H854   H     0.18800   0.86112   0.53020   0.00000  Uiso   1.00
H855   H     0.09967   0.93431   0.49771   0.00000  Uiso   1.00
H856   H     0.18096   0.17166   0.58950   0.00000  Uiso   1.00
H857   H     0.22007   0.76040   0.56341   0.00000  Uiso   1.00
H858   H     0.03380   0.91474   0.49490   0.00000  Uiso   1.00
H859   H     0.07543   0.93419   0.79007   0.00000  Uiso   1.00
H860   H     0.09045   0.03937   0.81627   0.00000  Uiso   1.00
H861   H     0.10900   0.84433   0.80389   0.00000  Uiso   1.00
H862   H     0.02067   0.91753   0.77141   0.00000  Uiso   1.00
H863   H     0.61684   0.65804   0.81165   0.00000  Uiso   1.00
H864   H     0.15595   0.74677   0.78555   0.00000  Uiso   1.00
H865   H     0.96968   0.90112   0.71705   0.00000  Uiso   1.00
O866   O     0.66014   0.73432   0.71313   0.00000  Uiso   1.00
O867   O     0.21145   0.69475   0.67889   0.00000  Uiso   1.00
O868   O     0.96707   0.89726   0.58901   0.00000  Uiso   1.00
N869   N     0.16380   0.15403   0.63819   0.00000  Uiso   1.00
N870   N     0.20037   0.76952   0.61379   0.00000  Uiso   1.00
N871   N     0.02622   0.91381   0.54975   0.00000  Uiso   1.00
N872   N     0.62930   0.64669   0.75772   0.00000  Uiso   1.00
N873   N     0.16586   0.76219   0.73333   0.00000  Uiso   1.00
N874   N     0.99172   0.90648   0.66928   0.00000  Uiso   1.00
C875   C     0.46540   0.85471   0.61329   0.00000  Uiso   1.00
C876   C     0.47487   0.80019   0.64410   0.00000  Uiso   1.00
C877   C     0.50444   0.76582   0.60654   0.00000  Uiso   1.00
C878   C     0.50836   0.71776   0.64437   0.00000  Uiso   1.00
C879   C     0.52682   0.63509   0.68112   0.00000  Uiso   1.00
C880   C     0.42934   0.84281   0.62005   0.00000  Uiso   1.00
C881   C     0.42064   0.84430   0.56227   0.00000  Uiso   1.00
C882   C     0.38623   0.83213   0.57986   0.00000  Uiso   1.00
C883   C     0.33400   0.81569   0.57929   0.00000  Uiso   1.00
C884   C     0.46072   0.90451   0.66752   0.00000  Uiso   1.00
C885   C     0.47839   0.95787   0.64967   0.00000  Uiso   1.00
C886   C     0.47038   0.99766   0.70722   0.00000  Uiso   1.00
C887   C     0.96687   0.57700   0.78036   0.00000  Uiso   1.00
C888   C     0.41976   0.83047   0.74725   0.00000  Uiso   1.00
C889   C     0.45008   0.78703   0.71686   0.00000  Uiso   1.00
C890   C     0.45395   0.73901   0.75475   0.00000  Uiso   1.00
C891   C     0.48352   0.70458   0.71726   0.00000  Uiso   1.00
C892   C     0.40455   0.82965   0.69281   0.00000  Uiso   1.00
C893   C     0.37014   0.81749   0.71048   0.00000  Uiso   1.00
C894   C     0.36139   0.81895   0.65275   0.00000  Uiso   1.00
C895   C     0.43592   0.89135   0.74029   0.00000  Uiso   1.00
C896   C     0.42789   0.93106   0.79788   0.00000  Uiso   1.00
C897   C     0.44554   0.98447   0.78011   0.00000  Uiso   1.00
H898   H     0.48470   0.86495   0.55664   0.00000  Uiso   1.00
H899   H     0.52362   0.77602   0.55023   0.00000  Uiso   1.00
H900   H     0.43983   0.85449   0.50597   0.00000  Uiso   1.00
H901   H     0.49757   0.96804   0.59335   0.00000  Uiso   1.00
H902   H     0.55584   0.67160   0.57520   0.00000  Uiso   1.00
H903   H     0.37915   0.83708   0.48189   0.00000  Uiso   1.00
H904   H     0.00090   0.57653   0.66614   0.00000  Uiso   1.00
H905   H     0.40046   0.82023   0.80390   0.00000  Uiso   1.00
H906   H     0.43476   0.72884   0.81106   0.00000  Uiso   1.00
H907   H     0.35096   0.80731   0.76680   0.00000  Uiso   1.00
H908   H     0.40870   0.92086   0.85418   0.00000  Uiso   1.00
H909   H     0.48371   0.63330   0.78690   0.00000  Uiso   1.00
H910   H     0.30702   0.79879   0.69358   0.00000  Uiso   1.00
H911   H     0.42878   0.03824   0.87784   0.00000  Uiso   1.00
O912   O     0.54385   0.59313   0.68129   0.00000  Uiso   1.00
O913   O     0.31204   0.81025   0.55887   0.00000  Uiso   1.00
O914   O     0.97178   0.62439   0.80060   0.00000  Uiso   1.00
N915   N     0.53416   0.67513   0.62405   0.00000  Uiso   1.00
N916   N     0.36897   0.82984   0.53680   0.00000  Uiso   1.00
N917   N     0.98279   0.55371   0.70906   0.00000  Uiso   1.00
N918   N     0.49535   0.65453   0.73796   0.00000  Uiso   1.00
N919   N     0.33016   0.80924   0.65071   0.00000  Uiso   1.00
N920   N     0.44398   0.03311   0.82297   0.00000  Uiso   1.00
C921   C     0.25775   0.38018   0.67650   0.00000  Uiso   1.00
C922   C     0.22290   0.38623   0.67527   0.00000  Uiso   1.00
C923   C     0.21448   0.36127   0.62321   0.00000  Uiso   1.00
C924   C     0.18122   0.37200   0.63173   0.00000  Uiso   1.00
C925   C     0.13075   0.37617   0.62091   0.00000  Uiso   1.00
C926   C     0.27071   0.44283   0.67557   0.00000  Uiso   1.00
C927   C     0.30250   0.46546   0.62377   0.00000  Uiso   1.00
C928   C     0.30949   0.52384   0.63255   0.00000  Uiso   1.00
C929   C     0.33326   0.61587   0.62222   0.00000  Uiso   1.00
C930   C     0.24944   0.35497   0.75247   0.00000  Uiso   1.00
C931   C     0.26334   0.30373   0.76533   0.00000  Uiso   1.00
C932   C     0.25242   0.28814   0.83886   0.00000  Uiso   1.00
C933   C     0.74316   0.74376   0.94792   0.00000  Uiso   1.00
C934   C     0.21366   0.44363   0.78422   0.00000  Uiso   1.00
C935   C     0.19895   0.42069   0.73378   0.00000  Uiso   1.00
C936   C     0.16569   0.43146   0.74239   0.00000  Uiso   1.00
C937   C     0.15723   0.40652   0.69035   0.00000  Uiso   1.00
C938   C     0.24676   0.47729   0.73408   0.00000  Uiso   1.00
C939   C     0.25371   0.53565   0.74295   0.00000  Uiso   1.00
C940   C     0.28550   0.55836   0.69117   0.00000  Uiso   1.00
C941   C     0.22548   0.38943   0.81098   0.00000  Uiso   1.00
C942   C     0.21455   0.37392   0.88451   0.00000  Uiso   1.00
C943   C     0.22843   0.32266   0.89747   0.00000  Uiso   1.00
H944   H     0.27640   0.35336   0.63094   0.00000  Uiso   1.00
H945   H     0.23302   0.33461   0.57793   0.00000  Uiso   1.00
H946   H     0.32103   0.43878   0.57850   0.00000  Uiso   1.00
H947   H     0.78187   0.77707   0.72003   0.00000  Uiso   1.00
H948   H     0.17437   0.32903   0.54494   0.00000  Uiso   1.00
H949   H     0.35994   0.54868   0.54615   0.00000  Uiso   1.00
H950   H     0.27737   0.20769   0.84461   0.00000  Uiso   1.00
H951   H     0.19501   0.47046   0.82978   0.00000  Uiso   1.00
H952   H     0.14716   0.45813   0.78768   0.00000  Uiso   1.00
H953   H     0.23517   0.56230   0.78824   0.00000  Uiso   1.00
H954   H     0.19601   0.40060   0.92978   0.00000  Uiso   1.00
H955   H     0.10468   0.42929   0.71518   0.00000  Uiso   1.00
H956   H     0.29026   0.64894   0.71639   0.00000  Uiso   1.00
H957   H     0.20769   0.30795   0.01484   0.00000  Uiso   1.00
O958   O     0.60952   0.86896   0.59877   0.00000  Uiso   1.00
O959   O     0.35299   0.65712   0.60035   0.00000  Uiso   1.00
O960   O     0.24466   0.20975   0.99192   0.00000  Uiso   1.00
N961   N     0.16453   0.35431   0.59080   0.00000  Uiso   1.00
N962   N     0.33803   0.55967   0.59191   0.00000  Uiso   1.00
N963   N     0.76084   0.74088   0.87095   0.00000  Uiso   1.00
N964   N     0.12704   0.40826   0.68240   0.00000  Uiso   1.00
N965   N     0.30053   0.61362   0.68352   0.00000  Uiso   1.00
N966   N     0.22334   0.29483   0.96255   0.00000  Uiso   1.00
C967   C     0.26415   0.56535   0.16722   0.00000  Uiso   1.00
C968   C     0.23012   0.56196   0.16204   0.00000  Uiso   1.00
C969   C     0.22411   0.58668   0.10646   0.00000  Uiso   1.00
C970   C     0.19122   0.57865   0.11169   0.00000  Uiso   1.00
C971   C     0.14232   0.57817   0.09468   0.00000  Uiso   1.00
C972   C     0.27471   0.50180   0.17094   0.00000  Uiso   1.00
C973   C     0.30620   0.47594   0.12285   0.00000  Uiso   1.00
C974   C     0.31085   0.41726   0.13558   0.00000  Uiso   1.00
C975   C     0.83120   0.82340   0.13242   0.00000  Uiso   1.00
C976   C     0.25491   0.59239   0.24278   0.00000  Uiso   1.00
C977   C     0.26977   0.64269   0.25510   0.00000  Uiso   1.00
C978   C     0.25776   0.66028   0.32832   0.00000  Uiso   1.00
C979   C     0.24737   0.70706   0.43671   0.00000  Uiso   1.00
C980   C     0.21641   0.50713   0.27534   0.00000  Uiso   1.00
C981   C     0.20419   0.53034   0.22076   0.00000  Uiso   1.00
C982   C     0.17130   0.52227   0.22608   0.00000  Uiso   1.00
C983   C     0.16525   0.54697   0.17052   0.00000  Uiso   1.00
C984   C     0.24878   0.47017   0.22966   0.00000  Uiso   1.00
C985   C     0.25339   0.41153   0.24247   0.00000  Uiso   1.00
C986   C     0.28488   0.38558   0.19441   0.00000  Uiso   1.00
C987   C     0.22898   0.56077   0.30151   0.00000  Uiso   1.00
C988   C     0.21695   0.57828   0.37472   0.00000  Uiso   1.00
C989   C     0.23178   0.62860   0.38715   0.00000  Uiso   1.00
H990   H     0.28434   0.58996   0.12150   0.00000  Uiso   1.00
H991   H     0.24419   0.61114   0.06102   0.00000  Uiso   1.00
H992   H     0.32626   0.50042   0.07741   0.00000  Uiso   1.00
H993   H     0.28983   0.66715   0.20964   0.00000  Uiso   1.00
H994   H     0.18824   0.62066   0.01984   0.00000  Uiso   1.00
H995   H     0.36131   0.38720   0.05443   0.00000  Uiso   1.00
H996   H     0.28449   0.73878   0.33326   0.00000  Uiso   1.00
H997   H     0.19623   0.48251   0.32106   0.00000  Uiso   1.00
H998   H     0.15124   0.49779   0.27153   0.00000  Uiso   1.00
H999   H     0.23332   0.38707   0.28792   0.00000  Uiso   1.00
H1000  H     0.19689   0.55379   0.42015   0.00000  Uiso   1.00
H1001  H     0.11280   0.52866   0.19070   0.00000  Uiso   1.00
H1002  H     0.28588   0.29520   0.22528   0.00000  Uiso   1.00
H1003  H     0.20905   0.64677   0.50412   0.00000  Uiso   1.00
O1004  O     0.12252   0.58664   0.06907   0.00000  Uiso   1.00
O1005  O     0.84959   0.78035   0.11445   0.00000  Uiso   1.00
O1006  O     0.24879   0.74161   0.48028   0.00000  Uiso   1.00
N1007  N     0.17666   0.59692   0.06686   0.00000  Uiso   1.00
N1008  N     0.33847   0.37865   0.09919   0.00000  Uiso   1.00
N1009  N     0.26665   0.70733   0.35988   0.00000  Uiso   1.00
N1010  N     0.13606   0.54742   0.15880   0.00000  Uiso   1.00
N1011  N     0.29787   0.32914   0.19112   0.00000  Uiso   1.00
N1012  N     0.22606   0.65783   0.45181   0.00000  Uiso   1.00
C1013  C     0.13339   0.00435   0.09090   0.00000  Uiso   1.00
C1014  C     0.13409   0.94713   0.12958   0.00000  Uiso   1.00
C1015  C     0.15425   0.89799   0.09547   0.00000  Uiso   1.00
C1016  C     0.15117   0.85002   0.14052   0.00000  Uiso   1.00
C1017  C     0.15569   0.76100   0.18896   0.00000  Uiso   1.00
C1018  C     0.14234   0.05326   0.13075   0.00000  Uiso   1.00
C1019  C     0.16943   0.09336   0.09763   0.00000  Uiso   1.00
C1020  C     0.17330   0.13474   0.14367   0.00000  Uiso   1.00
C1021  C     0.69061   0.71052   0.19393   0.00000  Uiso   1.00
C1022  C     0.09543   0.01415   0.10877   0.00000  Uiso   1.00
C1023  C     0.08308   0.02138   0.05717   0.00000  Uiso   1.00
C1024  C     0.04746   0.02983   0.08471   0.00000  Uiso   1.00
C1025  C     0.49194   0.54489   0.10083   0.00000  Uiso   1.00
C1026  C     0.09209   0.00652   0.23156   0.00000  Uiso   1.00
C1027  C     0.11166   0.94831   0.20598   0.00000  Uiso   1.00
C1028  C     0.10855   0.90040   0.25109   0.00000  Uiso   1.00
C1029  C     0.12870   0.85120   0.21706   0.00000  Uiso   1.00
C1030  C     0.11991   0.05444   0.20715   0.00000  Uiso   1.00
C1031  C     0.12374   0.09577   0.25325   0.00000  Uiso   1.00
C1032  C     0.15083   0.13592   0.22021   0.00000  Uiso   1.00
C1033  C     0.07300   0.01533   0.18518   0.00000  Uiso   1.00
C1034  C     0.03739   0.02378   0.21280   0.00000  Uiso   1.00
C1035  C     0.52499   0.53102   0.16125   0.00000  Uiso   1.00
H1036  H     0.15085   0.00343   0.03142   0.00000  Uiso   1.00
H1037  H     0.17161   0.89710   0.03634   0.00000  Uiso   1.00
H1038  H     0.18679   0.09244   0.03851   0.00000  Uiso   1.00
H1039  H     0.10045   0.02046   0.99806   0.00000  Uiso   1.00
H1040  H     0.18473   0.77973   0.07550   0.00000  Uiso   1.00
H1041  H     0.21673   0.19164   0.08005   0.00000  Uiso   1.00
H1042  H     0.53468   0.53986   0.99475   0.00000  Uiso   1.00
H1043  H     0.07462   0.00745   0.29105   0.00000  Uiso   1.00
H1044  H     0.09119   0.90133   0.31022   0.00000  Uiso   1.00
H1045  H     0.10637   0.09667   0.31237   0.00000  Uiso   1.00
H1046  H     0.52004   0.52469   0.27192   0.00000  Uiso   1.00
H1047  H     0.11946   0.78317   0.29778   0.00000  Uiso   1.00
H1048  H     0.65146   0.69508   0.30233   0.00000  Uiso   1.00
H1049  H     0.46941   0.54330   0.21703   0.00000  Uiso   1.00
O1050  O     0.16438   0.71158   0.19457   0.00000  Uiso   1.00
O1051  O     0.70636   0.75199   0.20053   0.00000  Uiso   1.00
O1052  O     0.46751   0.55286   0.08862   0.00000  Uiso   1.00
N1053  N     0.16709   0.79510   0.12518   0.00000  Uiso   1.00
N1054  N     0.19701   0.18021   0.12944   0.00000  Uiso   1.00
N1055  N     0.52681   0.53832   0.04969   0.00000  Uiso   1.00
N1056  N     0.13197   0.79695   0.24479   0.00000  Uiso   1.00
N1057  N     0.66189   0.68205   0.24904   0.00000  Uiso   1.00
N1058  N     0.49169   0.54017   0.16930   0.00000  Uiso   1.00
C1059  C     0.96392   0.60015   0.10609   0.00000  Uiso   1.00
C1060  C     0.97411   0.65200   0.13982   0.00000  Uiso   1.00
C1061  C     0.00196   0.68983   0.10184   0.00000  Uiso   1.00
C1062  C     0.00692   0.73457   0.14266   0.00000  Uiso   1.00
C1063  C     0.02610   0.81409   0.18345   0.00000  Uiso   1.00
C1064  C     0.92609   0.61070   0.12346   0.00000  Uiso   1.00
C1065  C     0.91356   0.61380   0.07173   0.00000  Uiso   1.00
C1066  C     0.87810   0.62376   0.09879   0.00000  Uiso   1.00
C1067  C     0.32272   0.13912   0.11420   0.00000  Uiso   1.00
C1068  C     0.96365   0.54610   0.15097   0.00000  Uiso   1.00
C1069  C     0.48271   0.99487   0.12236   0.00000  Uiso   1.00
C1070  C     0.47886   0.95044   0.17257   0.00000  Uiso   1.00
C1071  C     0.48180   0.86549   0.23067   0.00000  Uiso   1.00
C1072  C     0.92319   0.61232   0.24614   0.00000  Uiso   1.00
C1073  C     0.95199   0.65861   0.21589   0.00000  Uiso   1.00
C1074  C     0.95691   0.70329   0.25678   0.00000  Uiso   1.00
C1075  C     0.98476   0.74119   0.21887   0.00000  Uiso   1.00
C1076  C     0.90397   0.61731   0.19953   0.00000  Uiso   1.00
C1077  C     0.86851   0.62726   0.22667   0.00000  Uiso   1.00
C1078  C     0.35594   0.13038   0.17500   0.00000  Uiso   1.00
C1079  C     0.94153   0.55270   0.22703   0.00000  Uiso   1.00
C1080  C     0.43765   0.00834   0.27730   0.00000  Uiso   1.00
C1081  C     0.45670   0.95706   0.24878   0.00000  Uiso   1.00
H1082  H     0.98114   0.59501   0.04687   0.00000  Uiso   1.00
H1083  H     0.01907   0.68471   0.04297   0.00000  Uiso   1.00
H1084  H     0.93069   0.60868   0.01287   0.00000  Uiso   1.00
H1085  H     0.49982   0.98978   0.06349   0.00000  Uiso   1.00
H1086  H     0.05136   0.78709   0.07218   0.00000  Uiso   1.00
H1087  H     0.36500   0.12676   0.00872   0.00000  Uiso   1.00
H1088  H     0.51078   0.87602   0.11546   0.00000  Uiso   1.00
H1089  H     0.90597   0.61746   0.30536   0.00000  Uiso   1.00
H1090  H     0.93978   0.70840   0.31565   0.00000  Uiso   1.00
H1091  H     0.35140   0.13237   0.28554   0.00000  Uiso   1.00
H1092  H     0.42053   0.01346   0.33616   0.00000  Uiso   1.00
H1093  H     0.98701   0.80632   0.29350   0.00000  Uiso   1.00
H1094  H     0.30065   0.14599   0.23003   0.00000  Uiso   1.00
H1095  H     0.44643   0.89525   0.33677   0.00000  Uiso   1.00
O1096  O     0.04278   0.85613   0.18494   0.00000  Uiso   1.00
O1097  O     0.29828   0.14577   0.10167   0.00000  Uiso   1.00
O1098  O     0.48954   0.81681   0.24171   0.00000  Uiso   1.00
N1099  N     0.03158   0.77913   0.12286   0.00000  Uiso   1.00
N1100  N     0.35735   0.12924   0.06352   0.00000  Uiso   1.00
N1101  N     0.49363   0.89481   0.16331   0.00000  Uiso   1.00
N1102  N     0.99696   0.78947   0.24195   0.00000  Uiso   1.00
N1103  N     0.32272   0.13958   0.18261   0.00000  Uiso   1.00
N1104  N     0.45900   0.90516   0.28240   0.00000  Uiso   1.00
