data_job_04623
_audit_creation_date              2018-12-19
_audit_creation_method            'Materials Studio'
_symmetry_space_group_name_H-M    'P1'
_symmetry_Int_Tables_number       1
_symmetry_cell_setting            triclinic
loop_
_symmetry_equiv_pos_as_xyz
  x,y,z
_cell_length_a                    12.0149
_cell_length_b                    23.5564
_cell_length_c                    43.4433
_cell_angle_alpha                 90.0000
_cell_angle_beta                  90.0000
_cell_angle_gamma                 90.0000
loop_
_atom_site_label
_atom_site_type_symbol
_atom_site_fract_x
_atom_site_fract_y
_atom_site_fract_z
_atom_site_U_iso_or_equiv
_atom_site_adp_type
_atom_site_occupancy
C1     C     0.86464   0.97082   0.35137   0.00000  Uiso   1.00
C2     C     0.93651   0.00054   0.32734   0.00000  Uiso   1.00
C3     C     0.91271   0.05213   0.31341   0.00000  Uiso   1.00
C4     C     0.98899   0.07215   0.29200   0.00000  Uiso   1.00
C5     C     0.08587   0.12292   0.25576   0.00000  Uiso   1.00
C6     C     0.83974   0.91199   0.33845   0.00000  Uiso   1.00
C7     C     0.73457   0.88914   0.33386   0.00000  Uiso   1.00
C8     C     0.72941   0.83461   0.32180   0.00000  Uiso   1.00
C9     C     0.67605   0.74789   0.30284   0.00000  Uiso   1.00
C10    C     0.93951   0.96142   0.37925   0.00000  Uiso   1.00
C11    C     0.91823   0.98013   0.40897   0.00000  Uiso   1.00
C12    C     0.99705   0.96721   0.43127   0.00000  Uiso   1.00
C13    C     0.09860   0.95725   0.47566   0.00000  Uiso   1.00
C14    C     0.04245   0.91462   0.33814   0.00000  Uiso   1.00
C15    C     0.03309   0.97000   0.32015   0.00000  Uiso   1.00
C16    C     0.10943   0.98995   0.29876   0.00000  Uiso   1.00
C17    C     0.08575   0.04157   0.28479   0.00000  Uiso   1.00
C18    C     0.93632   0.88146   0.33126   0.00000  Uiso   1.00
C19    C     0.93130   0.82696   0.31921   0.00000  Uiso   1.00
C20    C     0.82616   0.80403   0.31460   0.00000  Uiso   1.00
C21    C     0.03610   0.93090   0.37206   0.00000  Uiso   1.00
C22    C     0.11496   0.91795   0.39432   0.00000  Uiso   1.00
C23    C     0.09380   0.93663   0.42407   0.00000  Uiso   1.00
H24    H     0.78945   0.99459   0.35697   0.00000  Uiso   1.00
H25    H     0.83795   0.07574   0.31897   0.00000  Uiso   1.00
H26    H     0.65985   0.91277   0.33943   0.00000  Uiso   1.00
H27    H     0.84348   0.00375   0.41452   0.00000  Uiso   1.00
H28    H     0.93430   0.15225   0.27367   0.00000  Uiso   1.00
H29    H     0.55877   0.80860   0.31681   0.00000  Uiso   1.00
H30    H     0.94598   0.00045   0.47516   0.00000  Uiso   1.00
H31    H     0.11764   0.89085   0.33254   0.00000  Uiso   1.00
H32    H     0.18416   0.96632   0.29320   0.00000  Uiso   1.00
H33    H     0.00606   0.80334   0.31365   0.00000  Uiso   1.00
H34    H     0.18969   0.89432   0.38875   0.00000  Uiso   1.00
H35    H     0.21529   0.06344   0.25275   0.00000  Uiso   1.00
H36    H     0.83976   0.71979   0.29589   0.00000  Uiso   1.00
H37    H     0.22698   0.91163   0.45424   0.00000  Uiso   1.00
O38    O     0.11261   0.15935   0.23776   0.00000  Uiso   1.00
O39    O     0.61993   0.70850   0.29436   0.00000  Uiso   1.00
O40    O     0.12795   0.96020   0.50212   0.00000  Uiso   1.00
N41    N     0.99131   0.12100   0.27415   0.00000  Uiso   1.00
N42    N     0.64021   0.79971   0.31447   0.00000  Uiso   1.00
N43    N     0.00221   0.97906   0.46253   0.00000  Uiso   1.00
N44    N     0.14252   0.07321   0.26289   0.00000  Uiso   1.00
N45    N     0.79142   0.75192   0.30322   0.00000  Uiso   1.00
N46    N     0.15341   0.93127   0.45127   0.00000  Uiso   1.00
C47    C     0.36464   0.47082   0.85137   0.00000  Uiso   1.00
C48    C     0.43651   0.50054   0.82734   0.00000  Uiso   1.00
C49    C     0.41271   0.55213   0.81341   0.00000  Uiso   1.00
C50    C     0.48899   0.57215   0.79200   0.00000  Uiso   1.00
C51    C     0.58587   0.62292   0.75576   0.00000  Uiso   1.00
C52    C     0.33974   0.41199   0.83845   0.00000  Uiso   1.00
C53    C     0.23457   0.38914   0.83386   0.00000  Uiso   1.00
C54    C     0.22941   0.33461   0.82180   0.00000  Uiso   1.00
C55    C     0.17605   0.24789   0.80284   0.00000  Uiso   1.00
C56    C     0.43951   0.46142   0.87925   0.00000  Uiso   1.00
C57    C     0.41823   0.48013   0.90897   0.00000  Uiso   1.00
C58    C     0.49705   0.46721   0.93127   0.00000  Uiso   1.00
C59    C     0.59860   0.45725   0.97566   0.00000  Uiso   1.00
C60    C     0.54245   0.41462   0.83814   0.00000  Uiso   1.00
C61    C     0.53309   0.47000   0.82015   0.00000  Uiso   1.00
C62    C     0.60943   0.48995   0.79876   0.00000  Uiso   1.00
C63    C     0.58575   0.54157   0.78479   0.00000  Uiso   1.00
C64    C     0.43632   0.38146   0.83126   0.00000  Uiso   1.00
C65    C     0.43130   0.32696   0.81921   0.00000  Uiso   1.00
C66    C     0.32616   0.30403   0.81460   0.00000  Uiso   1.00
C67    C     0.53610   0.43090   0.87206   0.00000  Uiso   1.00
C68    C     0.61496   0.41795   0.89432   0.00000  Uiso   1.00
C69    C     0.59380   0.43663   0.92407   0.00000  Uiso   1.00
H70    H     0.28945   0.49459   0.85697   0.00000  Uiso   1.00
H71    H     0.33795   0.57574   0.81897   0.00000  Uiso   1.00
H72    H     0.15985   0.41277   0.83943   0.00000  Uiso   1.00
H73    H     0.34348   0.50375   0.91452   0.00000  Uiso   1.00
H74    H     0.43430   0.65225   0.77367   0.00000  Uiso   1.00
H75    H     0.05877   0.30860   0.81681   0.00000  Uiso   1.00
H76    H     0.44598   0.50045   0.97516   0.00000  Uiso   1.00
H77    H     0.61764   0.39085   0.83254   0.00000  Uiso   1.00
H78    H     0.68416   0.46632   0.79320   0.00000  Uiso   1.00
H79    H     0.50606   0.30334   0.81365   0.00000  Uiso   1.00
H80    H     0.68969   0.39432   0.88875   0.00000  Uiso   1.00
H81    H     0.71529   0.56344   0.75275   0.00000  Uiso   1.00
H82    H     0.33976   0.21979   0.79589   0.00000  Uiso   1.00
H83    H     0.72698   0.41163   0.95424   0.00000  Uiso   1.00
O84    O     0.61261   0.65935   0.73776   0.00000  Uiso   1.00
O85    O     0.11993   0.20850   0.79436   0.00000  Uiso   1.00
O86    O     0.62795   0.46020   0.00212   0.00000  Uiso   1.00
N87    N     0.49131   0.62100   0.77415   0.00000  Uiso   1.00
N88    N     0.14021   0.29971   0.81447   0.00000  Uiso   1.00
N89    N     0.50221   0.47906   0.96253   0.00000  Uiso   1.00
N90    N     0.64252   0.57321   0.76289   0.00000  Uiso   1.00
N91    N     0.29142   0.25192   0.80322   0.00000  Uiso   1.00
N92    N     0.65341   0.43127   0.95127   0.00000  Uiso   1.00
C93    C     0.63536   0.02918   0.85137   0.00000  Uiso   1.00
C94    C     0.56349   0.99946   0.82734   0.00000  Uiso   1.00
C95    C     0.58729   0.94787   0.81341   0.00000  Uiso   1.00
C96    C     0.51101   0.92785   0.79200   0.00000  Uiso   1.00
C97    C     0.41413   0.87708   0.75576   0.00000  Uiso   1.00
C98    C     0.66026   0.08801   0.83845   0.00000  Uiso   1.00
C99    C     0.76543   0.11086   0.83386   0.00000  Uiso   1.00
C100   C     0.77059   0.16539   0.82180   0.00000  Uiso   1.00
C101   C     0.82395   0.25211   0.80284   0.00000  Uiso   1.00
C102   C     0.56049   0.03858   0.87925   0.00000  Uiso   1.00
C103   C     0.58177   0.01987   0.90897   0.00000  Uiso   1.00
C104   C     0.50295   0.03279   0.93127   0.00000  Uiso   1.00
C105   C     0.40140   0.04275   0.97566   0.00000  Uiso   1.00
C106   C     0.45755   0.08538   0.83814   0.00000  Uiso   1.00
C107   C     0.46691   0.03000   0.82015   0.00000  Uiso   1.00
C108   C     0.39057   0.01005   0.79876   0.00000  Uiso   1.00
C109   C     0.41425   0.95843   0.78479   0.00000  Uiso   1.00
C110   C     0.56368   0.11854   0.83126   0.00000  Uiso   1.00
C111   C     0.56870   0.17304   0.81921   0.00000  Uiso   1.00
C112   C     0.67384   0.19597   0.81460   0.00000  Uiso   1.00
C113   C     0.46390   0.06910   0.87206   0.00000  Uiso   1.00
C114   C     0.38504   0.08205   0.89432   0.00000  Uiso   1.00
C115   C     0.40620   0.06337   0.92407   0.00000  Uiso   1.00
H116   H     0.71055   0.00541   0.85697   0.00000  Uiso   1.00
H117   H     0.66205   0.92426   0.81897   0.00000  Uiso   1.00
H118   H     0.84015   0.08723   0.83943   0.00000  Uiso   1.00
H119   H     0.65652   0.99625   0.91452   0.00000  Uiso   1.00
H120   H     0.56570   0.84775   0.77367   0.00000  Uiso   1.00
H121   H     0.94123   0.19140   0.81681   0.00000  Uiso   1.00
H122   H     0.55402   0.99955   0.97516   0.00000  Uiso   1.00
H123   H     0.38236   0.10915   0.83254   0.00000  Uiso   1.00
H124   H     0.31584   0.03368   0.79320   0.00000  Uiso   1.00
H125   H     0.49394   0.19666   0.81365   0.00000  Uiso   1.00
H126   H     0.31031   0.10568   0.88875   0.00000  Uiso   1.00
H127   H     0.28471   0.93656   0.75275   0.00000  Uiso   1.00
H128   H     0.66024   0.28021   0.79589   0.00000  Uiso   1.00
H129   H     0.27302   0.08837   0.95424   0.00000  Uiso   1.00
O130   O     0.38739   0.84065   0.73776   0.00000  Uiso   1.00
O131   O     0.88007   0.29150   0.79436   0.00000  Uiso   1.00
O132   O     0.37205   0.03980   0.00212   0.00000  Uiso   1.00
N133   N     0.50869   0.87900   0.77415   0.00000  Uiso   1.00
N134   N     0.85979   0.20029   0.81447   0.00000  Uiso   1.00
N135   N     0.49779   0.02094   0.96253   0.00000  Uiso   1.00
N136   N     0.35748   0.92679   0.76289   0.00000  Uiso   1.00
N137   N     0.70858   0.24808   0.80322   0.00000  Uiso   1.00
N138   N     0.34659   0.06873   0.95127   0.00000  Uiso   1.00
C139   C     0.13536   0.52918   0.35137   0.00000  Uiso   1.00
C140   C     0.06349   0.49946   0.32734   0.00000  Uiso   1.00
C141   C     0.08729   0.44787   0.31341   0.00000  Uiso   1.00
C142   C     0.01101   0.42785   0.29200   0.00000  Uiso   1.00
C143   C     0.91413   0.37708   0.25576   0.00000  Uiso   1.00
C144   C     0.16026   0.58801   0.33845   0.00000  Uiso   1.00
C145   C     0.26543   0.61086   0.33386   0.00000  Uiso   1.00
C146   C     0.27059   0.66539   0.32180   0.00000  Uiso   1.00
C147   C     0.32395   0.75211   0.30284   0.00000  Uiso   1.00
C148   C     0.06049   0.53858   0.37925   0.00000  Uiso   1.00
C149   C     0.08177   0.51987   0.40897   0.00000  Uiso   1.00
C150   C     0.00295   0.53279   0.43127   0.00000  Uiso   1.00
C151   C     0.90140   0.54275   0.47566   0.00000  Uiso   1.00
C152   C     0.95755   0.58538   0.33814   0.00000  Uiso   1.00
C153   C     0.96691   0.53000   0.32015   0.00000  Uiso   1.00
C154   C     0.89057   0.51005   0.29876   0.00000  Uiso   1.00
C155   C     0.91425   0.45843   0.28479   0.00000  Uiso   1.00
C156   C     0.06368   0.61854   0.33126   0.00000  Uiso   1.00
C157   C     0.06870   0.67304   0.31921   0.00000  Uiso   1.00
C158   C     0.17384   0.69597   0.31460   0.00000  Uiso   1.00
C159   C     0.96390   0.56910   0.37206   0.00000  Uiso   1.00
C160   C     0.88504   0.58205   0.39432   0.00000  Uiso   1.00
C161   C     0.90620   0.56337   0.42407   0.00000  Uiso   1.00
H162   H     0.21055   0.50541   0.35697   0.00000  Uiso   1.00
H163   H     0.16205   0.42426   0.31897   0.00000  Uiso   1.00
H164   H     0.34015   0.58723   0.33943   0.00000  Uiso   1.00
H165   H     0.15652   0.49625   0.41452   0.00000  Uiso   1.00
H166   H     0.06570   0.34775   0.27367   0.00000  Uiso   1.00
H167   H     0.44123   0.69140   0.31681   0.00000  Uiso   1.00
H168   H     0.05402   0.49955   0.47516   0.00000  Uiso   1.00
H169   H     0.88236   0.60915   0.33254   0.00000  Uiso   1.00
H170   H     0.81584   0.53368   0.29320   0.00000  Uiso   1.00
H171   H     0.99394   0.69666   0.31365   0.00000  Uiso   1.00
H172   H     0.81031   0.60568   0.38875   0.00000  Uiso   1.00
H173   H     0.78471   0.43656   0.25275   0.00000  Uiso   1.00
H174   H     0.16024   0.78021   0.29589   0.00000  Uiso   1.00
H175   H     0.77302   0.58837   0.45424   0.00000  Uiso   1.00
O176   O     0.88739   0.34065   0.23776   0.00000  Uiso   1.00
O177   O     0.38007   0.79150   0.29436   0.00000  Uiso   1.00
O178   O     0.87205   0.53980   0.50212   0.00000  Uiso   1.00
N179   N     0.00869   0.37900   0.27415   0.00000  Uiso   1.00
N180   N     0.35979   0.70029   0.31447   0.00000  Uiso   1.00
N181   N     0.99779   0.52094   0.46253   0.00000  Uiso   1.00
N182   N     0.85748   0.42679   0.26289   0.00000  Uiso   1.00
N183   N     0.20858   0.74808   0.30322   0.00000  Uiso   1.00
N184   N     0.84659   0.56873   0.45127   0.00000  Uiso   1.00
C185   C     0.13536   0.47082   0.14863   0.00000  Uiso   1.00
C186   C     0.06349   0.50054   0.17266   0.00000  Uiso   1.00
C187   C     0.08729   0.55213   0.18659   0.00000  Uiso   1.00
C188   C     0.01101   0.57215   0.20800   0.00000  Uiso   1.00
C189   C     0.91413   0.62292   0.24424   0.00000  Uiso   1.00
C190   C     0.16026   0.41199   0.16155   0.00000  Uiso   1.00
C191   C     0.26543   0.38914   0.16614   0.00000  Uiso   1.00
C192   C     0.27059   0.33461   0.17820   0.00000  Uiso   1.00
C193   C     0.32395   0.24789   0.19716   0.00000  Uiso   1.00
C194   C     0.06049   0.46142   0.12075   0.00000  Uiso   1.00
C195   C     0.08177   0.48013   0.09103   0.00000  Uiso   1.00
C196   C     0.00295   0.46721   0.06873   0.00000  Uiso   1.00
C197   C     0.90140   0.45725   0.02434   0.00000  Uiso   1.00
C198   C     0.95755   0.41462   0.16186   0.00000  Uiso   1.00
C199   C     0.96691   0.47000   0.17985   0.00000  Uiso   1.00
C200   C     0.89057   0.48995   0.20124   0.00000  Uiso   1.00
C201   C     0.91425   0.54157   0.21521   0.00000  Uiso   1.00
C202   C     0.06368   0.38146   0.16874   0.00000  Uiso   1.00
C203   C     0.06870   0.32696   0.18079   0.00000  Uiso   1.00
C204   C     0.17384   0.30403   0.18540   0.00000  Uiso   1.00
C205   C     0.96390   0.43090   0.12794   0.00000  Uiso   1.00
C206   C     0.88504   0.41795   0.10568   0.00000  Uiso   1.00
C207   C     0.90620   0.43663   0.07593   0.00000  Uiso   1.00
H208   H     0.21055   0.49459   0.14303   0.00000  Uiso   1.00
H209   H     0.16205   0.57574   0.18103   0.00000  Uiso   1.00
H210   H     0.34015   0.41277   0.16057   0.00000  Uiso   1.00
H211   H     0.15652   0.50375   0.08548   0.00000  Uiso   1.00
H212   H     0.06570   0.65225   0.22633   0.00000  Uiso   1.00
H213   H     0.44123   0.30860   0.18319   0.00000  Uiso   1.00
H214   H     0.05402   0.50045   0.02484   0.00000  Uiso   1.00
H215   H     0.88236   0.39085   0.16746   0.00000  Uiso   1.00
H216   H     0.81584   0.46632   0.20680   0.00000  Uiso   1.00
H217   H     0.99394   0.30334   0.18635   0.00000  Uiso   1.00
H218   H     0.81031   0.39432   0.11125   0.00000  Uiso   1.00
H219   H     0.78471   0.56344   0.24725   0.00000  Uiso   1.00
H220   H     0.16024   0.21979   0.20411   0.00000  Uiso   1.00
H221   H     0.77302   0.41163   0.04576   0.00000  Uiso   1.00
O222   O     0.88739   0.65935   0.26224   0.00000  Uiso   1.00
O223   O     0.38007   0.20850   0.20564   0.00000  Uiso   1.00
O224   O     0.87205   0.46020   0.99788   0.00000  Uiso   1.00
N225   N     0.00869   0.62100   0.22585   0.00000  Uiso   1.00
N226   N     0.35979   0.29971   0.18553   0.00000  Uiso   1.00
N227   N     0.99779   0.47906   0.03747   0.00000  Uiso   1.00
N228   N     0.85748   0.57321   0.23711   0.00000  Uiso   1.00
N229   N     0.20858   0.25192   0.19678   0.00000  Uiso   1.00
N230   N     0.84659   0.43127   0.04873   0.00000  Uiso   1.00
C231   C     0.63536   0.97082   0.64863   0.00000  Uiso   1.00
C232   C     0.56349   0.00054   0.67266   0.00000  Uiso   1.00
C233   C     0.58729   0.05213   0.68659   0.00000  Uiso   1.00
C234   C     0.51101   0.07215   0.70800   0.00000  Uiso   1.00
C235   C     0.41413   0.12292   0.74424   0.00000  Uiso   1.00
C236   C     0.66026   0.91199   0.66155   0.00000  Uiso   1.00
C237   C     0.76543   0.88914   0.66614   0.00000  Uiso   1.00
C238   C     0.77059   0.83461   0.67820   0.00000  Uiso   1.00
C239   C     0.82395   0.74789   0.69716   0.00000  Uiso   1.00
C240   C     0.56049   0.96142   0.62075   0.00000  Uiso   1.00
C241   C     0.58177   0.98013   0.59103   0.00000  Uiso   1.00
C242   C     0.50295   0.96721   0.56873   0.00000  Uiso   1.00
C243   C     0.40140   0.95725   0.52434   0.00000  Uiso   1.00
C244   C     0.45755   0.91462   0.66186   0.00000  Uiso   1.00
C245   C     0.46691   0.97000   0.67985   0.00000  Uiso   1.00
C246   C     0.39057   0.98995   0.70124   0.00000  Uiso   1.00
C247   C     0.41425   0.04157   0.71521   0.00000  Uiso   1.00
C248   C     0.56368   0.88146   0.66874   0.00000  Uiso   1.00
C249   C     0.56870   0.82696   0.68079   0.00000  Uiso   1.00
C250   C     0.67384   0.80403   0.68540   0.00000  Uiso   1.00
C251   C     0.46390   0.93090   0.62794   0.00000  Uiso   1.00
C252   C     0.38504   0.91795   0.60568   0.00000  Uiso   1.00
C253   C     0.40620   0.93663   0.57593   0.00000  Uiso   1.00
H254   H     0.71055   0.99459   0.64303   0.00000  Uiso   1.00
H255   H     0.66205   0.07574   0.68103   0.00000  Uiso   1.00
H256   H     0.84015   0.91277   0.66057   0.00000  Uiso   1.00
H257   H     0.65652   0.00375   0.58548   0.00000  Uiso   1.00
H258   H     0.56570   0.15225   0.72633   0.00000  Uiso   1.00
H259   H     0.94123   0.80860   0.68319   0.00000  Uiso   1.00
H260   H     0.55402   0.00045   0.52484   0.00000  Uiso   1.00
H261   H     0.38236   0.89085   0.66746   0.00000  Uiso   1.00
H262   H     0.31584   0.96632   0.70680   0.00000  Uiso   1.00
H263   H     0.49394   0.80334   0.68635   0.00000  Uiso   1.00
H264   H     0.31031   0.89432   0.61125   0.00000  Uiso   1.00
H265   H     0.28471   0.06344   0.74725   0.00000  Uiso   1.00
H266   H     0.66024   0.71979   0.70411   0.00000  Uiso   1.00
H267   H     0.27302   0.91163   0.54576   0.00000  Uiso   1.00
O268   O     0.38739   0.15935   0.76224   0.00000  Uiso   1.00
O269   O     0.88007   0.70850   0.70564   0.00000  Uiso   1.00
O270   O     0.37205   0.96020   0.49788   0.00000  Uiso   1.00
N271   N     0.50869   0.12100   0.72585   0.00000  Uiso   1.00
N272   N     0.85979   0.79971   0.68553   0.00000  Uiso   1.00
N273   N     0.49779   0.97906   0.53747   0.00000  Uiso   1.00
N274   N     0.35748   0.07321   0.73711   0.00000  Uiso   1.00
N275   N     0.70858   0.75192   0.69678   0.00000  Uiso   1.00
N276   N     0.34659   0.93127   0.54873   0.00000  Uiso   1.00
C277   C     0.36464   0.52918   0.64863   0.00000  Uiso   1.00
C278   C     0.43651   0.49946   0.67266   0.00000  Uiso   1.00
C279   C     0.41271   0.44787   0.68659   0.00000  Uiso   1.00
C280   C     0.48899   0.42785   0.70800   0.00000  Uiso   1.00
C281   C     0.58587   0.37708   0.74424   0.00000  Uiso   1.00
C282   C     0.33974   0.58801   0.66155   0.00000  Uiso   1.00
C283   C     0.23457   0.61086   0.66614   0.00000  Uiso   1.00
C284   C     0.22941   0.66539   0.67820   0.00000  Uiso   1.00
C285   C     0.17605   0.75211   0.69716   0.00000  Uiso   1.00
C286   C     0.43951   0.53858   0.62075   0.00000  Uiso   1.00
C287   C     0.41823   0.51987   0.59103   0.00000  Uiso   1.00
C288   C     0.49705   0.53279   0.56873   0.00000  Uiso   1.00
C289   C     0.59860   0.54275   0.52434   0.00000  Uiso   1.00
C290   C     0.54245   0.58538   0.66186   0.00000  Uiso   1.00
C291   C     0.53309   0.53000   0.67985   0.00000  Uiso   1.00
C292   C     0.60943   0.51005   0.70124   0.00000  Uiso   1.00
C293   C     0.58575   0.45843   0.71521   0.00000  Uiso   1.00
C294   C     0.43632   0.61854   0.66874   0.00000  Uiso   1.00
C295   C     0.43130   0.67304   0.68079   0.00000  Uiso   1.00
C296   C     0.32616   0.69597   0.68540   0.00000  Uiso   1.00
C297   C     0.53610   0.56910   0.62794   0.00000  Uiso   1.00
C298   C     0.61496   0.58205   0.60568   0.00000  Uiso   1.00
C299   C     0.59380   0.56337   0.57593   0.00000  Uiso   1.00
H300   H     0.28945   0.50541   0.64303   0.00000  Uiso   1.00
H301   H     0.33795   0.42426   0.68103   0.00000  Uiso   1.00
H302   H     0.15985   0.58723   0.66057   0.00000  Uiso   1.00
H303   H     0.34348   0.49625   0.58548   0.00000  Uiso   1.00
H304   H     0.43430   0.34775   0.72633   0.00000  Uiso   1.00
H305   H     0.05877   0.69140   0.68319   0.00000  Uiso   1.00
H306   H     0.44598   0.49955   0.52484   0.00000  Uiso   1.00
H307   H     0.61764   0.60915   0.66746   0.00000  Uiso   1.00
H308   H     0.68416   0.53368   0.70680   0.00000  Uiso   1.00
H309   H     0.50606   0.69666   0.68635   0.00000  Uiso   1.00
H310   H     0.68969   0.60568   0.61125   0.00000  Uiso   1.00
H311   H     0.71529   0.43656   0.74725   0.00000  Uiso   1.00
H312   H     0.33976   0.78021   0.70411   0.00000  Uiso   1.00
H313   H     0.72698   0.58837   0.54576   0.00000  Uiso   1.00
O314   O     0.61261   0.34065   0.76224   0.00000  Uiso   1.00
O315   O     0.11993   0.79150   0.70564   0.00000  Uiso   1.00
O316   O     0.62795   0.53980   0.49788   0.00000  Uiso   1.00
N317   N     0.49131   0.37900   0.72585   0.00000  Uiso   1.00
N318   N     0.14021   0.70029   0.68553   0.00000  Uiso   1.00
N319   N     0.50221   0.52094   0.53747   0.00000  Uiso   1.00
N320   N     0.64252   0.42679   0.73711   0.00000  Uiso   1.00
N321   N     0.29142   0.74808   0.69678   0.00000  Uiso   1.00
N322   N     0.65341   0.56873   0.54873   0.00000  Uiso   1.00
C323   C     0.86464   0.02918   0.14863   0.00000  Uiso   1.00
C324   C     0.93651   0.99946   0.17266   0.00000  Uiso   1.00
C325   C     0.91271   0.94787   0.18659   0.00000  Uiso   1.00
C326   C     0.98899   0.92785   0.20800   0.00000  Uiso   1.00
C327   C     0.08587   0.87708   0.24424   0.00000  Uiso   1.00
C328   C     0.83974   0.08801   0.16155   0.00000  Uiso   1.00
C329   C     0.73457   0.11086   0.16614   0.00000  Uiso   1.00
C330   C     0.72941   0.16539   0.17820   0.00000  Uiso   1.00
C331   C     0.67605   0.25211   0.19716   0.00000  Uiso   1.00
C332   C     0.93951   0.03858   0.12075   0.00000  Uiso   1.00
C333   C     0.91823   0.01987   0.09103   0.00000  Uiso   1.00
C334   C     0.99705   0.03279   0.06873   0.00000  Uiso   1.00
C335   C     0.09860   0.04275   0.02434   0.00000  Uiso   1.00
C336   C     0.04245   0.08538   0.16186   0.00000  Uiso   1.00
C337   C     0.03309   0.03000   0.17985   0.00000  Uiso   1.00
C338   C     0.10943   0.01005   0.20124   0.00000  Uiso   1.00
C339   C     0.08575   0.95843   0.21521   0.00000  Uiso   1.00
C340   C     0.93632   0.11854   0.16874   0.00000  Uiso   1.00
C341   C     0.93130   0.17304   0.18079   0.00000  Uiso   1.00
C342   C     0.82616   0.19597   0.18540   0.00000  Uiso   1.00
C343   C     0.03610   0.06910   0.12794   0.00000  Uiso   1.00
C344   C     0.11496   0.08205   0.10568   0.00000  Uiso   1.00
C345   C     0.09380   0.06337   0.07593   0.00000  Uiso   1.00
H346   H     0.78945   0.00541   0.14303   0.00000  Uiso   1.00
H347   H     0.83795   0.92426   0.18103   0.00000  Uiso   1.00
H348   H     0.65985   0.08723   0.16057   0.00000  Uiso   1.00
H349   H     0.84348   0.99625   0.08548   0.00000  Uiso   1.00
H350   H     0.93430   0.84775   0.22633   0.00000  Uiso   1.00
H351   H     0.55877   0.19140   0.18319   0.00000  Uiso   1.00
H352   H     0.94598   0.99955   0.02484   0.00000  Uiso   1.00
H353   H     0.11764   0.10915   0.16746   0.00000  Uiso   1.00
H354   H     0.18416   0.03368   0.20680   0.00000  Uiso   1.00
H355   H     0.00606   0.19666   0.18635   0.00000  Uiso   1.00
H356   H     0.18969   0.10568   0.11125   0.00000  Uiso   1.00
H357   H     0.21529   0.93656   0.24725   0.00000  Uiso   1.00
H358   H     0.83976   0.28021   0.20411   0.00000  Uiso   1.00
H359   H     0.22698   0.08837   0.04576   0.00000  Uiso   1.00
O360   O     0.11261   0.84065   0.26224   0.00000  Uiso   1.00
O361   O     0.61993   0.29150   0.20564   0.00000  Uiso   1.00
O362   O     0.12795   0.03980   0.99788   0.00000  Uiso   1.00
N363   N     0.99131   0.87900   0.22585   0.00000  Uiso   1.00
N364   N     0.64021   0.20029   0.18553   0.00000  Uiso   1.00
N365   N     0.00221   0.02094   0.03747   0.00000  Uiso   1.00
N366   N     0.14252   0.92679   0.23711   0.00000  Uiso   1.00
N367   N     0.79142   0.24808   0.19678   0.00000  Uiso   1.00
N368   N     0.15341   0.06873   0.04873   0.00000  Uiso   1.00
C369   C     0.13536   0.02918   0.64863   0.00000  Uiso   1.00
C370   C     0.06349   0.99946   0.67266   0.00000  Uiso   1.00
C371   C     0.08729   0.94787   0.68659   0.00000  Uiso   1.00
C372   C     0.01101   0.92785   0.70800   0.00000  Uiso   1.00
C373   C     0.91413   0.87708   0.74424   0.00000  Uiso   1.00
C374   C     0.16026   0.08801   0.66155   0.00000  Uiso   1.00
C375   C     0.26543   0.11086   0.66614   0.00000  Uiso   1.00
C376   C     0.27059   0.16539   0.67820   0.00000  Uiso   1.00
C377   C     0.32395   0.25211   0.69716   0.00000  Uiso   1.00
C378   C     0.06049   0.03858   0.62075   0.00000  Uiso   1.00
C379   C     0.08177   0.01987   0.59103   0.00000  Uiso   1.00
C380   C     0.00295   0.03279   0.56873   0.00000  Uiso   1.00
C381   C     0.90140   0.04275   0.52434   0.00000  Uiso   1.00
C382   C     0.95755   0.08538   0.66186   0.00000  Uiso   1.00
C383   C     0.96691   0.03000   0.67985   0.00000  Uiso   1.00
C384   C     0.89057   0.01005   0.70124   0.00000  Uiso   1.00
C385   C     0.91425   0.95843   0.71521   0.00000  Uiso   1.00
C386   C     0.06368   0.11854   0.66874   0.00000  Uiso   1.00
C387   C     0.06870   0.17304   0.68079   0.00000  Uiso   1.00
C388   C     0.17384   0.19597   0.68540   0.00000  Uiso   1.00
C389   C     0.96390   0.06910   0.62794   0.00000  Uiso   1.00
C390   C     0.88504   0.08205   0.60568   0.00000  Uiso   1.00
C391   C     0.90620   0.06337   0.57593   0.00000  Uiso   1.00
H392   H     0.21055   0.00541   0.64303   0.00000  Uiso   1.00
H393   H     0.16205   0.92426   0.68103   0.00000  Uiso   1.00
H394   H     0.34015   0.08723   0.66057   0.00000  Uiso   1.00
H395   H     0.15652   0.99625   0.58548   0.00000  Uiso   1.00
H396   H     0.06570   0.84775   0.72633   0.00000  Uiso   1.00
H397   H     0.44123   0.19140   0.68319   0.00000  Uiso   1.00
H398   H     0.05402   0.99955   0.52484   0.00000  Uiso   1.00
H399   H     0.88236   0.10915   0.66746   0.00000  Uiso   1.00
H400   H     0.81584   0.03368   0.70680   0.00000  Uiso   1.00
H401   H     0.99394   0.19666   0.68635   0.00000  Uiso   1.00
H402   H     0.81031   0.10568   0.61125   0.00000  Uiso   1.00
H403   H     0.78471   0.93656   0.74725   0.00000  Uiso   1.00
H404   H     0.16024   0.28021   0.70411   0.00000  Uiso   1.00
H405   H     0.77302   0.08837   0.54576   0.00000  Uiso   1.00
O406   O     0.88739   0.84065   0.76224   0.00000  Uiso   1.00
O407   O     0.38007   0.29150   0.70564   0.00000  Uiso   1.00
O408   O     0.87205   0.03980   0.49788   0.00000  Uiso   1.00
N409   N     0.00869   0.87900   0.72585   0.00000  Uiso   1.00
N410   N     0.35979   0.20029   0.68553   0.00000  Uiso   1.00
N411   N     0.99779   0.02094   0.53747   0.00000  Uiso   1.00
N412   N     0.85748   0.92679   0.73711   0.00000  Uiso   1.00
N413   N     0.20858   0.24808   0.69678   0.00000  Uiso   1.00
N414   N     0.84659   0.06873   0.54873   0.00000  Uiso   1.00
C415   C     0.63536   0.52918   0.14863   0.00000  Uiso   1.00
C416   C     0.56349   0.49946   0.17266   0.00000  Uiso   1.00
C417   C     0.58729   0.44787   0.18659   0.00000  Uiso   1.00
C418   C     0.51101   0.42785   0.20800   0.00000  Uiso   1.00
C419   C     0.41413   0.37708   0.24424   0.00000  Uiso   1.00
C420   C     0.66026   0.58801   0.16155   0.00000  Uiso   1.00
C421   C     0.76543   0.61086   0.16614   0.00000  Uiso   1.00
C422   C     0.77059   0.66539   0.17820   0.00000  Uiso   1.00
C423   C     0.82395   0.75211   0.19716   0.00000  Uiso   1.00
C424   C     0.56049   0.53858   0.12075   0.00000  Uiso   1.00
C425   C     0.58177   0.51987   0.09103   0.00000  Uiso   1.00
C426   C     0.50295   0.53279   0.06873   0.00000  Uiso   1.00
C427   C     0.40140   0.54275   0.02434   0.00000  Uiso   1.00
C428   C     0.45755   0.58538   0.16186   0.00000  Uiso   1.00
C429   C     0.46691   0.53000   0.17985   0.00000  Uiso   1.00
C430   C     0.39057   0.51005   0.20124   0.00000  Uiso   1.00
C431   C     0.41425   0.45843   0.21521   0.00000  Uiso   1.00
C432   C     0.56368   0.61854   0.16874   0.00000  Uiso   1.00
C433   C     0.56870   0.67304   0.18079   0.00000  Uiso   1.00
C434   C     0.67384   0.69597   0.18540   0.00000  Uiso   1.00
C435   C     0.46390   0.56910   0.12794   0.00000  Uiso   1.00
C436   C     0.38504   0.58205   0.10568   0.00000  Uiso   1.00
C437   C     0.40620   0.56337   0.07593   0.00000  Uiso   1.00
H438   H     0.71055   0.50541   0.14303   0.00000  Uiso   1.00
H439   H     0.66205   0.42426   0.18103   0.00000  Uiso   1.00
H440   H     0.84015   0.58723   0.16057   0.00000  Uiso   1.00
H441   H     0.65652   0.49625   0.08548   0.00000  Uiso   1.00
H442   H     0.56570   0.34775   0.22633   0.00000  Uiso   1.00
H443   H     0.94123   0.69140   0.18319   0.00000  Uiso   1.00
H444   H     0.55402   0.49955   0.02484   0.00000  Uiso   1.00
H445   H     0.38236   0.60915   0.16746   0.00000  Uiso   1.00
H446   H     0.31584   0.53368   0.20680   0.00000  Uiso   1.00
H447   H     0.49394   0.69666   0.18635   0.00000  Uiso   1.00
H448   H     0.31031   0.60568   0.11125   0.00000  Uiso   1.00
H449   H     0.28471   0.43656   0.24725   0.00000  Uiso   1.00
H450   H     0.66024   0.78021   0.20411   0.00000  Uiso   1.00
H451   H     0.27302   0.58837   0.04576   0.00000  Uiso   1.00
O452   O     0.38739   0.34065   0.26224   0.00000  Uiso   1.00
O453   O     0.88007   0.79150   0.20564   0.00000  Uiso   1.00
O454   O     0.37205   0.53980   0.99788   0.00000  Uiso   1.00
N455   N     0.50869   0.37900   0.22585   0.00000  Uiso   1.00
N456   N     0.85979   0.70029   0.18553   0.00000  Uiso   1.00
N457   N     0.49779   0.52094   0.03747   0.00000  Uiso   1.00
N458   N     0.35748   0.42679   0.23711   0.00000  Uiso   1.00
N459   N     0.70858   0.74808   0.19678   0.00000  Uiso   1.00
N460   N     0.34659   0.56873   0.04873   0.00000  Uiso   1.00
C461   C     0.36464   0.97082   0.14863   0.00000  Uiso   1.00
C462   C     0.43651   0.00054   0.17266   0.00000  Uiso   1.00
C463   C     0.41271   0.05213   0.18659   0.00000  Uiso   1.00
C464   C     0.48899   0.07215   0.20800   0.00000  Uiso   1.00
C465   C     0.58587   0.12292   0.24424   0.00000  Uiso   1.00
C466   C     0.33974   0.91199   0.16155   0.00000  Uiso   1.00
C467   C     0.23457   0.88914   0.16614   0.00000  Uiso   1.00
C468   C     0.22941   0.83461   0.17820   0.00000  Uiso   1.00
C469   C     0.17605   0.74789   0.19716   0.00000  Uiso   1.00
C470   C     0.43951   0.96142   0.12075   0.00000  Uiso   1.00
C471   C     0.41823   0.98013   0.09103   0.00000  Uiso   1.00
C472   C     0.49705   0.96721   0.06873   0.00000  Uiso   1.00
C473   C     0.59860   0.95725   0.02434   0.00000  Uiso   1.00
C474   C     0.54245   0.91462   0.16186   0.00000  Uiso   1.00
C475   C     0.53309   0.97000   0.17985   0.00000  Uiso   1.00
C476   C     0.60943   0.98995   0.20124   0.00000  Uiso   1.00
C477   C     0.58575   0.04157   0.21521   0.00000  Uiso   1.00
C478   C     0.43632   0.88146   0.16874   0.00000  Uiso   1.00
C479   C     0.43130   0.82696   0.18079   0.00000  Uiso   1.00
C480   C     0.32616   0.80403   0.18540   0.00000  Uiso   1.00
C481   C     0.53610   0.93090   0.12794   0.00000  Uiso   1.00
C482   C     0.61496   0.91795   0.10568   0.00000  Uiso   1.00
C483   C     0.59380   0.93663   0.07593   0.00000  Uiso   1.00
H484   H     0.28945   0.99459   0.14303   0.00000  Uiso   1.00
H485   H     0.33795   0.07574   0.18103   0.00000  Uiso   1.00
H486   H     0.15985   0.91277   0.16057   0.00000  Uiso   1.00
H487   H     0.34348   0.00375   0.08548   0.00000  Uiso   1.00
H488   H     0.43430   0.15225   0.22633   0.00000  Uiso   1.00
H489   H     0.05877   0.80860   0.18319   0.00000  Uiso   1.00
H490   H     0.44598   0.00045   0.02484   0.00000  Uiso   1.00
H491   H     0.61764   0.89085   0.16746   0.00000  Uiso   1.00
H492   H     0.68416   0.96632   0.20680   0.00000  Uiso   1.00
H493   H     0.50606   0.80334   0.18635   0.00000  Uiso   1.00
H494   H     0.68969   0.89432   0.11125   0.00000  Uiso   1.00
H495   H     0.71529   0.06344   0.24725   0.00000  Uiso   1.00
H496   H     0.33976   0.71979   0.20411   0.00000  Uiso   1.00
H497   H     0.72698   0.91163   0.04576   0.00000  Uiso   1.00
O498   O     0.61261   0.15935   0.26224   0.00000  Uiso   1.00
O499   O     0.11993   0.70850   0.20564   0.00000  Uiso   1.00
O500   O     0.62795   0.96020   0.99788   0.00000  Uiso   1.00
N501   N     0.49131   0.12100   0.22585   0.00000  Uiso   1.00
N502   N     0.14021   0.79971   0.18553   0.00000  Uiso   1.00
N503   N     0.50221   0.97906   0.03747   0.00000  Uiso   1.00
N504   N     0.64252   0.07321   0.23711   0.00000  Uiso   1.00
N505   N     0.29142   0.75192   0.19678   0.00000  Uiso   1.00
N506   N     0.65341   0.93127   0.04873   0.00000  Uiso   1.00
C507   C     0.86464   0.47082   0.64863   0.00000  Uiso   1.00
C508   C     0.93651   0.50054   0.67266   0.00000  Uiso   1.00
C509   C     0.91271   0.55213   0.68659   0.00000  Uiso   1.00
C510   C     0.98899   0.57215   0.70800   0.00000  Uiso   1.00
C511   C     0.08587   0.62292   0.74424   0.00000  Uiso   1.00
C512   C     0.83974   0.41199   0.66155   0.00000  Uiso   1.00
C513   C     0.73457   0.38914   0.66614   0.00000  Uiso   1.00
C514   C     0.72941   0.33461   0.67820   0.00000  Uiso   1.00
C515   C     0.67605   0.24789   0.69716   0.00000  Uiso   1.00
C516   C     0.93951   0.46142   0.62075   0.00000  Uiso   1.00
C517   C     0.91823   0.48013   0.59103   0.00000  Uiso   1.00
C518   C     0.99705   0.46721   0.56873   0.00000  Uiso   1.00
C519   C     0.09860   0.45725   0.52434   0.00000  Uiso   1.00
C520   C     0.04245   0.41462   0.66186   0.00000  Uiso   1.00
C521   C     0.03309   0.47000   0.67985   0.00000  Uiso   1.00
C522   C     0.10943   0.48995   0.70124   0.00000  Uiso   1.00
C523   C     0.08575   0.54157   0.71521   0.00000  Uiso   1.00
C524   C     0.93632   0.38146   0.66874   0.00000  Uiso   1.00
C525   C     0.93130   0.32696   0.68079   0.00000  Uiso   1.00
C526   C     0.82616   0.30403   0.68540   0.00000  Uiso   1.00
C527   C     0.03610   0.43090   0.62794   0.00000  Uiso   1.00
C528   C     0.11496   0.41795   0.60568   0.00000  Uiso   1.00
C529   C     0.09380   0.43663   0.57593   0.00000  Uiso   1.00
H530   H     0.78945   0.49459   0.64303   0.00000  Uiso   1.00
H531   H     0.83795   0.57574   0.68103   0.00000  Uiso   1.00
H532   H     0.65985   0.41277   0.66057   0.00000  Uiso   1.00
H533   H     0.84348   0.50375   0.58548   0.00000  Uiso   1.00
H534   H     0.93430   0.65225   0.72633   0.00000  Uiso   1.00
H535   H     0.55877   0.30860   0.68319   0.00000  Uiso   1.00
H536   H     0.94598   0.50045   0.52484   0.00000  Uiso   1.00
H537   H     0.11764   0.39085   0.66746   0.00000  Uiso   1.00
H538   H     0.18416   0.46632   0.70680   0.00000  Uiso   1.00
H539   H     0.00606   0.30334   0.68635   0.00000  Uiso   1.00
H540   H     0.18969   0.39432   0.61125   0.00000  Uiso   1.00
H541   H     0.21529   0.56344   0.74725   0.00000  Uiso   1.00
H542   H     0.83976   0.21979   0.70411   0.00000  Uiso   1.00
H543   H     0.22698   0.41163   0.54576   0.00000  Uiso   1.00
O544   O     0.11261   0.65935   0.76224   0.00000  Uiso   1.00
O545   O     0.61993   0.20850   0.70564   0.00000  Uiso   1.00
O546   O     0.12795   0.46020   0.49788   0.00000  Uiso   1.00
N547   N     0.99131   0.62100   0.72585   0.00000  Uiso   1.00
N548   N     0.64021   0.29971   0.68553   0.00000  Uiso   1.00
N549   N     0.00221   0.47906   0.53747   0.00000  Uiso   1.00
N550   N     0.14252   0.57321   0.73711   0.00000  Uiso   1.00
N551   N     0.79142   0.25192   0.69678   0.00000  Uiso   1.00
N552   N     0.15341   0.43127   0.54873   0.00000  Uiso   1.00
C553   C     0.86464   0.52918   0.85137   0.00000  Uiso   1.00
C554   C     0.93651   0.49946   0.82734   0.00000  Uiso   1.00
C555   C     0.91271   0.44787   0.81341   0.00000  Uiso   1.00
C556   C     0.98899   0.42785   0.79200   0.00000  Uiso   1.00
C557   C     0.08587   0.37708   0.75576   0.00000  Uiso   1.00
C558   C     0.83974   0.58801   0.83845   0.00000  Uiso   1.00
C559   C     0.73457   0.61086   0.83386   0.00000  Uiso   1.00
C560   C     0.72941   0.66539   0.82180   0.00000  Uiso   1.00
C561   C     0.67605   0.75211   0.80284   0.00000  Uiso   1.00
C562   C     0.93951   0.53858   0.87925   0.00000  Uiso   1.00
C563   C     0.91823   0.51987   0.90897   0.00000  Uiso   1.00
C564   C     0.99705   0.53279   0.93127   0.00000  Uiso   1.00
C565   C     0.09860   0.54275   0.97566   0.00000  Uiso   1.00
C566   C     0.04245   0.58538   0.83814   0.00000  Uiso   1.00
C567   C     0.03309   0.53000   0.82015   0.00000  Uiso   1.00
C568   C     0.10943   0.51005   0.79876   0.00000  Uiso   1.00
C569   C     0.08575   0.45843   0.78479   0.00000  Uiso   1.00
C570   C     0.93632   0.61854   0.83126   0.00000  Uiso   1.00
C571   C     0.93130   0.67304   0.81921   0.00000  Uiso   1.00
C572   C     0.82616   0.69597   0.81460   0.00000  Uiso   1.00
C573   C     0.03610   0.56910   0.87206   0.00000  Uiso   1.00
C574   C     0.11496   0.58205   0.89432   0.00000  Uiso   1.00
C575   C     0.09380   0.56337   0.92407   0.00000  Uiso   1.00
H576   H     0.78945   0.50541   0.85697   0.00000  Uiso   1.00
H577   H     0.83795   0.42426   0.81897   0.00000  Uiso   1.00
H578   H     0.65985   0.58723   0.83943   0.00000  Uiso   1.00
H579   H     0.84348   0.49625   0.91452   0.00000  Uiso   1.00
H580   H     0.93430   0.34775   0.77367   0.00000  Uiso   1.00
H581   H     0.55877   0.69140   0.81681   0.00000  Uiso   1.00
H582   H     0.94598   0.49955   0.97516   0.00000  Uiso   1.00
H583   H     0.11764   0.60915   0.83254   0.00000  Uiso   1.00
H584   H     0.18416   0.53368   0.79320   0.00000  Uiso   1.00
H585   H     0.00606   0.69666   0.81365   0.00000  Uiso   1.00
H586   H     0.18969   0.60568   0.88875   0.00000  Uiso   1.00
H587   H     0.21529   0.43656   0.75275   0.00000  Uiso   1.00
H588   H     0.83976   0.78021   0.79589   0.00000  Uiso   1.00
H589   H     0.22698   0.58837   0.95424   0.00000  Uiso   1.00
O590   O     0.11261   0.34065   0.73776   0.00000  Uiso   1.00
O591   O     0.61993   0.79150   0.79436   0.00000  Uiso   1.00
O592   O     0.12795   0.53980   0.00212   0.00000  Uiso   1.00
N593   N     0.99131   0.37900   0.77415   0.00000  Uiso   1.00
N594   N     0.64021   0.70029   0.81447   0.00000  Uiso   1.00
N595   N     0.00221   0.52094   0.96253   0.00000  Uiso   1.00
N596   N     0.14252   0.42679   0.76289   0.00000  Uiso   1.00
N597   N     0.79142   0.74808   0.80322   0.00000  Uiso   1.00
N598   N     0.15341   0.56873   0.95127   0.00000  Uiso   1.00
C599   C     0.36464   0.02918   0.35137   0.00000  Uiso   1.00
C600   C     0.43651   0.99946   0.32734   0.00000  Uiso   1.00
C601   C     0.41271   0.94787   0.31341   0.00000  Uiso   1.00
C602   C     0.48899   0.92785   0.29200   0.00000  Uiso   1.00
C603   C     0.58587   0.87708   0.25576   0.00000  Uiso   1.00
C604   C     0.33974   0.08801   0.33845   0.00000  Uiso   1.00
C605   C     0.23457   0.11086   0.33386   0.00000  Uiso   1.00
C606   C     0.22941   0.16539   0.32180   0.00000  Uiso   1.00
C607   C     0.17605   0.25211   0.30284   0.00000  Uiso   1.00
C608   C     0.43951   0.03858   0.37925   0.00000  Uiso   1.00
C609   C     0.41823   0.01987   0.40897   0.00000  Uiso   1.00
C610   C     0.49705   0.03279   0.43127   0.00000  Uiso   1.00
C611   C     0.59860   0.04275   0.47566   0.00000  Uiso   1.00
C612   C     0.54245   0.08538   0.33814   0.00000  Uiso   1.00
C613   C     0.53309   0.03000   0.32015   0.00000  Uiso   1.00
C614   C     0.60943   0.01005   0.29876   0.00000  Uiso   1.00
C615   C     0.58575   0.95843   0.28479   0.00000  Uiso   1.00
C616   C     0.43632   0.11854   0.33126   0.00000  Uiso   1.00
C617   C     0.43130   0.17304   0.31921   0.00000  Uiso   1.00
C618   C     0.32616   0.19597   0.31460   0.00000  Uiso   1.00
C619   C     0.53610   0.06910   0.37206   0.00000  Uiso   1.00
C620   C     0.61496   0.08205   0.39432   0.00000  Uiso   1.00
C621   C     0.59380   0.06337   0.42407   0.00000  Uiso   1.00
H622   H     0.28945   0.00541   0.35697   0.00000  Uiso   1.00
H623   H     0.33795   0.92426   0.31897   0.00000  Uiso   1.00
H624   H     0.15985   0.08723   0.33943   0.00000  Uiso   1.00
H625   H     0.34348   0.99625   0.41452   0.00000  Uiso   1.00
H626   H     0.43430   0.84775   0.27367   0.00000  Uiso   1.00
H627   H     0.05877   0.19140   0.31681   0.00000  Uiso   1.00
H628   H     0.44598   0.99955   0.47516   0.00000  Uiso   1.00
H629   H     0.61764   0.10915   0.33254   0.00000  Uiso   1.00
H630   H     0.68416   0.03368   0.29320   0.00000  Uiso   1.00
H631   H     0.50606   0.19666   0.31365   0.00000  Uiso   1.00
H632   H     0.68969   0.10568   0.38875   0.00000  Uiso   1.00
H633   H     0.71529   0.93656   0.25275   0.00000  Uiso   1.00
H634   H     0.33976   0.28021   0.29589   0.00000  Uiso   1.00
H635   H     0.72698   0.08837   0.45424   0.00000  Uiso   1.00
O636   O     0.61261   0.84065   0.23776   0.00000  Uiso   1.00
O637   O     0.11993   0.29150   0.29436   0.00000  Uiso   1.00
O638   O     0.62795   0.03980   0.50212   0.00000  Uiso   1.00
N639   N     0.49131   0.87900   0.27415   0.00000  Uiso   1.00
N640   N     0.14021   0.20029   0.31447   0.00000  Uiso   1.00
N641   N     0.50221   0.02094   0.46253   0.00000  Uiso   1.00
N642   N     0.64252   0.92679   0.26289   0.00000  Uiso   1.00
N643   N     0.29142   0.24808   0.30322   0.00000  Uiso   1.00
N644   N     0.65341   0.06873   0.45127   0.00000  Uiso   1.00
C645   C     0.63536   0.47082   0.35137   0.00000  Uiso   1.00
C646   C     0.56349   0.50054   0.32734   0.00000  Uiso   1.00
C647   C     0.58729   0.55213   0.31341   0.00000  Uiso   1.00
C648   C     0.51101   0.57215   0.29200   0.00000  Uiso   1.00
C649   C     0.41413   0.62292   0.25576   0.00000  Uiso   1.00
C650   C     0.66026   0.41199   0.33845   0.00000  Uiso   1.00
C651   C     0.76543   0.38914   0.33386   0.00000  Uiso   1.00
C652   C     0.77059   0.33461   0.32180   0.00000  Uiso   1.00
C653   C     0.82395   0.24789   0.30284   0.00000  Uiso   1.00
C654   C     0.56049   0.46142   0.37925   0.00000  Uiso   1.00
C655   C     0.58177   0.48013   0.40897   0.00000  Uiso   1.00
C656   C     0.50295   0.46721   0.43127   0.00000  Uiso   1.00
C657   C     0.40140   0.45725   0.47566   0.00000  Uiso   1.00
C658   C     0.45755   0.41462   0.33814   0.00000  Uiso   1.00
C659   C     0.46691   0.47000   0.32015   0.00000  Uiso   1.00
C660   C     0.39057   0.48995   0.29876   0.00000  Uiso   1.00
C661   C     0.41425   0.54157   0.28479   0.00000  Uiso   1.00
C662   C     0.56368   0.38146   0.33126   0.00000  Uiso   1.00
C663   C     0.56870   0.32696   0.31921   0.00000  Uiso   1.00
C664   C     0.67384   0.30403   0.31460   0.00000  Uiso   1.00
C665   C     0.46390   0.43090   0.37206   0.00000  Uiso   1.00
C666   C     0.38504   0.41795   0.39432   0.00000  Uiso   1.00
C667   C     0.40620   0.43663   0.42407   0.00000  Uiso   1.00
H668   H     0.71055   0.49459   0.35697   0.00000  Uiso   1.00
H669   H     0.66205   0.57574   0.31897   0.00000  Uiso   1.00
H670   H     0.84015   0.41277   0.33943   0.00000  Uiso   1.00
H671   H     0.65652   0.50375   0.41452   0.00000  Uiso   1.00
H672   H     0.56570   0.65225   0.27367   0.00000  Uiso   1.00
H673   H     0.94123   0.30860   0.31681   0.00000  Uiso   1.00
H674   H     0.55402   0.50045   0.47516   0.00000  Uiso   1.00
H675   H     0.38236   0.39085   0.33254   0.00000  Uiso   1.00
H676   H     0.31584   0.46632   0.29320   0.00000  Uiso   1.00
H677   H     0.49394   0.30334   0.31365   0.00000  Uiso   1.00
H678   H     0.31031   0.39432   0.38875   0.00000  Uiso   1.00
H679   H     0.28471   0.56344   0.25275   0.00000  Uiso   1.00
H680   H     0.66024   0.21979   0.29589   0.00000  Uiso   1.00
H681   H     0.27302   0.41163   0.45424   0.00000  Uiso   1.00
O682   O     0.38739   0.65935   0.23776   0.00000  Uiso   1.00
O683   O     0.88007   0.20850   0.29436   0.00000  Uiso   1.00
O684   O     0.37205   0.46020   0.50212   0.00000  Uiso   1.00
N685   N     0.50869   0.62100   0.27415   0.00000  Uiso   1.00
N686   N     0.85979   0.29971   0.31447   0.00000  Uiso   1.00
N687   N     0.49779   0.47906   0.46253   0.00000  Uiso   1.00
N688   N     0.35748   0.57321   0.26289   0.00000  Uiso   1.00
N689   N     0.70858   0.25192   0.30322   0.00000  Uiso   1.00
N690   N     0.34659   0.43127   0.45127   0.00000  Uiso   1.00
C691   C     0.13536   0.97082   0.85137   0.00000  Uiso   1.00
C692   C     0.06349   0.00054   0.82734   0.00000  Uiso   1.00
C693   C     0.08729   0.05213   0.81341   0.00000  Uiso   1.00
C694   C     0.01101   0.07215   0.79200   0.00000  Uiso   1.00
C695   C     0.91413   0.12292   0.75576   0.00000  Uiso   1.00
C696   C     0.16026   0.91199   0.83845   0.00000  Uiso   1.00
C697   C     0.26543   0.88914   0.83386   0.00000  Uiso   1.00
C698   C     0.27059   0.83461   0.82180   0.00000  Uiso   1.00
C699   C     0.32395   0.74789   0.80284   0.00000  Uiso   1.00
C700   C     0.06049   0.96142   0.87925   0.00000  Uiso   1.00
C701   C     0.08177   0.98013   0.90897   0.00000  Uiso   1.00
C702   C     0.00295   0.96721   0.93127   0.00000  Uiso   1.00
C703   C     0.90140   0.95725   0.97566   0.00000  Uiso   1.00
C704   C     0.95755   0.91462   0.83814   0.00000  Uiso   1.00
C705   C     0.96691   0.97000   0.82015   0.00000  Uiso   1.00
C706   C     0.89057   0.98995   0.79876   0.00000  Uiso   1.00
C707   C     0.91425   0.04157   0.78479   0.00000  Uiso   1.00
C708   C     0.06368   0.88146   0.83126   0.00000  Uiso   1.00
C709   C     0.06870   0.82696   0.81921   0.00000  Uiso   1.00
C710   C     0.17384   0.80403   0.81460   0.00000  Uiso   1.00
C711   C     0.96390   0.93090   0.87206   0.00000  Uiso   1.00
C712   C     0.88504   0.91795   0.89432   0.00000  Uiso   1.00
C713   C     0.90620   0.93663   0.92407   0.00000  Uiso   1.00
H714   H     0.21055   0.99459   0.85697   0.00000  Uiso   1.00
H715   H     0.16205   0.07574   0.81897   0.00000  Uiso   1.00
H716   H     0.34015   0.91277   0.83943   0.00000  Uiso   1.00
H717   H     0.15652   0.00375   0.91452   0.00000  Uiso   1.00
H718   H     0.06570   0.15225   0.77367   0.00000  Uiso   1.00
H719   H     0.44123   0.80860   0.81681   0.00000  Uiso   1.00
H720   H     0.05402   0.00045   0.97516   0.00000  Uiso   1.00
H721   H     0.88236   0.89085   0.83254   0.00000  Uiso   1.00
H722   H     0.81584   0.96632   0.79320   0.00000  Uiso   1.00
H723   H     0.99394   0.80334   0.81365   0.00000  Uiso   1.00
H724   H     0.81031   0.89432   0.88875   0.00000  Uiso   1.00
H725   H     0.78471   0.06344   0.75275   0.00000  Uiso   1.00
H726   H     0.16024   0.71979   0.79589   0.00000  Uiso   1.00
H727   H     0.77302   0.91163   0.95424   0.00000  Uiso   1.00
O728   O     0.88739   0.15935   0.73776   0.00000  Uiso   1.00
O729   O     0.38007   0.70850   0.79436   0.00000  Uiso   1.00
O730   O     0.87205   0.96020   0.00212   0.00000  Uiso   1.00
N731   N     0.00869   0.12100   0.77415   0.00000  Uiso   1.00
N732   N     0.35979   0.79971   0.81447   0.00000  Uiso   1.00
N733   N     0.99779   0.97906   0.96253   0.00000  Uiso   1.00
N734   N     0.85748   0.07321   0.76289   0.00000  Uiso   1.00
N735   N     0.20858   0.75192   0.80322   0.00000  Uiso   1.00
N736   N     0.84659   0.93127   0.95127   0.00000  Uiso   1.00
