data_job_06699
_audit_creation_date              2018-12-19
_audit_creation_method            'Materials Studio'
_symmetry_space_group_name_H-M    'P1'
_symmetry_Int_Tables_number       1
_symmetry_cell_setting            triclinic
loop_
_symmetry_equiv_pos_as_xyz
  x,y,z
_cell_length_a                    30.0036
_cell_length_b                    16.5257
_cell_length_c                    44.1529
_cell_angle_alpha                 90.0000
_cell_angle_beta                  119.3901
_cell_angle_gamma                 90.0000
loop_
_atom_site_label
_atom_site_type_symbol
_atom_site_fract_x
_atom_site_fract_y
_atom_site_fract_z
_atom_site_U_iso_or_equiv
_atom_site_adp_type
_atom_site_occupancy
C1     C     0.48411   0.87900   0.84070   0.00000  Uiso   1.00
C2     C     0.50999   0.94347   0.86872   0.00000  Uiso   1.00
C3     C     0.52621   0.93361   0.90383   0.00000  Uiso   1.00
C4     C     0.54903   0.99989   0.92525   0.00000  Uiso   1.00
C5     C     0.58822   0.08883   0.97076   0.00000  Uiso   1.00
C6     C     0.43349   0.91559   0.81347   0.00000  Uiso   1.00
C7     C     0.38540   0.88228   0.80212   0.00000  Uiso   1.00
C8     C     0.34383   0.92510   0.77703   0.00000  Uiso   1.00
C9     C     0.26426   0.97073   0.73675   0.00000  Uiso   1.00
C10    C     0.51683   0.87063   0.82320   0.00000  Uiso   1.00
C11    C     0.03881   0.29952   0.82002   0.00000  Uiso   1.00
C12    C     0.06739   0.30449   0.80311   0.00000  Uiso   1.00
C13    C     0.11723   0.28031   0.77794   0.00000  Uiso   1.00
C14    C     0.49577   0.01425   0.81631   0.00000  Uiso   1.00
C15    C     0.51632   0.01693   0.85547   0.00000  Uiso   1.00
C16    C     0.53912   0.08324   0.87684   0.00000  Uiso   1.00
C17    C     0.55538   0.07349   0.91198   0.00000  Uiso   1.00
C18    C     0.43983   0.98905   0.80022   0.00000  Uiso   1.00
C19    C     0.39831   0.03192   0.77513   0.00000  Uiso   1.00
C20    C     0.35017   0.99869   0.76376   0.00000  Uiso   1.00
C21    C     0.52317   0.94409   0.80995   0.00000  Uiso   1.00
C22    C     0.55172   0.94916   0.79304   0.00000  Uiso   1.00
C23    C     0.07374   0.37808   0.78984   0.00000  Uiso   1.00
H24    H     0.47917   0.82181   0.85101   0.00000  Uiso   1.00
H25    H     0.52130   0.87675   0.91407   0.00000  Uiso   1.00
H26    H     0.38051   0.82543   0.81238   0.00000  Uiso   1.00
H27    H     0.03390   0.24269   0.83028   0.00000  Uiso   1.00
H28    H     0.57078   0.97007   0.97813   0.00000  Uiso   1.00
H29    H     0.27393   0.86185   0.76370   0.00000  Uiso   1.00
H30    H     0.09737   0.18736   0.80145   0.00000  Uiso   1.00
H31    H     0.50070   0.07144   0.80599   0.00000  Uiso   1.00
H32    H     0.54402   0.14008   0.86658   0.00000  Uiso   1.00
H33    H     0.40323   0.08876   0.76489   0.00000  Uiso   1.00
H34    H     0.55661   0.00602   0.78279   0.00000  Uiso   1.00
H35    H     0.58922   0.18380   0.93959   0.00000  Uiso   1.00
H36    H     0.29236   0.07557   0.72516   0.00000  Uiso   1.00
H37    H     0.11581   0.40110   0.76290   0.00000  Uiso   1.00
O38    O     0.60809   0.11760   0.99953   0.00000  Uiso   1.00
O39    O     0.21863   0.97560   0.71820   0.00000  Uiso   1.00
O40    O     0.14298   0.24669   0.76772   0.00000  Uiso   1.00
N41    N     0.56919   0.01095   0.96075   0.00000  Uiso   1.00
N42    N     0.29164   0.90977   0.76027   0.00000  Uiso   1.00
N43    N     0.09403   0.24664   0.79555   0.00000  Uiso   1.00
N44    N     0.57911   0.12595   0.94001   0.00000  Uiso   1.00
N45    N     0.30156   0.02478   0.73953   0.00000  Uiso   1.00
N46    N     0.10395   0.36165   0.77481   0.00000  Uiso   1.00
C47    C     0.51755   0.36794   0.90800   0.00000  Uiso   1.00
C48    C     0.48661   0.31205   0.91817   0.00000  Uiso   1.00
C49    C     0.50416   0.27580   0.95040   0.00000  Uiso   1.00
C50    C     0.46995   0.22672   0.95453   0.00000  Uiso   1.00
C51    C     0.42952   0.14178   0.97445   0.00000  Uiso   1.00
C52    C     0.51600   0.32987   0.87604   0.00000  Uiso   1.00
C53    C     0.55826   0.30862   0.87284   0.00000  Uiso   1.00
C54    C     0.54878   0.27456   0.84149   0.00000  Uiso   1.00
C55    C     0.55398   0.21735   0.79598   0.00000  Uiso   1.00
C56    C     0.48702   0.44632   0.89553   0.00000  Uiso   1.00
C57    C     0.50492   0.52300   0.90872   0.00000  Uiso   1.00
C58    C     0.47105   0.58699   0.89378   0.00000  Uiso   1.00
C59    C     0.43126   0.71059   0.87854   0.00000  Uiso   1.00
C60    C     0.42560   0.34523   0.85801   0.00000  Uiso   1.00
C61    C     0.43667   0.29971   0.89102   0.00000  Uiso   1.00
C62    C     0.40243   0.25068   0.89509   0.00000  Uiso   1.00
C63    C     0.41992   0.21437   0.92732   0.00000  Uiso   1.00
C64    C     0.46606   0.31754   0.84888   0.00000  Uiso   1.00
C65    C     0.45652   0.28350   0.81753   0.00000  Uiso   1.00
C66    C     0.49875   0.26220   0.81428   0.00000  Uiso   1.00
C67    C     0.43708   0.43399   0.86838   0.00000  Uiso   1.00
C68    C     0.40318   0.49788   0.85341   0.00000  Uiso   1.00
C69    C     0.42102   0.57463   0.86657   0.00000  Uiso   1.00
H70    H     0.55643   0.37754   0.92914   0.00000  Uiso   1.00
H71    H     0.54282   0.28535   0.97141   0.00000  Uiso   1.00
H72    H     0.59690   0.31818   0.89386   0.00000  Uiso   1.00
H73    H     0.54357   0.53252   0.92974   0.00000  Uiso   1.00
H74    H     0.50570   0.17769   0.00630   0.00000  Uiso   1.00
H75    H     0.61974   0.24693   0.84277   0.00000  Uiso   1.00
H76    H     0.50728   0.69891   0.91842   0.00000  Uiso   1.00
H77    H     0.38671   0.33563   0.83686   0.00000  Uiso   1.00
H78    H     0.36378   0.24115   0.87407   0.00000  Uiso   1.00
H79    H     0.41787   0.27397   0.79652   0.00000  Uiso   1.00
H80    H     0.36454   0.48831   0.83239   0.00000  Uiso   1.00
H81    H     0.36039   0.14180   0.92729   0.00000  Uiso   1.00
H82    H     0.47443   0.21105   0.76376   0.00000  Uiso   1.00
H83    H     0.86197   0.16303   0.83941   0.00000  Uiso   1.00
O84    O     0.42102   0.09833   0.99293   0.00000  Uiso   1.00
O85    O     0.57064   0.18919   0.77838   0.00000  Uiso   1.00
O86    O     0.42310   0.78217   0.87764   0.00000  Uiso   1.00
N87    N     0.47464   0.18222   0.98260   0.00000  Uiso   1.00
N88    N     0.58126   0.24695   0.82971   0.00000  Uiso   1.00
N89    N     0.97613   0.16952   0.90043   0.00000  Uiso   1.00
N90    N     0.39645   0.16291   0.94009   0.00000  Uiso   1.00
N91    N     0.50307   0.22764   0.78720   0.00000  Uiso   1.00
N92    N     0.89794   0.15021   0.85792   0.00000  Uiso   1.00
C93    C     0.22889   0.10825   0.86649   0.00000  Uiso   1.00
C94    C     0.27796   0.06059   0.87733   0.00000  Uiso   1.00
C95    C     0.30430   0.01573   0.90763   0.00000  Uiso   1.00
C96    C     0.34842   0.97652   0.91280   0.00000  Uiso   1.00
C97    C     0.42202   0.90170   0.93334   0.00000  Uiso   1.00
C98    C     0.24034   0.19503   0.86071   0.00000  Uiso   1.00
C99    C     0.23505   0.26321   0.87703   0.00000  Uiso   1.00
C100   C     0.24749   0.33716   0.86820   0.00000  Uiso   1.00
C101   C     0.26266   0.47107   0.86293   0.00000  Uiso   1.00
C102   C     0.18996   0.07608   0.83078   0.00000  Uiso   1.00
C103   C     0.14229   0.04427   0.82192   0.00000  Uiso   1.00
C104   C     0.11230   0.01810   0.78789   0.00000  Uiso   1.00
C105   C     0.04923   0.96733   0.73613   0.00000  Uiso   1.00
C106   C     0.26039   0.11837   0.82178   0.00000  Uiso   1.00
C107   C     0.29507   0.06609   0.85305   0.00000  Uiso   1.00
C108   C     0.33916   0.02693   0.85817   0.00000  Uiso   1.00
C109   C     0.36556   0.98202   0.88847   0.00000  Uiso   1.00
C110   C     0.25745   0.20053   0.83643   0.00000  Uiso   1.00
C111   C     0.26990   0.27440   0.82758   0.00000  Uiso   1.00
C112   C     0.26463   0.34267   0.84388   0.00000  Uiso   1.00
C113   C     0.20706   0.08158   0.80650   0.00000  Uiso   1.00
C114   C     0.17714   0.05546   0.77247   0.00000  Uiso   1.00
C115   C     0.12944   0.02360   0.76356   0.00000  Uiso   1.00
H116   H     0.21557   0.10398   0.88539   0.00000  Uiso   1.00
H117   H     0.29105   0.01150   0.92642   0.00000  Uiso   1.00
H118   H     0.22180   0.25893   0.89582   0.00000  Uiso   1.00
H119   H     0.12906   0.04003   0.84072   0.00000  Uiso   1.00
H120   H     0.38230   0.91142   0.96120   0.00000  Uiso   1.00
H121   H     0.23626   0.43315   0.89668   0.00000  Uiso   1.00
H122   H     0.04069   0.97154   0.78049   0.00000  Uiso   1.00
H123   H     0.27371   0.12265   0.80288   0.00000  Uiso   1.00
H124   H     0.35239   0.03119   0.83938   0.00000  Uiso   1.00
H125   H     0.28314   0.27863   0.80879   0.00000  Uiso   1.00
H126   H     0.19039   0.05972   0.75369   0.00000  Uiso   1.00
H127   H     0.43208   0.92740   0.89056   0.00000  Uiso   1.00
H128   H     0.28604   0.44913   0.82604   0.00000  Uiso   1.00
H129   H     0.09047   0.98752   0.70985   0.00000  Uiso   1.00
O130   O     0.45790   0.85893   0.95138   0.00000  Uiso   1.00
O131   O     0.76630   0.04342   0.86673   0.00000  Uiso   1.00
O132   O     0.00972   0.93780   0.71430   0.00000  Uiso   1.00
N133   N     0.38321   0.92772   0.93956   0.00000  Uiso   1.00
N134   N     0.24669   0.41550   0.87924   0.00000  Uiso   1.00
N135   N     0.06384   0.98396   0.77061   0.00000  Uiso   1.00
N136   N     0.41000   0.93632   0.90155   0.00000  Uiso   1.00
N137   N     0.27347   0.42410   0.84123   0.00000  Uiso   1.00
N138   N     0.09062   0.99256   0.73260   0.00000  Uiso   1.00
C139   C     0.98411   0.37900   0.84070   0.00000  Uiso   1.00
C140   C     0.00999   0.44347   0.86872   0.00000  Uiso   1.00
C141   C     0.02621   0.43361   0.90383   0.00000  Uiso   1.00
C142   C     0.04903   0.49989   0.92525   0.00000  Uiso   1.00
C143   C     0.08822   0.58883   0.97076   0.00000  Uiso   1.00
C144   C     0.93349   0.41559   0.81347   0.00000  Uiso   1.00
C145   C     0.88540   0.38228   0.80212   0.00000  Uiso   1.00
C146   C     0.84383   0.42510   0.77703   0.00000  Uiso   1.00
C147   C     0.76426   0.47073   0.73675   0.00000  Uiso   1.00
C148   C     0.01683   0.37063   0.82320   0.00000  Uiso   1.00
C149   C     0.53881   0.79952   0.82002   0.00000  Uiso   1.00
C150   C     0.56739   0.80449   0.80311   0.00000  Uiso   1.00
C151   C     0.61723   0.78031   0.77794   0.00000  Uiso   1.00
C152   C     0.99577   0.51425   0.81631   0.00000  Uiso   1.00
C153   C     0.01632   0.51693   0.85547   0.00000  Uiso   1.00
C154   C     0.03912   0.58324   0.87684   0.00000  Uiso   1.00
C155   C     0.05538   0.57349   0.91198   0.00000  Uiso   1.00
C156   C     0.93983   0.48905   0.80022   0.00000  Uiso   1.00
C157   C     0.89831   0.53192   0.77513   0.00000  Uiso   1.00
C158   C     0.85017   0.49869   0.76376   0.00000  Uiso   1.00
C159   C     0.02317   0.44409   0.80995   0.00000  Uiso   1.00
C160   C     0.05172   0.44916   0.79304   0.00000  Uiso   1.00
C161   C     0.57374   0.87808   0.78984   0.00000  Uiso   1.00
H162   H     0.97917   0.32181   0.85101   0.00000  Uiso   1.00
H163   H     0.02130   0.37675   0.91407   0.00000  Uiso   1.00
H164   H     0.88051   0.32543   0.81238   0.00000  Uiso   1.00
H165   H     0.53390   0.74269   0.83028   0.00000  Uiso   1.00
H166   H     0.07078   0.47007   0.97813   0.00000  Uiso   1.00
H167   H     0.77393   0.36185   0.76370   0.00000  Uiso   1.00
H168   H     0.59737   0.68736   0.80145   0.00000  Uiso   1.00
H169   H     0.00070   0.57144   0.80599   0.00000  Uiso   1.00
H170   H     0.04402   0.64008   0.86658   0.00000  Uiso   1.00
H171   H     0.90323   0.58876   0.76489   0.00000  Uiso   1.00
H172   H     0.05661   0.50602   0.78279   0.00000  Uiso   1.00
H173   H     0.08922   0.68380   0.93959   0.00000  Uiso   1.00
H174   H     0.79236   0.57557   0.72516   0.00000  Uiso   1.00
H175   H     0.61581   0.90110   0.76290   0.00000  Uiso   1.00
O176   O     0.10809   0.61760   0.99953   0.00000  Uiso   1.00
O177   O     0.71863   0.47560   0.71820   0.00000  Uiso   1.00
O178   O     0.64298   0.74669   0.76772   0.00000  Uiso   1.00
N179   N     0.06919   0.51095   0.96075   0.00000  Uiso   1.00
N180   N     0.79164   0.40977   0.76027   0.00000  Uiso   1.00
N181   N     0.59403   0.74664   0.79555   0.00000  Uiso   1.00
N182   N     0.07911   0.62595   0.94001   0.00000  Uiso   1.00
N183   N     0.80156   0.52478   0.73953   0.00000  Uiso   1.00
N184   N     0.60395   0.86165   0.77481   0.00000  Uiso   1.00
C185   C     0.01755   0.86794   0.90800   0.00000  Uiso   1.00
C186   C     0.98661   0.81205   0.91817   0.00000  Uiso   1.00
C187   C     0.00416   0.77580   0.95040   0.00000  Uiso   1.00
C188   C     0.96995   0.72672   0.95453   0.00000  Uiso   1.00
C189   C     0.92952   0.64178   0.97445   0.00000  Uiso   1.00
C190   C     0.01600   0.82987   0.87604   0.00000  Uiso   1.00
C191   C     0.05826   0.80862   0.87284   0.00000  Uiso   1.00
C192   C     0.04878   0.77456   0.84149   0.00000  Uiso   1.00
C193   C     0.05398   0.71735   0.79598   0.00000  Uiso   1.00
C194   C     0.98702   0.94632   0.89553   0.00000  Uiso   1.00
C195   C     0.00492   0.02300   0.90872   0.00000  Uiso   1.00
C196   C     0.97105   0.08699   0.89378   0.00000  Uiso   1.00
C197   C     0.93126   0.21059   0.87854   0.00000  Uiso   1.00
C198   C     0.92560   0.84523   0.85801   0.00000  Uiso   1.00
C199   C     0.93667   0.79971   0.89102   0.00000  Uiso   1.00
C200   C     0.90243   0.75068   0.89509   0.00000  Uiso   1.00
C201   C     0.91992   0.71437   0.92732   0.00000  Uiso   1.00
C202   C     0.96606   0.81754   0.84888   0.00000  Uiso   1.00
C203   C     0.95652   0.78350   0.81753   0.00000  Uiso   1.00
C204   C     0.99875   0.76220   0.81428   0.00000  Uiso   1.00
C205   C     0.93708   0.93399   0.86838   0.00000  Uiso   1.00
C206   C     0.90318   0.99788   0.85341   0.00000  Uiso   1.00
C207   C     0.92102   0.07463   0.86657   0.00000  Uiso   1.00
H208   H     0.05643   0.87754   0.92914   0.00000  Uiso   1.00
H209   H     0.04282   0.78535   0.97141   0.00000  Uiso   1.00
H210   H     0.09690   0.81818   0.89386   0.00000  Uiso   1.00
H211   H     0.04357   0.03252   0.92974   0.00000  Uiso   1.00
H212   H     0.00570   0.67769   0.00630   0.00000  Uiso   1.00
H213   H     0.11974   0.74693   0.84277   0.00000  Uiso   1.00
H214   H     0.00728   0.19891   0.91842   0.00000  Uiso   1.00
H215   H     0.88671   0.83563   0.83686   0.00000  Uiso   1.00
H216   H     0.86378   0.74115   0.87407   0.00000  Uiso   1.00
H217   H     0.91787   0.77397   0.79652   0.00000  Uiso   1.00
H218   H     0.86454   0.98831   0.83239   0.00000  Uiso   1.00
H219   H     0.86039   0.64180   0.92729   0.00000  Uiso   1.00
H220   H     0.97443   0.71105   0.76376   0.00000  Uiso   1.00
H221   H     0.36197   0.66303   0.83941   0.00000  Uiso   1.00
O222   O     0.92102   0.59833   0.99293   0.00000  Uiso   1.00
O223   O     0.07064   0.68919   0.77838   0.00000  Uiso   1.00
O224   O     0.92310   0.28217   0.87764   0.00000  Uiso   1.00
N225   N     0.97464   0.68222   0.98260   0.00000  Uiso   1.00
N226   N     0.08126   0.74695   0.82971   0.00000  Uiso   1.00
N227   N     0.47613   0.66952   0.90043   0.00000  Uiso   1.00
N228   N     0.89645   0.66291   0.94009   0.00000  Uiso   1.00
N229   N     0.00307   0.72764   0.78720   0.00000  Uiso   1.00
N230   N     0.39794   0.65021   0.85792   0.00000  Uiso   1.00
C231   C     0.72889   0.60825   0.86649   0.00000  Uiso   1.00
C232   C     0.77796   0.56059   0.87733   0.00000  Uiso   1.00
C233   C     0.80430   0.51573   0.90763   0.00000  Uiso   1.00
C234   C     0.84842   0.47652   0.91280   0.00000  Uiso   1.00
C235   C     0.92202   0.40170   0.93334   0.00000  Uiso   1.00
C236   C     0.74034   0.69503   0.86071   0.00000  Uiso   1.00
C237   C     0.73505   0.76321   0.87703   0.00000  Uiso   1.00
C238   C     0.74749   0.83716   0.86820   0.00000  Uiso   1.00
C239   C     0.76266   0.97107   0.86293   0.00000  Uiso   1.00
C240   C     0.68996   0.57608   0.83078   0.00000  Uiso   1.00
C241   C     0.64229   0.54427   0.82192   0.00000  Uiso   1.00
C242   C     0.61230   0.51810   0.78789   0.00000  Uiso   1.00
C243   C     0.54923   0.46733   0.73613   0.00000  Uiso   1.00
C244   C     0.76039   0.61837   0.82178   0.00000  Uiso   1.00
C245   C     0.79507   0.56609   0.85305   0.00000  Uiso   1.00
C246   C     0.83916   0.52693   0.85817   0.00000  Uiso   1.00
C247   C     0.86556   0.48202   0.88847   0.00000  Uiso   1.00
C248   C     0.75745   0.70053   0.83643   0.00000  Uiso   1.00
C249   C     0.76990   0.77440   0.82758   0.00000  Uiso   1.00
C250   C     0.76463   0.84267   0.84388   0.00000  Uiso   1.00
C251   C     0.70706   0.58158   0.80650   0.00000  Uiso   1.00
C252   C     0.67714   0.55546   0.77247   0.00000  Uiso   1.00
C253   C     0.62944   0.52360   0.76356   0.00000  Uiso   1.00
H254   H     0.71557   0.60398   0.88539   0.00000  Uiso   1.00
H255   H     0.79105   0.51150   0.92642   0.00000  Uiso   1.00
H256   H     0.72180   0.75893   0.89582   0.00000  Uiso   1.00
H257   H     0.62906   0.54003   0.84072   0.00000  Uiso   1.00
H258   H     0.88230   0.41142   0.96120   0.00000  Uiso   1.00
H259   H     0.73626   0.93315   0.89668   0.00000  Uiso   1.00
H260   H     0.54069   0.47154   0.78049   0.00000  Uiso   1.00
H261   H     0.77371   0.62265   0.80288   0.00000  Uiso   1.00
H262   H     0.85239   0.53119   0.83938   0.00000  Uiso   1.00
H263   H     0.78314   0.77863   0.80879   0.00000  Uiso   1.00
H264   H     0.69039   0.55972   0.75369   0.00000  Uiso   1.00
H265   H     0.93208   0.42740   0.89056   0.00000  Uiso   1.00
H266   H     0.78604   0.94913   0.82604   0.00000  Uiso   1.00
H267   H     0.59047   0.48752   0.70985   0.00000  Uiso   1.00
O268   O     0.95790   0.35893   0.95138   0.00000  Uiso   1.00
O269   O     0.26630   0.54342   0.86673   0.00000  Uiso   1.00
O270   O     0.50972   0.43780   0.71430   0.00000  Uiso   1.00
N271   N     0.88321   0.42772   0.93956   0.00000  Uiso   1.00
N272   N     0.74669   0.91550   0.87924   0.00000  Uiso   1.00
N273   N     0.56384   0.48396   0.77061   0.00000  Uiso   1.00
N274   N     0.91000   0.43632   0.90155   0.00000  Uiso   1.00
N275   N     0.77347   0.92410   0.84123   0.00000  Uiso   1.00
N276   N     0.59062   0.49256   0.73260   0.00000  Uiso   1.00
C277   C     0.51589   0.87900   0.65930   0.00000  Uiso   1.00
C278   C     0.49001   0.94347   0.63128   0.00000  Uiso   1.00
C279   C     0.47379   0.93361   0.59617   0.00000  Uiso   1.00
C280   C     0.45097   0.99989   0.57475   0.00000  Uiso   1.00
C281   C     0.41178   0.08883   0.52924   0.00000  Uiso   1.00
C282   C     0.56651   0.91559   0.68653   0.00000  Uiso   1.00
C283   C     0.61460   0.88228   0.69788   0.00000  Uiso   1.00
C284   C     0.65617   0.92510   0.72297   0.00000  Uiso   1.00
C285   C     0.73574   0.97073   0.76325   0.00000  Uiso   1.00
C286   C     0.48317   0.87063   0.67680   0.00000  Uiso   1.00
C287   C     0.96119   0.29952   0.67998   0.00000  Uiso   1.00
C288   C     0.93261   0.30449   0.69689   0.00000  Uiso   1.00
C289   C     0.88277   0.28031   0.72206   0.00000  Uiso   1.00
C290   C     0.50423   0.01425   0.68369   0.00000  Uiso   1.00
C291   C     0.48368   0.01693   0.64453   0.00000  Uiso   1.00
C292   C     0.46088   0.08324   0.62316   0.00000  Uiso   1.00
C293   C     0.44462   0.07349   0.58802   0.00000  Uiso   1.00
C294   C     0.56017   0.98905   0.69978   0.00000  Uiso   1.00
C295   C     0.60169   0.03192   0.72487   0.00000  Uiso   1.00
C296   C     0.64983   0.99869   0.73624   0.00000  Uiso   1.00
C297   C     0.47683   0.94409   0.69005   0.00000  Uiso   1.00
C298   C     0.44828   0.94916   0.70696   0.00000  Uiso   1.00
C299   C     0.92626   0.37808   0.71016   0.00000  Uiso   1.00
H300   H     0.52083   0.82181   0.64899   0.00000  Uiso   1.00
H301   H     0.47870   0.87675   0.58593   0.00000  Uiso   1.00
H302   H     0.61949   0.82543   0.68762   0.00000  Uiso   1.00
H303   H     0.96610   0.24269   0.66972   0.00000  Uiso   1.00
H304   H     0.42922   0.97007   0.52187   0.00000  Uiso   1.00
H305   H     0.72607   0.86185   0.73630   0.00000  Uiso   1.00
H306   H     0.90263   0.18736   0.69855   0.00000  Uiso   1.00
H307   H     0.49930   0.07144   0.69401   0.00000  Uiso   1.00
H308   H     0.45598   0.14008   0.63342   0.00000  Uiso   1.00
H309   H     0.59677   0.08876   0.73511   0.00000  Uiso   1.00
H310   H     0.44339   0.00602   0.71721   0.00000  Uiso   1.00
H311   H     0.41078   0.18380   0.56041   0.00000  Uiso   1.00
H312   H     0.70764   0.07557   0.77484   0.00000  Uiso   1.00
H313   H     0.88419   0.40110   0.73710   0.00000  Uiso   1.00
O314   O     0.39191   0.11760   0.50047   0.00000  Uiso   1.00
O315   O     0.78137   0.97560   0.78180   0.00000  Uiso   1.00
O316   O     0.85702   0.24669   0.73228   0.00000  Uiso   1.00
N317   N     0.43081   0.01095   0.53925   0.00000  Uiso   1.00
N318   N     0.70836   0.90977   0.73973   0.00000  Uiso   1.00
N319   N     0.90597   0.24664   0.70445   0.00000  Uiso   1.00
N320   N     0.42089   0.12595   0.55999   0.00000  Uiso   1.00
N321   N     0.69844   0.02478   0.76047   0.00000  Uiso   1.00
N322   N     0.89605   0.36165   0.72519   0.00000  Uiso   1.00
C323   C     0.48245   0.36794   0.59200   0.00000  Uiso   1.00
C324   C     0.51339   0.31205   0.58183   0.00000  Uiso   1.00
C325   C     0.49584   0.27580   0.54960   0.00000  Uiso   1.00
C326   C     0.53005   0.22672   0.54547   0.00000  Uiso   1.00
C327   C     0.57048   0.14178   0.52555   0.00000  Uiso   1.00
C328   C     0.48400   0.32987   0.62396   0.00000  Uiso   1.00
C329   C     0.44174   0.30862   0.62716   0.00000  Uiso   1.00
C330   C     0.45122   0.27456   0.65851   0.00000  Uiso   1.00
C331   C     0.44602   0.21735   0.70402   0.00000  Uiso   1.00
C332   C     0.51298   0.44632   0.60447   0.00000  Uiso   1.00
C333   C     0.49508   0.52300   0.59128   0.00000  Uiso   1.00
C334   C     0.52895   0.58699   0.60622   0.00000  Uiso   1.00
C335   C     0.56874   0.71059   0.62146   0.00000  Uiso   1.00
C336   C     0.57440   0.34523   0.64199   0.00000  Uiso   1.00
C337   C     0.56333   0.29971   0.60898   0.00000  Uiso   1.00
C338   C     0.59757   0.25068   0.60491   0.00000  Uiso   1.00
C339   C     0.58008   0.21437   0.57268   0.00000  Uiso   1.00
C340   C     0.53394   0.31754   0.65112   0.00000  Uiso   1.00
C341   C     0.54348   0.28350   0.68247   0.00000  Uiso   1.00
C342   C     0.50125   0.26220   0.68572   0.00000  Uiso   1.00
C343   C     0.56292   0.43399   0.63162   0.00000  Uiso   1.00
C344   C     0.59682   0.49788   0.64659   0.00000  Uiso   1.00
C345   C     0.57898   0.57463   0.63343   0.00000  Uiso   1.00
H346   H     0.44357   0.37754   0.57086   0.00000  Uiso   1.00
H347   H     0.45718   0.28535   0.52859   0.00000  Uiso   1.00
H348   H     0.40310   0.31818   0.60614   0.00000  Uiso   1.00
H349   H     0.45643   0.53252   0.57026   0.00000  Uiso   1.00
H350   H     0.49430   0.17769   0.49370   0.00000  Uiso   1.00
H351   H     0.38026   0.24693   0.65723   0.00000  Uiso   1.00
H352   H     0.49272   0.69891   0.58158   0.00000  Uiso   1.00
H353   H     0.61329   0.33563   0.66314   0.00000  Uiso   1.00
H354   H     0.63622   0.24115   0.62593   0.00000  Uiso   1.00
H355   H     0.58213   0.27397   0.70348   0.00000  Uiso   1.00
H356   H     0.63546   0.48831   0.66761   0.00000  Uiso   1.00
H357   H     0.63961   0.14180   0.57271   0.00000  Uiso   1.00
H358   H     0.52557   0.21105   0.73624   0.00000  Uiso   1.00
H359   H     0.13803   0.16303   0.66059   0.00000  Uiso   1.00
O360   O     0.57898   0.09833   0.50707   0.00000  Uiso   1.00
O361   O     0.42936   0.18919   0.72162   0.00000  Uiso   1.00
O362   O     0.57690   0.78217   0.62236   0.00000  Uiso   1.00
N363   N     0.52536   0.18222   0.51740   0.00000  Uiso   1.00
N364   N     0.41874   0.24695   0.67029   0.00000  Uiso   1.00
N365   N     0.02387   0.16952   0.59957   0.00000  Uiso   1.00
N366   N     0.60355   0.16291   0.55991   0.00000  Uiso   1.00
N367   N     0.49693   0.22764   0.71280   0.00000  Uiso   1.00
N368   N     0.10206   0.15021   0.64208   0.00000  Uiso   1.00
C369   C     0.77111   0.10825   0.63351   0.00000  Uiso   1.00
C370   C     0.72204   0.06059   0.62267   0.00000  Uiso   1.00
C371   C     0.69570   0.01573   0.59237   0.00000  Uiso   1.00
C372   C     0.65158   0.97652   0.58720   0.00000  Uiso   1.00
C373   C     0.57798   0.90170   0.56666   0.00000  Uiso   1.00
C374   C     0.75966   0.19503   0.63929   0.00000  Uiso   1.00
C375   C     0.76495   0.26321   0.62297   0.00000  Uiso   1.00
C376   C     0.75251   0.33716   0.63180   0.00000  Uiso   1.00
C377   C     0.73734   0.47107   0.63707   0.00000  Uiso   1.00
C378   C     0.81004   0.07608   0.66922   0.00000  Uiso   1.00
C379   C     0.85771   0.04427   0.67808   0.00000  Uiso   1.00
C380   C     0.88770   0.01810   0.71211   0.00000  Uiso   1.00
C381   C     0.95077   0.96733   0.76387   0.00000  Uiso   1.00
C382   C     0.73961   0.11837   0.67822   0.00000  Uiso   1.00
C383   C     0.70493   0.06609   0.64695   0.00000  Uiso   1.00
C384   C     0.66084   0.02693   0.64183   0.00000  Uiso   1.00
C385   C     0.63444   0.98202   0.61153   0.00000  Uiso   1.00
C386   C     0.74255   0.20053   0.66357   0.00000  Uiso   1.00
C387   C     0.73010   0.27440   0.67242   0.00000  Uiso   1.00
C388   C     0.73537   0.34267   0.65612   0.00000  Uiso   1.00
C389   C     0.79294   0.08158   0.69350   0.00000  Uiso   1.00
C390   C     0.82286   0.05546   0.72753   0.00000  Uiso   1.00
C391   C     0.87056   0.02360   0.73644   0.00000  Uiso   1.00
H392   H     0.78443   0.10398   0.61461   0.00000  Uiso   1.00
H393   H     0.70895   0.01150   0.57358   0.00000  Uiso   1.00
H394   H     0.77820   0.25893   0.60418   0.00000  Uiso   1.00
H395   H     0.87094   0.04003   0.65928   0.00000  Uiso   1.00
H396   H     0.61770   0.91142   0.53880   0.00000  Uiso   1.00
H397   H     0.76374   0.43315   0.60332   0.00000  Uiso   1.00
H398   H     0.95931   0.97154   0.71951   0.00000  Uiso   1.00
H399   H     0.72629   0.12265   0.69712   0.00000  Uiso   1.00
H400   H     0.64761   0.03119   0.66062   0.00000  Uiso   1.00
H401   H     0.71686   0.27863   0.69121   0.00000  Uiso   1.00
H402   H     0.80961   0.05972   0.74631   0.00000  Uiso   1.00
H403   H     0.56792   0.92740   0.60944   0.00000  Uiso   1.00
H404   H     0.71396   0.44913   0.67396   0.00000  Uiso   1.00
H405   H     0.90953   0.98752   0.79015   0.00000  Uiso   1.00
O406   O     0.54210   0.85893   0.54862   0.00000  Uiso   1.00
O407   O     0.23370   0.04342   0.63327   0.00000  Uiso   1.00
O408   O     0.99028   0.93780   0.78570   0.00000  Uiso   1.00
N409   N     0.61679   0.92772   0.56044   0.00000  Uiso   1.00
N410   N     0.75331   0.41550   0.62076   0.00000  Uiso   1.00
N411   N     0.93616   0.98396   0.72939   0.00000  Uiso   1.00
N412   N     0.59000   0.93632   0.59845   0.00000  Uiso   1.00
N413   N     0.72653   0.42410   0.65877   0.00000  Uiso   1.00
N414   N     0.90938   0.99256   0.76740   0.00000  Uiso   1.00
C415   C     0.01589   0.37900   0.65930   0.00000  Uiso   1.00
C416   C     0.99001   0.44347   0.63128   0.00000  Uiso   1.00
C417   C     0.97379   0.43361   0.59617   0.00000  Uiso   1.00
C418   C     0.95097   0.49989   0.57475   0.00000  Uiso   1.00
C419   C     0.91178   0.58883   0.52924   0.00000  Uiso   1.00
C420   C     0.06651   0.41559   0.68653   0.00000  Uiso   1.00
C421   C     0.11460   0.38228   0.69788   0.00000  Uiso   1.00
C422   C     0.15617   0.42510   0.72297   0.00000  Uiso   1.00
C423   C     0.23574   0.47073   0.76325   0.00000  Uiso   1.00
C424   C     0.98317   0.37063   0.67680   0.00000  Uiso   1.00
C425   C     0.46119   0.79952   0.67998   0.00000  Uiso   1.00
C426   C     0.43261   0.80449   0.69689   0.00000  Uiso   1.00
C427   C     0.38277   0.78031   0.72206   0.00000  Uiso   1.00
C428   C     0.00423   0.51425   0.68369   0.00000  Uiso   1.00
C429   C     0.98368   0.51693   0.64453   0.00000  Uiso   1.00
C430   C     0.96088   0.58324   0.62316   0.00000  Uiso   1.00
C431   C     0.94462   0.57349   0.58802   0.00000  Uiso   1.00
C432   C     0.06017   0.48905   0.69978   0.00000  Uiso   1.00
C433   C     0.10169   0.53192   0.72487   0.00000  Uiso   1.00
C434   C     0.14983   0.49869   0.73624   0.00000  Uiso   1.00
C435   C     0.97683   0.44409   0.69005   0.00000  Uiso   1.00
C436   C     0.94828   0.44916   0.70696   0.00000  Uiso   1.00
C437   C     0.42626   0.87808   0.71016   0.00000  Uiso   1.00
H438   H     0.02083   0.32181   0.64899   0.00000  Uiso   1.00
H439   H     0.97870   0.37675   0.58593   0.00000  Uiso   1.00
H440   H     0.11949   0.32543   0.68762   0.00000  Uiso   1.00
H441   H     0.46610   0.74269   0.66972   0.00000  Uiso   1.00
H442   H     0.92922   0.47007   0.52187   0.00000  Uiso   1.00
H443   H     0.22607   0.36185   0.73630   0.00000  Uiso   1.00
H444   H     0.40263   0.68736   0.69855   0.00000  Uiso   1.00
H445   H     0.99930   0.57144   0.69401   0.00000  Uiso   1.00
H446   H     0.95598   0.64008   0.63342   0.00000  Uiso   1.00
H447   H     0.09677   0.58876   0.73511   0.00000  Uiso   1.00
H448   H     0.94339   0.50602   0.71721   0.00000  Uiso   1.00
H449   H     0.91078   0.68380   0.56041   0.00000  Uiso   1.00
H450   H     0.20764   0.57557   0.77484   0.00000  Uiso   1.00
H451   H     0.38419   0.90110   0.73710   0.00000  Uiso   1.00
O452   O     0.89191   0.61760   0.50047   0.00000  Uiso   1.00
O453   O     0.28137   0.47560   0.78180   0.00000  Uiso   1.00
O454   O     0.35702   0.74669   0.73228   0.00000  Uiso   1.00
N455   N     0.93081   0.51095   0.53925   0.00000  Uiso   1.00
N456   N     0.20836   0.40977   0.73973   0.00000  Uiso   1.00
N457   N     0.40597   0.74664   0.70445   0.00000  Uiso   1.00
N458   N     0.92089   0.62595   0.55999   0.00000  Uiso   1.00
N459   N     0.19844   0.52478   0.76047   0.00000  Uiso   1.00
N460   N     0.39605   0.86165   0.72519   0.00000  Uiso   1.00
C461   C     0.98245   0.86794   0.59200   0.00000  Uiso   1.00
C462   C     0.01339   0.81205   0.58183   0.00000  Uiso   1.00
C463   C     0.99584   0.77580   0.54960   0.00000  Uiso   1.00
C464   C     0.03005   0.72672   0.54547   0.00000  Uiso   1.00
C465   C     0.07048   0.64178   0.52555   0.00000  Uiso   1.00
C466   C     0.98400   0.82987   0.62396   0.00000  Uiso   1.00
C467   C     0.94174   0.80862   0.62716   0.00000  Uiso   1.00
C468   C     0.95122   0.77456   0.65851   0.00000  Uiso   1.00
C469   C     0.94602   0.71735   0.70402   0.00000  Uiso   1.00
C470   C     0.01298   0.94632   0.60447   0.00000  Uiso   1.00
C471   C     0.99508   0.02300   0.59128   0.00000  Uiso   1.00
C472   C     0.02895   0.08699   0.60622   0.00000  Uiso   1.00
C473   C     0.06874   0.21059   0.62146   0.00000  Uiso   1.00
C474   C     0.07440   0.84523   0.64199   0.00000  Uiso   1.00
C475   C     0.06333   0.79971   0.60898   0.00000  Uiso   1.00
C476   C     0.09757   0.75068   0.60491   0.00000  Uiso   1.00
C477   C     0.08008   0.71437   0.57268   0.00000  Uiso   1.00
C478   C     0.03394   0.81754   0.65112   0.00000  Uiso   1.00
C479   C     0.04348   0.78350   0.68247   0.00000  Uiso   1.00
C480   C     0.00125   0.76220   0.68572   0.00000  Uiso   1.00
C481   C     0.06292   0.93399   0.63162   0.00000  Uiso   1.00
C482   C     0.09682   0.99788   0.64659   0.00000  Uiso   1.00
C483   C     0.07898   0.07463   0.63343   0.00000  Uiso   1.00
H484   H     0.94357   0.87754   0.57086   0.00000  Uiso   1.00
H485   H     0.95718   0.78535   0.52859   0.00000  Uiso   1.00
H486   H     0.90310   0.81818   0.60614   0.00000  Uiso   1.00
H487   H     0.95643   0.03252   0.57026   0.00000  Uiso   1.00
H488   H     0.99430   0.67769   0.49370   0.00000  Uiso   1.00
H489   H     0.88026   0.74693   0.65723   0.00000  Uiso   1.00
H490   H     0.99272   0.19891   0.58158   0.00000  Uiso   1.00
H491   H     0.11329   0.83563   0.66314   0.00000  Uiso   1.00
H492   H     0.13622   0.74115   0.62593   0.00000  Uiso   1.00
H493   H     0.08213   0.77397   0.70348   0.00000  Uiso   1.00
H494   H     0.13546   0.98831   0.66761   0.00000  Uiso   1.00
H495   H     0.13961   0.64180   0.57271   0.00000  Uiso   1.00
H496   H     0.02557   0.71105   0.73624   0.00000  Uiso   1.00
H497   H     0.63803   0.66303   0.66059   0.00000  Uiso   1.00
O498   O     0.07898   0.59833   0.50707   0.00000  Uiso   1.00
O499   O     0.92936   0.68919   0.72162   0.00000  Uiso   1.00
O500   O     0.07690   0.28217   0.62236   0.00000  Uiso   1.00
N501   N     0.02536   0.68222   0.51740   0.00000  Uiso   1.00
N502   N     0.91874   0.74695   0.67029   0.00000  Uiso   1.00
N503   N     0.52387   0.66952   0.59957   0.00000  Uiso   1.00
N504   N     0.10355   0.66291   0.55991   0.00000  Uiso   1.00
N505   N     0.99693   0.72764   0.71280   0.00000  Uiso   1.00
N506   N     0.60206   0.65021   0.64208   0.00000  Uiso   1.00
C507   C     0.27111   0.60825   0.63351   0.00000  Uiso   1.00
C508   C     0.22204   0.56059   0.62267   0.00000  Uiso   1.00
C509   C     0.19570   0.51573   0.59237   0.00000  Uiso   1.00
C510   C     0.15158   0.47652   0.58720   0.00000  Uiso   1.00
C511   C     0.07798   0.40170   0.56666   0.00000  Uiso   1.00
C512   C     0.25966   0.69503   0.63929   0.00000  Uiso   1.00
C513   C     0.26495   0.76321   0.62297   0.00000  Uiso   1.00
C514   C     0.25251   0.83716   0.63180   0.00000  Uiso   1.00
C515   C     0.23734   0.97107   0.63707   0.00000  Uiso   1.00
C516   C     0.31004   0.57608   0.66922   0.00000  Uiso   1.00
C517   C     0.35771   0.54427   0.67808   0.00000  Uiso   1.00
C518   C     0.38770   0.51810   0.71211   0.00000  Uiso   1.00
C519   C     0.45077   0.46733   0.76387   0.00000  Uiso   1.00
C520   C     0.23961   0.61837   0.67822   0.00000  Uiso   1.00
C521   C     0.20493   0.56609   0.64695   0.00000  Uiso   1.00
C522   C     0.16084   0.52693   0.64183   0.00000  Uiso   1.00
C523   C     0.13444   0.48202   0.61153   0.00000  Uiso   1.00
C524   C     0.24255   0.70053   0.66357   0.00000  Uiso   1.00
C525   C     0.23010   0.77440   0.67242   0.00000  Uiso   1.00
C526   C     0.23537   0.84267   0.65612   0.00000  Uiso   1.00
C527   C     0.29294   0.58158   0.69350   0.00000  Uiso   1.00
C528   C     0.32286   0.55546   0.72753   0.00000  Uiso   1.00
C529   C     0.37056   0.52360   0.73644   0.00000  Uiso   1.00
H530   H     0.28443   0.60398   0.61461   0.00000  Uiso   1.00
H531   H     0.20895   0.51150   0.57358   0.00000  Uiso   1.00
H532   H     0.27820   0.75893   0.60418   0.00000  Uiso   1.00
H533   H     0.37094   0.54003   0.65928   0.00000  Uiso   1.00
H534   H     0.11770   0.41142   0.53880   0.00000  Uiso   1.00
H535   H     0.26374   0.93315   0.60332   0.00000  Uiso   1.00
H536   H     0.45931   0.47154   0.71951   0.00000  Uiso   1.00
H537   H     0.22629   0.62265   0.69712   0.00000  Uiso   1.00
H538   H     0.14761   0.53119   0.66062   0.00000  Uiso   1.00
H539   H     0.21686   0.77863   0.69121   0.00000  Uiso   1.00
H540   H     0.30961   0.55972   0.74631   0.00000  Uiso   1.00
H541   H     0.06792   0.42740   0.60944   0.00000  Uiso   1.00
H542   H     0.21396   0.94913   0.67396   0.00000  Uiso   1.00
H543   H     0.40953   0.48752   0.79015   0.00000  Uiso   1.00
O544   O     0.04210   0.35893   0.54862   0.00000  Uiso   1.00
O545   O     0.73370   0.54342   0.63327   0.00000  Uiso   1.00
O546   O     0.49028   0.43780   0.78570   0.00000  Uiso   1.00
N547   N     0.11679   0.42772   0.56044   0.00000  Uiso   1.00
N548   N     0.25331   0.91550   0.62076   0.00000  Uiso   1.00
N549   N     0.43616   0.48396   0.72939   0.00000  Uiso   1.00
N550   N     0.09000   0.43632   0.59845   0.00000  Uiso   1.00
N551   N     0.22653   0.92410   0.65877   0.00000  Uiso   1.00
N552   N     0.40938   0.49256   0.76740   0.00000  Uiso   1.00
C553   C     0.51589   0.12100   0.15930   0.00000  Uiso   1.00
C554   C     0.49001   0.05653   0.13128   0.00000  Uiso   1.00
C555   C     0.47379   0.06639   0.09617   0.00000  Uiso   1.00
C556   C     0.45097   0.00011   0.07475   0.00000  Uiso   1.00
C557   C     0.41178   0.91117   0.02924   0.00000  Uiso   1.00
C558   C     0.56651   0.08441   0.18653   0.00000  Uiso   1.00
C559   C     0.61460   0.11772   0.19788   0.00000  Uiso   1.00
C560   C     0.65617   0.07490   0.22297   0.00000  Uiso   1.00
C561   C     0.73574   0.02927   0.26325   0.00000  Uiso   1.00
C562   C     0.48317   0.12937   0.17680   0.00000  Uiso   1.00
C563   C     0.96119   0.70048   0.17998   0.00000  Uiso   1.00
C564   C     0.93261   0.69551   0.19689   0.00000  Uiso   1.00
C565   C     0.88277   0.71969   0.22206   0.00000  Uiso   1.00
C566   C     0.50423   0.98575   0.18369   0.00000  Uiso   1.00
C567   C     0.48368   0.98307   0.14453   0.00000  Uiso   1.00
C568   C     0.46088   0.91676   0.12316   0.00000  Uiso   1.00
C569   C     0.44462   0.92651   0.08802   0.00000  Uiso   1.00
C570   C     0.56017   0.01095   0.19978   0.00000  Uiso   1.00
C571   C     0.60169   0.96808   0.22487   0.00000  Uiso   1.00
C572   C     0.64983   0.00131   0.23624   0.00000  Uiso   1.00
C573   C     0.47683   0.05591   0.19005   0.00000  Uiso   1.00
C574   C     0.44828   0.05084   0.20696   0.00000  Uiso   1.00
C575   C     0.92626   0.62192   0.21016   0.00000  Uiso   1.00
H576   H     0.52083   0.17819   0.14899   0.00000  Uiso   1.00
H577   H     0.47870   0.12325   0.08593   0.00000  Uiso   1.00
H578   H     0.61949   0.17457   0.18762   0.00000  Uiso   1.00
H579   H     0.96610   0.75731   0.16972   0.00000  Uiso   1.00
H580   H     0.42922   0.02993   0.02187   0.00000  Uiso   1.00
H581   H     0.72607   0.13815   0.23630   0.00000  Uiso   1.00
H582   H     0.90263   0.81264   0.19855   0.00000  Uiso   1.00
H583   H     0.49930   0.92856   0.19401   0.00000  Uiso   1.00
H584   H     0.45598   0.85992   0.13342   0.00000  Uiso   1.00
H585   H     0.59677   0.91124   0.23511   0.00000  Uiso   1.00
H586   H     0.44339   0.99398   0.21721   0.00000  Uiso   1.00
H587   H     0.41078   0.81620   0.06041   0.00000  Uiso   1.00
H588   H     0.70764   0.92443   0.27484   0.00000  Uiso   1.00
H589   H     0.88419   0.59890   0.23710   0.00000  Uiso   1.00
O590   O     0.39191   0.88240   0.00047   0.00000  Uiso   1.00
O591   O     0.78137   0.02440   0.28180   0.00000  Uiso   1.00
O592   O     0.85702   0.75331   0.23228   0.00000  Uiso   1.00
N593   N     0.43081   0.98905   0.03925   0.00000  Uiso   1.00
N594   N     0.70836   0.09023   0.23973   0.00000  Uiso   1.00
N595   N     0.90597   0.75336   0.20445   0.00000  Uiso   1.00
N596   N     0.42089   0.87405   0.05999   0.00000  Uiso   1.00
N597   N     0.69844   0.97522   0.26047   0.00000  Uiso   1.00
N598   N     0.89605   0.63835   0.22519   0.00000  Uiso   1.00
C599   C     0.48245   0.63206   0.09200   0.00000  Uiso   1.00
C600   C     0.51339   0.68795   0.08183   0.00000  Uiso   1.00
C601   C     0.49584   0.72420   0.04960   0.00000  Uiso   1.00
C602   C     0.53005   0.77328   0.04547   0.00000  Uiso   1.00
C603   C     0.57048   0.85822   0.02555   0.00000  Uiso   1.00
C604   C     0.48400   0.67013   0.12396   0.00000  Uiso   1.00
C605   C     0.44174   0.69138   0.12716   0.00000  Uiso   1.00
C606   C     0.45122   0.72544   0.15851   0.00000  Uiso   1.00
C607   C     0.44602   0.78265   0.20402   0.00000  Uiso   1.00
C608   C     0.51298   0.55368   0.10447   0.00000  Uiso   1.00
C609   C     0.49508   0.47700   0.09128   0.00000  Uiso   1.00
C610   C     0.52895   0.41301   0.10622   0.00000  Uiso   1.00
C611   C     0.56874   0.28941   0.12146   0.00000  Uiso   1.00
C612   C     0.57440   0.65477   0.14199   0.00000  Uiso   1.00
C613   C     0.56333   0.70029   0.10898   0.00000  Uiso   1.00
C614   C     0.59757   0.74932   0.10491   0.00000  Uiso   1.00
C615   C     0.58008   0.78563   0.07268   0.00000  Uiso   1.00
C616   C     0.53394   0.68246   0.15112   0.00000  Uiso   1.00
C617   C     0.54348   0.71650   0.18247   0.00000  Uiso   1.00
C618   C     0.50125   0.73780   0.18572   0.00000  Uiso   1.00
C619   C     0.56292   0.56601   0.13162   0.00000  Uiso   1.00
C620   C     0.59682   0.50212   0.14659   0.00000  Uiso   1.00
C621   C     0.57898   0.42537   0.13343   0.00000  Uiso   1.00
H622   H     0.44357   0.62246   0.07086   0.00000  Uiso   1.00
H623   H     0.45718   0.71465   0.02859   0.00000  Uiso   1.00
H624   H     0.40310   0.68182   0.10614   0.00000  Uiso   1.00
H625   H     0.45643   0.46748   0.07026   0.00000  Uiso   1.00
H626   H     0.49430   0.82231   0.99370   0.00000  Uiso   1.00
H627   H     0.38026   0.75307   0.15723   0.00000  Uiso   1.00
H628   H     0.49272   0.30109   0.08158   0.00000  Uiso   1.00
H629   H     0.61329   0.66437   0.16314   0.00000  Uiso   1.00
H630   H     0.63622   0.75885   0.12593   0.00000  Uiso   1.00
H631   H     0.58213   0.72603   0.20348   0.00000  Uiso   1.00
H632   H     0.63546   0.51169   0.16761   0.00000  Uiso   1.00
H633   H     0.63961   0.85820   0.07271   0.00000  Uiso   1.00
H634   H     0.52557   0.78895   0.23624   0.00000  Uiso   1.00
H635   H     0.13803   0.83697   0.16059   0.00000  Uiso   1.00
O636   O     0.57898   0.90167   0.00707   0.00000  Uiso   1.00
O637   O     0.42936   0.81081   0.22162   0.00000  Uiso   1.00
O638   O     0.57690   0.21783   0.12236   0.00000  Uiso   1.00
N639   N     0.52536   0.81778   0.01740   0.00000  Uiso   1.00
N640   N     0.41874   0.75305   0.17029   0.00000  Uiso   1.00
N641   N     0.02387   0.83048   0.09957   0.00000  Uiso   1.00
N642   N     0.60355   0.83709   0.05991   0.00000  Uiso   1.00
N643   N     0.49693   0.77236   0.21280   0.00000  Uiso   1.00
N644   N     0.10206   0.84979   0.14208   0.00000  Uiso   1.00
C645   C     0.77111   0.89175   0.13351   0.00000  Uiso   1.00
C646   C     0.72204   0.93941   0.12267   0.00000  Uiso   1.00
C647   C     0.69570   0.98427   0.09237   0.00000  Uiso   1.00
C648   C     0.65158   0.02348   0.08720   0.00000  Uiso   1.00
C649   C     0.57798   0.09830   0.06666   0.00000  Uiso   1.00
C650   C     0.75966   0.80497   0.13929   0.00000  Uiso   1.00
C651   C     0.76495   0.73679   0.12297   0.00000  Uiso   1.00
C652   C     0.75251   0.66284   0.13180   0.00000  Uiso   1.00
C653   C     0.73734   0.52893   0.13707   0.00000  Uiso   1.00
C654   C     0.81004   0.92392   0.16922   0.00000  Uiso   1.00
C655   C     0.85771   0.95573   0.17808   0.00000  Uiso   1.00
C656   C     0.88770   0.98190   0.21211   0.00000  Uiso   1.00
C657   C     0.95077   0.03267   0.26387   0.00000  Uiso   1.00
C658   C     0.73961   0.88163   0.17822   0.00000  Uiso   1.00
C659   C     0.70493   0.93391   0.14695   0.00000  Uiso   1.00
C660   C     0.66084   0.97307   0.14183   0.00000  Uiso   1.00
C661   C     0.63444   0.01798   0.11153   0.00000  Uiso   1.00
C662   C     0.74255   0.79947   0.16357   0.00000  Uiso   1.00
C663   C     0.73010   0.72560   0.17242   0.00000  Uiso   1.00
C664   C     0.73537   0.65733   0.15612   0.00000  Uiso   1.00
C665   C     0.79294   0.91842   0.19350   0.00000  Uiso   1.00
C666   C     0.82286   0.94454   0.22753   0.00000  Uiso   1.00
C667   C     0.87056   0.97640   0.23644   0.00000  Uiso   1.00
H668   H     0.78443   0.89602   0.11461   0.00000  Uiso   1.00
H669   H     0.70895   0.98850   0.07358   0.00000  Uiso   1.00
H670   H     0.77820   0.74107   0.10418   0.00000  Uiso   1.00
H671   H     0.87094   0.95997   0.15928   0.00000  Uiso   1.00
H672   H     0.61770   0.08858   0.03880   0.00000  Uiso   1.00
H673   H     0.76374   0.56685   0.10332   0.00000  Uiso   1.00
H674   H     0.95931   0.02846   0.21951   0.00000  Uiso   1.00
H675   H     0.72629   0.87735   0.19712   0.00000  Uiso   1.00
H676   H     0.64761   0.96881   0.16062   0.00000  Uiso   1.00
H677   H     0.71686   0.72137   0.19121   0.00000  Uiso   1.00
H678   H     0.80961   0.94028   0.24631   0.00000  Uiso   1.00
H679   H     0.56792   0.07260   0.10944   0.00000  Uiso   1.00
H680   H     0.71396   0.55087   0.17396   0.00000  Uiso   1.00
H681   H     0.90953   0.01248   0.29015   0.00000  Uiso   1.00
O682   O     0.54210   0.14107   0.04862   0.00000  Uiso   1.00
O683   O     0.23370   0.95658   0.13327   0.00000  Uiso   1.00
O684   O     0.99028   0.06220   0.28570   0.00000  Uiso   1.00
N685   N     0.61679   0.07228   0.06044   0.00000  Uiso   1.00
N686   N     0.75331   0.58450   0.12076   0.00000  Uiso   1.00
N687   N     0.93616   0.01604   0.22939   0.00000  Uiso   1.00
N688   N     0.59000   0.06368   0.09845   0.00000  Uiso   1.00
N689   N     0.72653   0.57590   0.15877   0.00000  Uiso   1.00
N690   N     0.90938   0.00744   0.26740   0.00000  Uiso   1.00
C691   C     0.01589   0.62100   0.15930   0.00000  Uiso   1.00
C692   C     0.99001   0.55653   0.13128   0.00000  Uiso   1.00
C693   C     0.97379   0.56639   0.09617   0.00000  Uiso   1.00
C694   C     0.95097   0.50011   0.07475   0.00000  Uiso   1.00
C695   C     0.91178   0.41117   0.02924   0.00000  Uiso   1.00
C696   C     0.06651   0.58441   0.18653   0.00000  Uiso   1.00
C697   C     0.11460   0.61772   0.19788   0.00000  Uiso   1.00
C698   C     0.15617   0.57490   0.22297   0.00000  Uiso   1.00
C699   C     0.23574   0.52927   0.26325   0.00000  Uiso   1.00
C700   C     0.98317   0.62937   0.17680   0.00000  Uiso   1.00
C701   C     0.46119   0.20048   0.17998   0.00000  Uiso   1.00
C702   C     0.43261   0.19551   0.19689   0.00000  Uiso   1.00
C703   C     0.38277   0.21969   0.22206   0.00000  Uiso   1.00
C704   C     0.00423   0.48575   0.18369   0.00000  Uiso   1.00
C705   C     0.98368   0.48307   0.14453   0.00000  Uiso   1.00
C706   C     0.96088   0.41676   0.12316   0.00000  Uiso   1.00
C707   C     0.94462   0.42651   0.08802   0.00000  Uiso   1.00
C708   C     0.06017   0.51095   0.19978   0.00000  Uiso   1.00
C709   C     0.10169   0.46808   0.22487   0.00000  Uiso   1.00
C710   C     0.14983   0.50131   0.23624   0.00000  Uiso   1.00
C711   C     0.97683   0.55591   0.19005   0.00000  Uiso   1.00
C712   C     0.94828   0.55084   0.20696   0.00000  Uiso   1.00
C713   C     0.42626   0.12192   0.21016   0.00000  Uiso   1.00
H714   H     0.02083   0.67819   0.14899   0.00000  Uiso   1.00
H715   H     0.97870   0.62325   0.08593   0.00000  Uiso   1.00
H716   H     0.11949   0.67457   0.18762   0.00000  Uiso   1.00
H717   H     0.46610   0.25731   0.16972   0.00000  Uiso   1.00
H718   H     0.92922   0.52993   0.02187   0.00000  Uiso   1.00
H719   H     0.22607   0.63815   0.23630   0.00000  Uiso   1.00
H720   H     0.40263   0.31264   0.19855   0.00000  Uiso   1.00
H721   H     0.99930   0.42856   0.19401   0.00000  Uiso   1.00
H722   H     0.95598   0.35992   0.13342   0.00000  Uiso   1.00
H723   H     0.09677   0.41124   0.23511   0.00000  Uiso   1.00
H724   H     0.94339   0.49398   0.21721   0.00000  Uiso   1.00
H725   H     0.91078   0.31620   0.06041   0.00000  Uiso   1.00
H726   H     0.20764   0.42443   0.27484   0.00000  Uiso   1.00
H727   H     0.38419   0.09890   0.23710   0.00000  Uiso   1.00
O728   O     0.89191   0.38240   0.00047   0.00000  Uiso   1.00
O729   O     0.28137   0.52440   0.28180   0.00000  Uiso   1.00
O730   O     0.35702   0.25331   0.23228   0.00000  Uiso   1.00
N731   N     0.93081   0.48905   0.03925   0.00000  Uiso   1.00
N732   N     0.20836   0.59023   0.23973   0.00000  Uiso   1.00
N733   N     0.40597   0.25336   0.20445   0.00000  Uiso   1.00
N734   N     0.92089   0.37405   0.05999   0.00000  Uiso   1.00
N735   N     0.19844   0.47522   0.26047   0.00000  Uiso   1.00
N736   N     0.39605   0.13835   0.22519   0.00000  Uiso   1.00
C737   C     0.98245   0.13206   0.09200   0.00000  Uiso   1.00
C738   C     0.01339   0.18795   0.08183   0.00000  Uiso   1.00
C739   C     0.99584   0.22420   0.04960   0.00000  Uiso   1.00
C740   C     0.03005   0.27328   0.04547   0.00000  Uiso   1.00
C741   C     0.07048   0.35822   0.02555   0.00000  Uiso   1.00
C742   C     0.98400   0.17013   0.12396   0.00000  Uiso   1.00
C743   C     0.94174   0.19138   0.12716   0.00000  Uiso   1.00
C744   C     0.95122   0.22544   0.15851   0.00000  Uiso   1.00
C745   C     0.94602   0.28265   0.20402   0.00000  Uiso   1.00
C746   C     0.01298   0.05368   0.10447   0.00000  Uiso   1.00
C747   C     0.99508   0.97700   0.09128   0.00000  Uiso   1.00
C748   C     0.02895   0.91301   0.10622   0.00000  Uiso   1.00
C749   C     0.06874   0.78941   0.12146   0.00000  Uiso   1.00
C750   C     0.07440   0.15477   0.14199   0.00000  Uiso   1.00
C751   C     0.06333   0.20029   0.10898   0.00000  Uiso   1.00
C752   C     0.09757   0.24932   0.10491   0.00000  Uiso   1.00
C753   C     0.08008   0.28563   0.07268   0.00000  Uiso   1.00
C754   C     0.03394   0.18246   0.15112   0.00000  Uiso   1.00
C755   C     0.04348   0.21650   0.18247   0.00000  Uiso   1.00
C756   C     0.00125   0.23780   0.18572   0.00000  Uiso   1.00
C757   C     0.06292   0.06601   0.13162   0.00000  Uiso   1.00
C758   C     0.09682   0.00212   0.14659   0.00000  Uiso   1.00
C759   C     0.07898   0.92537   0.13343   0.00000  Uiso   1.00
H760   H     0.94357   0.12246   0.07086   0.00000  Uiso   1.00
H761   H     0.95718   0.21465   0.02859   0.00000  Uiso   1.00
H762   H     0.90310   0.18182   0.10614   0.00000  Uiso   1.00
H763   H     0.95643   0.96748   0.07026   0.00000  Uiso   1.00
H764   H     0.99430   0.32231   0.99370   0.00000  Uiso   1.00
H765   H     0.88026   0.25307   0.15723   0.00000  Uiso   1.00
H766   H     0.99272   0.80109   0.08158   0.00000  Uiso   1.00
H767   H     0.11329   0.16437   0.16314   0.00000  Uiso   1.00
H768   H     0.13622   0.25885   0.12593   0.00000  Uiso   1.00
H769   H     0.08213   0.22603   0.20348   0.00000  Uiso   1.00
H770   H     0.13546   0.01169   0.16761   0.00000  Uiso   1.00
H771   H     0.13961   0.35820   0.07271   0.00000  Uiso   1.00
H772   H     0.02557   0.28895   0.23624   0.00000  Uiso   1.00
H773   H     0.63803   0.33697   0.16059   0.00000  Uiso   1.00
O774   O     0.07898   0.40167   0.00707   0.00000  Uiso   1.00
O775   O     0.92936   0.31081   0.22162   0.00000  Uiso   1.00
O776   O     0.07690   0.71783   0.12236   0.00000  Uiso   1.00
N777   N     0.02536   0.31778   0.01740   0.00000  Uiso   1.00
N778   N     0.91874   0.25305   0.17029   0.00000  Uiso   1.00
N779   N     0.52387   0.33048   0.09957   0.00000  Uiso   1.00
N780   N     0.10355   0.33709   0.05991   0.00000  Uiso   1.00
N781   N     0.99693   0.27236   0.21280   0.00000  Uiso   1.00
N782   N     0.60206   0.34979   0.14208   0.00000  Uiso   1.00
C783   C     0.27111   0.39175   0.13351   0.00000  Uiso   1.00
C784   C     0.22204   0.43941   0.12267   0.00000  Uiso   1.00
C785   C     0.19570   0.48427   0.09237   0.00000  Uiso   1.00
C786   C     0.15158   0.52348   0.08720   0.00000  Uiso   1.00
C787   C     0.07798   0.59830   0.06666   0.00000  Uiso   1.00
C788   C     0.25966   0.30497   0.13929   0.00000  Uiso   1.00
C789   C     0.26495   0.23679   0.12297   0.00000  Uiso   1.00
C790   C     0.25251   0.16284   0.13180   0.00000  Uiso   1.00
C791   C     0.23734   0.02893   0.13707   0.00000  Uiso   1.00
C792   C     0.31004   0.42392   0.16922   0.00000  Uiso   1.00
C793   C     0.35771   0.45573   0.17808   0.00000  Uiso   1.00
C794   C     0.38770   0.48190   0.21211   0.00000  Uiso   1.00
C795   C     0.45077   0.53267   0.26387   0.00000  Uiso   1.00
C796   C     0.23961   0.38163   0.17822   0.00000  Uiso   1.00
C797   C     0.20493   0.43391   0.14695   0.00000  Uiso   1.00
C798   C     0.16084   0.47307   0.14183   0.00000  Uiso   1.00
C799   C     0.13444   0.51798   0.11153   0.00000  Uiso   1.00
C800   C     0.24255   0.29947   0.16357   0.00000  Uiso   1.00
C801   C     0.23010   0.22560   0.17242   0.00000  Uiso   1.00
C802   C     0.23537   0.15733   0.15612   0.00000  Uiso   1.00
C803   C     0.29294   0.41842   0.19350   0.00000  Uiso   1.00
C804   C     0.32286   0.44454   0.22753   0.00000  Uiso   1.00
C805   C     0.37056   0.47640   0.23644   0.00000  Uiso   1.00
H806   H     0.28443   0.39602   0.11461   0.00000  Uiso   1.00
H807   H     0.20895   0.48850   0.07358   0.00000  Uiso   1.00
H808   H     0.27820   0.24107   0.10418   0.00000  Uiso   1.00
H809   H     0.37094   0.45997   0.15928   0.00000  Uiso   1.00
H810   H     0.11770   0.58858   0.03880   0.00000  Uiso   1.00
H811   H     0.26374   0.06685   0.10332   0.00000  Uiso   1.00
H812   H     0.45931   0.52846   0.21951   0.00000  Uiso   1.00
H813   H     0.22629   0.37735   0.19712   0.00000  Uiso   1.00
H814   H     0.14761   0.46881   0.16062   0.00000  Uiso   1.00
H815   H     0.21686   0.22137   0.19121   0.00000  Uiso   1.00
H816   H     0.30961   0.44028   0.24631   0.00000  Uiso   1.00
H817   H     0.06792   0.57260   0.10944   0.00000  Uiso   1.00
H818   H     0.21396   0.05087   0.17396   0.00000  Uiso   1.00
H819   H     0.40953   0.51248   0.29015   0.00000  Uiso   1.00
O820   O     0.04210   0.64107   0.04862   0.00000  Uiso   1.00
O821   O     0.73370   0.45658   0.13327   0.00000  Uiso   1.00
O822   O     0.49028   0.56220   0.28570   0.00000  Uiso   1.00
N823   N     0.11679   0.57228   0.06044   0.00000  Uiso   1.00
N824   N     0.25331   0.08450   0.12076   0.00000  Uiso   1.00
N825   N     0.43616   0.51604   0.22939   0.00000  Uiso   1.00
N826   N     0.09000   0.56368   0.09845   0.00000  Uiso   1.00
N827   N     0.22653   0.07590   0.15877   0.00000  Uiso   1.00
N828   N     0.40938   0.50744   0.26740   0.00000  Uiso   1.00
C829   C     0.48411   0.12100   0.34070   0.00000  Uiso   1.00
C830   C     0.50999   0.05653   0.36872   0.00000  Uiso   1.00
C831   C     0.52621   0.06639   0.40383   0.00000  Uiso   1.00
C832   C     0.54903   0.00011   0.42525   0.00000  Uiso   1.00
C833   C     0.58822   0.91117   0.47076   0.00000  Uiso   1.00
C834   C     0.43349   0.08441   0.31347   0.00000  Uiso   1.00
C835   C     0.38540   0.11772   0.30212   0.00000  Uiso   1.00
C836   C     0.34383   0.07490   0.27703   0.00000  Uiso   1.00
C837   C     0.26426   0.02927   0.23675   0.00000  Uiso   1.00
C838   C     0.51683   0.12937   0.32320   0.00000  Uiso   1.00
C839   C     0.03881   0.70048   0.32002   0.00000  Uiso   1.00
C840   C     0.06739   0.69551   0.30311   0.00000  Uiso   1.00
C841   C     0.11723   0.71969   0.27794   0.00000  Uiso   1.00
C842   C     0.49577   0.98575   0.31631   0.00000  Uiso   1.00
C843   C     0.51632   0.98307   0.35547   0.00000  Uiso   1.00
C844   C     0.53912   0.91676   0.37684   0.00000  Uiso   1.00
C845   C     0.55538   0.92651   0.41198   0.00000  Uiso   1.00
C846   C     0.43983   0.01095   0.30022   0.00000  Uiso   1.00
C847   C     0.39831   0.96808   0.27513   0.00000  Uiso   1.00
C848   C     0.35017   0.00131   0.26376   0.00000  Uiso   1.00
C849   C     0.52317   0.05591   0.30995   0.00000  Uiso   1.00
C850   C     0.55172   0.05084   0.29304   0.00000  Uiso   1.00
C851   C     0.07374   0.62192   0.28984   0.00000  Uiso   1.00
H852   H     0.47917   0.17819   0.35101   0.00000  Uiso   1.00
H853   H     0.52130   0.12325   0.41407   0.00000  Uiso   1.00
H854   H     0.38051   0.17457   0.31238   0.00000  Uiso   1.00
H855   H     0.03390   0.75731   0.33028   0.00000  Uiso   1.00
H856   H     0.57078   0.02993   0.47813   0.00000  Uiso   1.00
H857   H     0.27393   0.13815   0.26370   0.00000  Uiso   1.00
H858   H     0.09737   0.81264   0.30145   0.00000  Uiso   1.00
H859   H     0.50070   0.92856   0.30599   0.00000  Uiso   1.00
H860   H     0.54402   0.85992   0.36658   0.00000  Uiso   1.00
H861   H     0.40323   0.91124   0.26489   0.00000  Uiso   1.00
H862   H     0.55661   0.99398   0.28279   0.00000  Uiso   1.00
H863   H     0.58922   0.81620   0.43959   0.00000  Uiso   1.00
H864   H     0.29236   0.92443   0.22516   0.00000  Uiso   1.00
H865   H     0.11581   0.59890   0.26290   0.00000  Uiso   1.00
O866   O     0.60809   0.88240   0.49953   0.00000  Uiso   1.00
O867   O     0.21863   0.02440   0.21820   0.00000  Uiso   1.00
O868   O     0.14298   0.75331   0.26772   0.00000  Uiso   1.00
N869   N     0.56919   0.98905   0.46075   0.00000  Uiso   1.00
N870   N     0.29164   0.09023   0.26027   0.00000  Uiso   1.00
N871   N     0.09403   0.75336   0.29555   0.00000  Uiso   1.00
N872   N     0.57911   0.87405   0.44001   0.00000  Uiso   1.00
N873   N     0.30156   0.97522   0.23953   0.00000  Uiso   1.00
N874   N     0.10395   0.63835   0.27481   0.00000  Uiso   1.00
C875   C     0.51755   0.63206   0.40800   0.00000  Uiso   1.00
C876   C     0.48661   0.68795   0.41817   0.00000  Uiso   1.00
C877   C     0.50416   0.72420   0.45040   0.00000  Uiso   1.00
C878   C     0.46995   0.77328   0.45453   0.00000  Uiso   1.00
C879   C     0.42952   0.85822   0.47445   0.00000  Uiso   1.00
C880   C     0.51600   0.67013   0.37604   0.00000  Uiso   1.00
C881   C     0.55826   0.69138   0.37284   0.00000  Uiso   1.00
C882   C     0.54878   0.72544   0.34149   0.00000  Uiso   1.00
C883   C     0.55398   0.78265   0.29598   0.00000  Uiso   1.00
C884   C     0.48702   0.55368   0.39553   0.00000  Uiso   1.00
C885   C     0.50492   0.47700   0.40872   0.00000  Uiso   1.00
C886   C     0.47105   0.41301   0.39378   0.00000  Uiso   1.00
C887   C     0.43126   0.28941   0.37854   0.00000  Uiso   1.00
C888   C     0.42560   0.65477   0.35801   0.00000  Uiso   1.00
C889   C     0.43667   0.70029   0.39102   0.00000  Uiso   1.00
C890   C     0.40243   0.74932   0.39509   0.00000  Uiso   1.00
C891   C     0.41992   0.78563   0.42732   0.00000  Uiso   1.00
C892   C     0.46606   0.68246   0.34888   0.00000  Uiso   1.00
C893   C     0.45652   0.71650   0.31753   0.00000  Uiso   1.00
C894   C     0.49875   0.73780   0.31428   0.00000  Uiso   1.00
C895   C     0.43708   0.56601   0.36838   0.00000  Uiso   1.00
C896   C     0.40318   0.50212   0.35341   0.00000  Uiso   1.00
C897   C     0.42102   0.42537   0.36657   0.00000  Uiso   1.00
H898   H     0.55643   0.62246   0.42914   0.00000  Uiso   1.00
H899   H     0.54282   0.71465   0.47141   0.00000  Uiso   1.00
H900   H     0.59690   0.68182   0.39386   0.00000  Uiso   1.00
H901   H     0.54357   0.46748   0.42974   0.00000  Uiso   1.00
H902   H     0.50570   0.82231   0.50630   0.00000  Uiso   1.00
H903   H     0.61974   0.75307   0.34277   0.00000  Uiso   1.00
H904   H     0.50728   0.30109   0.41842   0.00000  Uiso   1.00
H905   H     0.38671   0.66437   0.33686   0.00000  Uiso   1.00
H906   H     0.36378   0.75885   0.37407   0.00000  Uiso   1.00
H907   H     0.41787   0.72603   0.29652   0.00000  Uiso   1.00
H908   H     0.36454   0.51169   0.33239   0.00000  Uiso   1.00
H909   H     0.36039   0.85820   0.42729   0.00000  Uiso   1.00
H910   H     0.47443   0.78895   0.26376   0.00000  Uiso   1.00
H911   H     0.86197   0.83697   0.33941   0.00000  Uiso   1.00
O912   O     0.42102   0.90167   0.49293   0.00000  Uiso   1.00
O913   O     0.57064   0.81081   0.27838   0.00000  Uiso   1.00
O914   O     0.42310   0.21783   0.37764   0.00000  Uiso   1.00
N915   N     0.47464   0.81778   0.48260   0.00000  Uiso   1.00
N916   N     0.58126   0.75305   0.32971   0.00000  Uiso   1.00
N917   N     0.97613   0.83048   0.40043   0.00000  Uiso   1.00
N918   N     0.39645   0.83709   0.44009   0.00000  Uiso   1.00
N919   N     0.50307   0.77236   0.28720   0.00000  Uiso   1.00
N920   N     0.89794   0.84979   0.35792   0.00000  Uiso   1.00
C921   C     0.22889   0.89175   0.36649   0.00000  Uiso   1.00
C922   C     0.27796   0.93941   0.37733   0.00000  Uiso   1.00
C923   C     0.30430   0.98427   0.40763   0.00000  Uiso   1.00
C924   C     0.34842   0.02348   0.41280   0.00000  Uiso   1.00
C925   C     0.42202   0.09830   0.43334   0.00000  Uiso   1.00
C926   C     0.24034   0.80497   0.36071   0.00000  Uiso   1.00
C927   C     0.23505   0.73679   0.37703   0.00000  Uiso   1.00
C928   C     0.24749   0.66284   0.36820   0.00000  Uiso   1.00
C929   C     0.26266   0.52893   0.36293   0.00000  Uiso   1.00
C930   C     0.18996   0.92392   0.33078   0.00000  Uiso   1.00
C931   C     0.14229   0.95573   0.32192   0.00000  Uiso   1.00
C932   C     0.11230   0.98190   0.28789   0.00000  Uiso   1.00
C933   C     0.04923   0.03267   0.23613   0.00000  Uiso   1.00
C934   C     0.26039   0.88163   0.32178   0.00000  Uiso   1.00
C935   C     0.29507   0.93391   0.35305   0.00000  Uiso   1.00
C936   C     0.33916   0.97307   0.35817   0.00000  Uiso   1.00
C937   C     0.36556   0.01798   0.38847   0.00000  Uiso   1.00
C938   C     0.25745   0.79947   0.33643   0.00000  Uiso   1.00
C939   C     0.26990   0.72560   0.32758   0.00000  Uiso   1.00
C940   C     0.26463   0.65733   0.34388   0.00000  Uiso   1.00
C941   C     0.20706   0.91842   0.30650   0.00000  Uiso   1.00
C942   C     0.17714   0.94454   0.27247   0.00000  Uiso   1.00
C943   C     0.12944   0.97640   0.26356   0.00000  Uiso   1.00
H944   H     0.21557   0.89602   0.38539   0.00000  Uiso   1.00
H945   H     0.29105   0.98850   0.42642   0.00000  Uiso   1.00
H946   H     0.22180   0.74107   0.39582   0.00000  Uiso   1.00
H947   H     0.12906   0.95997   0.34072   0.00000  Uiso   1.00
H948   H     0.38230   0.08858   0.46120   0.00000  Uiso   1.00
H949   H     0.23626   0.56685   0.39668   0.00000  Uiso   1.00
H950   H     0.04069   0.02846   0.28049   0.00000  Uiso   1.00
H951   H     0.27371   0.87735   0.30288   0.00000  Uiso   1.00
H952   H     0.35239   0.96881   0.33938   0.00000  Uiso   1.00
H953   H     0.28314   0.72137   0.30879   0.00000  Uiso   1.00
H954   H     0.19039   0.94028   0.25369   0.00000  Uiso   1.00
H955   H     0.43208   0.07260   0.39056   0.00000  Uiso   1.00
H956   H     0.28604   0.55087   0.32604   0.00000  Uiso   1.00
H957   H     0.09047   0.01248   0.20985   0.00000  Uiso   1.00
O958   O     0.45790   0.14107   0.45138   0.00000  Uiso   1.00
O959   O     0.76630   0.95658   0.36673   0.00000  Uiso   1.00
O960   O     0.00972   0.06220   0.21430   0.00000  Uiso   1.00
N961   N     0.38321   0.07228   0.43956   0.00000  Uiso   1.00
N962   N     0.24669   0.58450   0.37924   0.00000  Uiso   1.00
N963   N     0.06384   0.01604   0.27061   0.00000  Uiso   1.00
N964   N     0.41000   0.06368   0.40155   0.00000  Uiso   1.00
N965   N     0.27347   0.57590   0.34123   0.00000  Uiso   1.00
N966   N     0.09062   0.00744   0.23260   0.00000  Uiso   1.00
C967   C     0.98411   0.62100   0.34070   0.00000  Uiso   1.00
C968   C     0.00999   0.55653   0.36872   0.00000  Uiso   1.00
C969   C     0.02621   0.56639   0.40383   0.00000  Uiso   1.00
C970   C     0.04903   0.50011   0.42525   0.00000  Uiso   1.00
C971   C     0.08822   0.41117   0.47076   0.00000  Uiso   1.00
C972   C     0.93349   0.58441   0.31347   0.00000  Uiso   1.00
C973   C     0.88540   0.61772   0.30212   0.00000  Uiso   1.00
C974   C     0.84383   0.57490   0.27703   0.00000  Uiso   1.00
C975   C     0.76426   0.52927   0.23675   0.00000  Uiso   1.00
C976   C     0.01683   0.62937   0.32320   0.00000  Uiso   1.00
C977   C     0.53881   0.20048   0.32002   0.00000  Uiso   1.00
C978   C     0.56739   0.19551   0.30311   0.00000  Uiso   1.00
C979   C     0.61723   0.21969   0.27794   0.00000  Uiso   1.00
C980   C     0.99577   0.48575   0.31631   0.00000  Uiso   1.00
C981   C     0.01632   0.48307   0.35547   0.00000  Uiso   1.00
C982   C     0.03912   0.41676   0.37684   0.00000  Uiso   1.00
C983   C     0.05538   0.42651   0.41198   0.00000  Uiso   1.00
C984   C     0.93983   0.51095   0.30022   0.00000  Uiso   1.00
C985   C     0.89831   0.46808   0.27513   0.00000  Uiso   1.00
C986   C     0.85017   0.50131   0.26376   0.00000  Uiso   1.00
C987   C     0.02317   0.55591   0.30995   0.00000  Uiso   1.00
C988   C     0.05172   0.55084   0.29304   0.00000  Uiso   1.00
C989   C     0.57374   0.12192   0.28984   0.00000  Uiso   1.00
H990   H     0.97917   0.67819   0.35101   0.00000  Uiso   1.00
H991   H     0.02130   0.62325   0.41407   0.00000  Uiso   1.00
H992   H     0.88051   0.67457   0.31238   0.00000  Uiso   1.00
H993   H     0.53390   0.25731   0.33028   0.00000  Uiso   1.00
H994   H     0.07078   0.52993   0.47813   0.00000  Uiso   1.00
H995   H     0.77393   0.63815   0.26370   0.00000  Uiso   1.00
H996   H     0.59737   0.31264   0.30145   0.00000  Uiso   1.00
H997   H     0.00070   0.42856   0.30599   0.00000  Uiso   1.00
H998   H     0.04402   0.35992   0.36658   0.00000  Uiso   1.00
H999   H     0.90323   0.41124   0.26489   0.00000  Uiso   1.00
H1000  H     0.05661   0.49398   0.28279   0.00000  Uiso   1.00
H1001  H     0.08922   0.31620   0.43959   0.00000  Uiso   1.00
H1002  H     0.79236   0.42443   0.22516   0.00000  Uiso   1.00
H1003  H     0.61581   0.09890   0.26290   0.00000  Uiso   1.00
O1004  O     0.10809   0.38240   0.49953   0.00000  Uiso   1.00
O1005  O     0.71863   0.52440   0.21820   0.00000  Uiso   1.00
O1006  O     0.64298   0.25331   0.26772   0.00000  Uiso   1.00
N1007  N     0.06919   0.48905   0.46075   0.00000  Uiso   1.00
N1008  N     0.79164   0.59023   0.26027   0.00000  Uiso   1.00
N1009  N     0.59403   0.25336   0.29555   0.00000  Uiso   1.00
N1010  N     0.07911   0.37405   0.44001   0.00000  Uiso   1.00
N1011  N     0.80156   0.47522   0.23953   0.00000  Uiso   1.00
N1012  N     0.60395   0.13835   0.27481   0.00000  Uiso   1.00
C1013  C     0.01755   0.13206   0.40800   0.00000  Uiso   1.00
C1014  C     0.98661   0.18795   0.41817   0.00000  Uiso   1.00
C1015  C     0.00416   0.22420   0.45040   0.00000  Uiso   1.00
C1016  C     0.96995   0.27328   0.45453   0.00000  Uiso   1.00
C1017  C     0.92952   0.35822   0.47445   0.00000  Uiso   1.00
C1018  C     0.01600   0.17013   0.37604   0.00000  Uiso   1.00
C1019  C     0.05826   0.19138   0.37284   0.00000  Uiso   1.00
C1020  C     0.04878   0.22544   0.34149   0.00000  Uiso   1.00
C1021  C     0.05398   0.28265   0.29598   0.00000  Uiso   1.00
C1022  C     0.98702   0.05368   0.39553   0.00000  Uiso   1.00
C1023  C     0.00492   0.97700   0.40872   0.00000  Uiso   1.00
C1024  C     0.97105   0.91301   0.39378   0.00000  Uiso   1.00
C1025  C     0.93126   0.78941   0.37854   0.00000  Uiso   1.00
C1026  C     0.92560   0.15477   0.35801   0.00000  Uiso   1.00
C1027  C     0.93667   0.20029   0.39102   0.00000  Uiso   1.00
C1028  C     0.90243   0.24932   0.39509   0.00000  Uiso   1.00
C1029  C     0.91992   0.28563   0.42732   0.00000  Uiso   1.00
C1030  C     0.96606   0.18246   0.34888   0.00000  Uiso   1.00
C1031  C     0.95652   0.21650   0.31753   0.00000  Uiso   1.00
C1032  C     0.99875   0.23780   0.31428   0.00000  Uiso   1.00
C1033  C     0.93708   0.06601   0.36838   0.00000  Uiso   1.00
C1034  C     0.90318   0.00212   0.35341   0.00000  Uiso   1.00
C1035  C     0.92102   0.92537   0.36657   0.00000  Uiso   1.00
H1036  H     0.05643   0.12246   0.42914   0.00000  Uiso   1.00
H1037  H     0.04282   0.21465   0.47141   0.00000  Uiso   1.00
H1038  H     0.09690   0.18182   0.39386   0.00000  Uiso   1.00
H1039  H     0.04357   0.96748   0.42974   0.00000  Uiso   1.00
H1040  H     0.00570   0.32231   0.50630   0.00000  Uiso   1.00
H1041  H     0.11974   0.25307   0.34277   0.00000  Uiso   1.00
H1042  H     0.00728   0.80109   0.41842   0.00000  Uiso   1.00
H1043  H     0.88671   0.16437   0.33686   0.00000  Uiso   1.00
H1044  H     0.86378   0.25885   0.37407   0.00000  Uiso   1.00
H1045  H     0.91787   0.22603   0.29652   0.00000  Uiso   1.00
H1046  H     0.86454   0.01169   0.33239   0.00000  Uiso   1.00
H1047  H     0.86039   0.35820   0.42729   0.00000  Uiso   1.00
H1048  H     0.97443   0.28895   0.26376   0.00000  Uiso   1.00
H1049  H     0.36197   0.33697   0.33941   0.00000  Uiso   1.00
O1050  O     0.92102   0.40167   0.49293   0.00000  Uiso   1.00
O1051  O     0.07064   0.31081   0.27838   0.00000  Uiso   1.00
O1052  O     0.92310   0.71783   0.37764   0.00000  Uiso   1.00
N1053  N     0.97464   0.31778   0.48260   0.00000  Uiso   1.00
N1054  N     0.08126   0.25305   0.32971   0.00000  Uiso   1.00
N1055  N     0.47613   0.33048   0.40043   0.00000  Uiso   1.00
N1056  N     0.89645   0.33709   0.44009   0.00000  Uiso   1.00
N1057  N     0.00307   0.27236   0.28720   0.00000  Uiso   1.00
N1058  N     0.39794   0.34979   0.35792   0.00000  Uiso   1.00
C1059  C     0.72889   0.39175   0.36649   0.00000  Uiso   1.00
C1060  C     0.77796   0.43941   0.37733   0.00000  Uiso   1.00
C1061  C     0.80430   0.48427   0.40763   0.00000  Uiso   1.00
C1062  C     0.84842   0.52348   0.41280   0.00000  Uiso   1.00
C1063  C     0.92202   0.59830   0.43334   0.00000  Uiso   1.00
C1064  C     0.74034   0.30497   0.36071   0.00000  Uiso   1.00
C1065  C     0.73505   0.23679   0.37703   0.00000  Uiso   1.00
C1066  C     0.74749   0.16284   0.36820   0.00000  Uiso   1.00
C1067  C     0.76266   0.02893   0.36293   0.00000  Uiso   1.00
C1068  C     0.68996   0.42392   0.33078   0.00000  Uiso   1.00
C1069  C     0.64229   0.45573   0.32192   0.00000  Uiso   1.00
C1070  C     0.61230   0.48190   0.28789   0.00000  Uiso   1.00
C1071  C     0.54923   0.53267   0.23613   0.00000  Uiso   1.00
C1072  C     0.76039   0.38163   0.32178   0.00000  Uiso   1.00
C1073  C     0.79507   0.43391   0.35305   0.00000  Uiso   1.00
C1074  C     0.83916   0.47307   0.35817   0.00000  Uiso   1.00
C1075  C     0.86556   0.51798   0.38847   0.00000  Uiso   1.00
C1076  C     0.75745   0.29947   0.33643   0.00000  Uiso   1.00
C1077  C     0.76990   0.22560   0.32758   0.00000  Uiso   1.00
C1078  C     0.76463   0.15733   0.34388   0.00000  Uiso   1.00
C1079  C     0.70706   0.41842   0.30650   0.00000  Uiso   1.00
C1080  C     0.67714   0.44454   0.27247   0.00000  Uiso   1.00
C1081  C     0.62944   0.47640   0.26356   0.00000  Uiso   1.00
H1082  H     0.71557   0.39602   0.38539   0.00000  Uiso   1.00
H1083  H     0.79105   0.48850   0.42642   0.00000  Uiso   1.00
H1084  H     0.72180   0.24107   0.39582   0.00000  Uiso   1.00
H1085  H     0.62906   0.45997   0.34072   0.00000  Uiso   1.00
H1086  H     0.88230   0.58858   0.46120   0.00000  Uiso   1.00
H1087  H     0.73626   0.06685   0.39668   0.00000  Uiso   1.00
H1088  H     0.54069   0.52846   0.28049   0.00000  Uiso   1.00
H1089  H     0.77371   0.37735   0.30288   0.00000  Uiso   1.00
H1090  H     0.85239   0.46881   0.33938   0.00000  Uiso   1.00
H1091  H     0.78314   0.22137   0.30879   0.00000  Uiso   1.00
H1092  H     0.69039   0.44028   0.25369   0.00000  Uiso   1.00
H1093  H     0.93208   0.57260   0.39056   0.00000  Uiso   1.00
H1094  H     0.78604   0.05087   0.32604   0.00000  Uiso   1.00
H1095  H     0.59047   0.51248   0.20985   0.00000  Uiso   1.00
O1096  O     0.95790   0.64107   0.45138   0.00000  Uiso   1.00
O1097  O     0.26630   0.45658   0.36673   0.00000  Uiso   1.00
O1098  O     0.50972   0.56220   0.21430   0.00000  Uiso   1.00
N1099  N     0.88321   0.57228   0.43956   0.00000  Uiso   1.00
N1100  N     0.74669   0.08450   0.37924   0.00000  Uiso   1.00
N1101  N     0.56384   0.51604   0.27061   0.00000  Uiso   1.00
N1102  N     0.91000   0.56368   0.40155   0.00000  Uiso   1.00
N1103  N     0.77347   0.07590   0.34123   0.00000  Uiso   1.00
N1104  N     0.59062   0.50744   0.23260   0.00000  Uiso   1.00
