data_job_02452
_audit_creation_date              2018-12-19
_audit_creation_method            'Materials Studio'
_symmetry_space_group_name_H-M    'P1'
_symmetry_Int_Tables_number       1
_symmetry_cell_setting            triclinic
loop_
_symmetry_equiv_pos_as_xyz
  x,y,z
_cell_length_a                    31.1192
_cell_length_b                    31.1192
_cell_length_c                    11.4196
_cell_angle_alpha                 90.0000
_cell_angle_beta                  90.0000
_cell_angle_gamma                 90.0000
loop_
_atom_site_label
_atom_site_type_symbol
_atom_site_fract_x
_atom_site_fract_y
_atom_site_fract_z
_atom_site_U_iso_or_equiv
_atom_site_adp_type
_atom_site_occupancy
C1     C     0.88620   0.14483   0.63601   0.00000  Uiso   1.00
C2     C     0.89612   0.14692   0.50537   0.00000  Uiso   1.00
C3     C     0.89938   0.18415   0.43909   0.00000  Uiso   1.00
C4     C     0.90868   0.17926   0.32093   0.00000  Uiso   1.00
C5     C     0.92318   0.18870   0.12565   0.00000  Uiso   1.00
C6     C     0.84664   0.11625   0.64801   0.00000  Uiso   1.00
C7     C     0.80830   0.12770   0.70168   0.00000  Uiso   1.00
C8     C     0.77595   0.09698   0.70360   0.00000  Uiso   1.00
C9     C     0.71363   0.05879   0.72986   0.00000  Uiso   1.00
C10    C     0.92318   0.11999   0.69163   0.00000  Uiso   1.00
C11    C     0.94919   0.13457   0.78199   0.00000  Uiso   1.00
C12    C     0.98128   0.10700   0.82067   0.00000  Uiso   1.00
C13    C     0.03781   0.07462   0.91465   0.00000  Uiso   1.00
C14    C     0.89692   0.06993   0.54403   0.00000  Uiso   1.00
C15    C     0.90194   0.10623   0.45541   0.00000  Uiso   1.00
C16    C     0.91124   0.10128   0.33732   0.00000  Uiso   1.00
C17    C     0.91451   0.13851   0.27087   0.00000  Uiso   1.00
C18    C     0.85246   0.07557   0.59805   0.00000  Uiso   1.00
C19    C     0.82016   0.04483   0.59991   0.00000  Uiso   1.00
C20    C     0.78178   0.05622   0.65356   0.00000  Uiso   1.00
C21    C     0.92901   0.07930   0.64167   0.00000  Uiso   1.00
C22    C     0.96105   0.05170   0.68022   0.00000  Uiso   1.00
C23    C     0.98711   0.06625   0.77062   0.00000  Uiso   1.00
H24    H     0.88167   0.17650   0.67491   0.00000  Uiso   1.00
H25    H     0.89487   0.21563   0.47778   0.00000  Uiso   1.00
H26    H     0.80381   0.15918   0.74034   0.00000  Uiso   1.00
H27    H     0.94468   0.16606   0.82063   0.00000  Uiso   1.00
H28    H     0.91206   0.24108   0.23718   0.00000  Uiso   1.00
H29    H     0.72005   0.12204   0.79084   0.00000  Uiso   1.00
H30    H     0.01711   0.13654   0.96016   0.00000  Uiso   1.00
H31    H     0.90145   0.03825   0.50513   0.00000  Uiso   1.00
H32    H     0.91574   0.06980   0.29868   0.00000  Uiso   1.00
H33    H     0.82467   0.01334   0.56124   0.00000  Uiso   1.00
H34    H     0.96555   0.02022   0.64153   0.00000  Uiso   1.00
H35    H     0.92900   0.12271   0.09181   0.00000  Uiso   1.00
H36    H     0.73699   0.00367   0.64548   0.00000  Uiso   1.00
H37    H     0.03404   0.01817   0.81479   0.00000  Uiso   1.00
O38    O     0.92956   0.20514   0.03174   0.00000  Uiso   1.00
O39    O     0.67765   0.04897   0.75814   0.00000  Uiso   1.00
O40    O     0.06738   0.06799   0.98028   0.00000  Uiso   1.00
N41    N     0.91409   0.20889   0.23131   0.00000  Uiso   1.00
N42    N     0.73457   0.09760   0.74893   0.00000  Uiso   1.00
N43    N     0.01229   0.11115   0.90725   0.00000  Uiso   1.00
N44    N     0.92321   0.14520   0.15309   0.00000  Uiso   1.00
N45    N     0.74369   0.03391   0.67071   0.00000  Uiso   1.00
N46    N     0.02140   0.04746   0.82903   0.00000  Uiso   1.00
C47    C     0.38620   0.64483   0.13601   0.00000  Uiso   1.00
C48    C     0.39612   0.64692   0.00537   0.00000  Uiso   1.00
C49    C     0.39938   0.68415   0.93909   0.00000  Uiso   1.00
C50    C     0.40868   0.67926   0.82093   0.00000  Uiso   1.00
C51    C     0.42318   0.68870   0.62565   0.00000  Uiso   1.00
C52    C     0.34664   0.61625   0.14801   0.00000  Uiso   1.00
C53    C     0.30830   0.62770   0.20168   0.00000  Uiso   1.00
C54    C     0.27595   0.59698   0.20360   0.00000  Uiso   1.00
C55    C     0.21363   0.55879   0.22986   0.00000  Uiso   1.00
C56    C     0.42318   0.61999   0.19163   0.00000  Uiso   1.00
C57    C     0.44919   0.63457   0.28199   0.00000  Uiso   1.00
C58    C     0.48128   0.60700   0.32067   0.00000  Uiso   1.00
C59    C     0.53781   0.57462   0.41465   0.00000  Uiso   1.00
C60    C     0.39692   0.56993   0.04403   0.00000  Uiso   1.00
C61    C     0.40194   0.60623   0.95541   0.00000  Uiso   1.00
C62    C     0.41124   0.60128   0.83732   0.00000  Uiso   1.00
C63    C     0.41451   0.63851   0.77087   0.00000  Uiso   1.00
C64    C     0.35246   0.57557   0.09805   0.00000  Uiso   1.00
C65    C     0.32016   0.54483   0.09991   0.00000  Uiso   1.00
C66    C     0.28178   0.55622   0.15356   0.00000  Uiso   1.00
C67    C     0.42901   0.57930   0.14167   0.00000  Uiso   1.00
C68    C     0.46105   0.55170   0.18022   0.00000  Uiso   1.00
C69    C     0.48711   0.56625   0.27062   0.00000  Uiso   1.00
H70    H     0.38167   0.67650   0.17491   0.00000  Uiso   1.00
H71    H     0.39487   0.71563   0.97778   0.00000  Uiso   1.00
H72    H     0.30381   0.65918   0.24034   0.00000  Uiso   1.00
H73    H     0.44468   0.66606   0.32063   0.00000  Uiso   1.00
H74    H     0.41206   0.74108   0.73718   0.00000  Uiso   1.00
H75    H     0.22005   0.62204   0.29084   0.00000  Uiso   1.00
H76    H     0.51711   0.63654   0.46016   0.00000  Uiso   1.00
H77    H     0.40145   0.53825   0.00513   0.00000  Uiso   1.00
H78    H     0.41574   0.56980   0.79868   0.00000  Uiso   1.00
H79    H     0.32467   0.51334   0.06124   0.00000  Uiso   1.00
H80    H     0.46555   0.52022   0.14153   0.00000  Uiso   1.00
H81    H     0.42900   0.62271   0.59181   0.00000  Uiso   1.00
H82    H     0.23699   0.50367   0.14548   0.00000  Uiso   1.00
H83    H     0.53404   0.51817   0.31479   0.00000  Uiso   1.00
O84    O     0.42956   0.70514   0.53174   0.00000  Uiso   1.00
O85    O     0.17765   0.54897   0.25814   0.00000  Uiso   1.00
O86    O     0.56738   0.56799   0.48028   0.00000  Uiso   1.00
N87    N     0.41409   0.70889   0.73131   0.00000  Uiso   1.00
N88    N     0.23457   0.59760   0.24893   0.00000  Uiso   1.00
N89    N     0.51229   0.61115   0.40725   0.00000  Uiso   1.00
N90    N     0.42321   0.64520   0.65309   0.00000  Uiso   1.00
N91    N     0.24369   0.53391   0.17071   0.00000  Uiso   1.00
N92    N     0.52140   0.54746   0.32903   0.00000  Uiso   1.00
C93    C     0.11380   0.85517   0.63601   0.00000  Uiso   1.00
C94    C     0.10388   0.85308   0.50537   0.00000  Uiso   1.00
C95    C     0.10062   0.81585   0.43909   0.00000  Uiso   1.00
C96    C     0.09132   0.82074   0.32093   0.00000  Uiso   1.00
C97    C     0.07682   0.81130   0.12565   0.00000  Uiso   1.00
C98    C     0.15336   0.88375   0.64801   0.00000  Uiso   1.00
C99    C     0.19170   0.87230   0.70168   0.00000  Uiso   1.00
C100   C     0.22405   0.90302   0.70360   0.00000  Uiso   1.00
C101   C     0.28637   0.94121   0.72986   0.00000  Uiso   1.00
C102   C     0.07682   0.88001   0.69163   0.00000  Uiso   1.00
C103   C     0.05081   0.86543   0.78199   0.00000  Uiso   1.00
C104   C     0.01872   0.89300   0.82067   0.00000  Uiso   1.00
C105   C     0.96219   0.92538   0.91465   0.00000  Uiso   1.00
C106   C     0.10308   0.93007   0.54403   0.00000  Uiso   1.00
C107   C     0.09806   0.89377   0.45541   0.00000  Uiso   1.00
C108   C     0.08876   0.89872   0.33732   0.00000  Uiso   1.00
C109   C     0.08549   0.86149   0.27087   0.00000  Uiso   1.00
C110   C     0.14754   0.92443   0.59805   0.00000  Uiso   1.00
C111   C     0.17984   0.95517   0.59991   0.00000  Uiso   1.00
C112   C     0.21822   0.94378   0.65356   0.00000  Uiso   1.00
C113   C     0.07099   0.92070   0.64167   0.00000  Uiso   1.00
C114   C     0.03895   0.94830   0.68022   0.00000  Uiso   1.00
C115   C     0.01289   0.93375   0.77062   0.00000  Uiso   1.00
H116   H     0.11833   0.82350   0.67491   0.00000  Uiso   1.00
H117   H     0.10513   0.78437   0.47778   0.00000  Uiso   1.00
H118   H     0.19619   0.84082   0.74034   0.00000  Uiso   1.00
H119   H     0.05532   0.83394   0.82063   0.00000  Uiso   1.00
H120   H     0.08794   0.75892   0.23718   0.00000  Uiso   1.00
H121   H     0.27995   0.87796   0.79084   0.00000  Uiso   1.00
H122   H     0.98289   0.86346   0.96016   0.00000  Uiso   1.00
H123   H     0.09855   0.96175   0.50513   0.00000  Uiso   1.00
H124   H     0.08426   0.93020   0.29868   0.00000  Uiso   1.00
H125   H     0.17533   0.98666   0.56124   0.00000  Uiso   1.00
H126   H     0.03445   0.97978   0.64153   0.00000  Uiso   1.00
H127   H     0.07100   0.87729   0.09181   0.00000  Uiso   1.00
H128   H     0.26301   0.99633   0.64548   0.00000  Uiso   1.00
H129   H     0.96596   0.98183   0.81479   0.00000  Uiso   1.00
O130   O     0.07044   0.79486   0.03174   0.00000  Uiso   1.00
O131   O     0.32235   0.95103   0.75814   0.00000  Uiso   1.00
O132   O     0.93262   0.93201   0.98028   0.00000  Uiso   1.00
N133   N     0.08591   0.79111   0.23131   0.00000  Uiso   1.00
N134   N     0.26543   0.90240   0.74893   0.00000  Uiso   1.00
N135   N     0.98771   0.88885   0.90725   0.00000  Uiso   1.00
N136   N     0.07679   0.85480   0.15309   0.00000  Uiso   1.00
N137   N     0.25631   0.96609   0.67071   0.00000  Uiso   1.00
N138   N     0.97860   0.95254   0.82903   0.00000  Uiso   1.00
C139   C     0.61380   0.35517   0.13601   0.00000  Uiso   1.00
C140   C     0.60388   0.35308   0.00537   0.00000  Uiso   1.00
C141   C     0.60062   0.31585   0.93909   0.00000  Uiso   1.00
C142   C     0.59132   0.32074   0.82093   0.00000  Uiso   1.00
C143   C     0.57682   0.31130   0.62565   0.00000  Uiso   1.00
C144   C     0.65336   0.38375   0.14801   0.00000  Uiso   1.00
C145   C     0.69170   0.37230   0.20168   0.00000  Uiso   1.00
C146   C     0.72405   0.40302   0.20360   0.00000  Uiso   1.00
C147   C     0.78637   0.44121   0.22986   0.00000  Uiso   1.00
C148   C     0.57682   0.38001   0.19163   0.00000  Uiso   1.00
C149   C     0.55081   0.36543   0.28199   0.00000  Uiso   1.00
C150   C     0.51872   0.39300   0.32067   0.00000  Uiso   1.00
C151   C     0.46219   0.42538   0.41465   0.00000  Uiso   1.00
C152   C     0.60308   0.43007   0.04403   0.00000  Uiso   1.00
C153   C     0.59806   0.39377   0.95541   0.00000  Uiso   1.00
C154   C     0.58876   0.39872   0.83732   0.00000  Uiso   1.00
C155   C     0.58549   0.36149   0.77087   0.00000  Uiso   1.00
C156   C     0.64754   0.42443   0.09805   0.00000  Uiso   1.00
C157   C     0.67984   0.45517   0.09991   0.00000  Uiso   1.00
C158   C     0.71822   0.44378   0.15356   0.00000  Uiso   1.00
C159   C     0.57099   0.42070   0.14167   0.00000  Uiso   1.00
C160   C     0.53895   0.44830   0.18022   0.00000  Uiso   1.00
C161   C     0.51289   0.43375   0.27062   0.00000  Uiso   1.00
H162   H     0.61833   0.32350   0.17491   0.00000  Uiso   1.00
H163   H     0.60513   0.28437   0.97778   0.00000  Uiso   1.00
H164   H     0.69619   0.34082   0.24034   0.00000  Uiso   1.00
H165   H     0.55532   0.33394   0.32063   0.00000  Uiso   1.00
H166   H     0.58794   0.25892   0.73718   0.00000  Uiso   1.00
H167   H     0.77995   0.37796   0.29084   0.00000  Uiso   1.00
H168   H     0.48289   0.36346   0.46016   0.00000  Uiso   1.00
H169   H     0.59855   0.46175   0.00513   0.00000  Uiso   1.00
H170   H     0.58426   0.43020   0.79868   0.00000  Uiso   1.00
H171   H     0.67533   0.48666   0.06124   0.00000  Uiso   1.00
H172   H     0.53445   0.47978   0.14153   0.00000  Uiso   1.00
H173   H     0.57100   0.37729   0.59181   0.00000  Uiso   1.00
H174   H     0.76301   0.49633   0.14548   0.00000  Uiso   1.00
H175   H     0.46596   0.48183   0.31479   0.00000  Uiso   1.00
O176   O     0.57044   0.29486   0.53174   0.00000  Uiso   1.00
O177   O     0.82235   0.45103   0.25814   0.00000  Uiso   1.00
O178   O     0.43262   0.43201   0.48028   0.00000  Uiso   1.00
N179   N     0.58591   0.29111   0.73131   0.00000  Uiso   1.00
N180   N     0.76543   0.40240   0.24893   0.00000  Uiso   1.00
N181   N     0.48771   0.38885   0.40725   0.00000  Uiso   1.00
N182   N     0.57679   0.35480   0.65309   0.00000  Uiso   1.00
N183   N     0.75631   0.46609   0.17071   0.00000  Uiso   1.00
N184   N     0.47860   0.45254   0.32903   0.00000  Uiso   1.00
C185   C     0.14483   0.11380   0.36399   0.00000  Uiso   1.00
C186   C     0.14692   0.10388   0.49463   0.00000  Uiso   1.00
C187   C     0.18415   0.10062   0.56091   0.00000  Uiso   1.00
C188   C     0.17926   0.09132   0.67907   0.00000  Uiso   1.00
C189   C     0.18870   0.07682   0.87435   0.00000  Uiso   1.00
C190   C     0.11625   0.15336   0.35199   0.00000  Uiso   1.00
C191   C     0.12770   0.19170   0.29832   0.00000  Uiso   1.00
C192   C     0.09698   0.22405   0.29640   0.00000  Uiso   1.00
C193   C     0.05879   0.28637   0.27014   0.00000  Uiso   1.00
C194   C     0.11999   0.07682   0.30837   0.00000  Uiso   1.00
C195   C     0.13457   0.05081   0.21801   0.00000  Uiso   1.00
C196   C     0.10700   0.01872   0.17933   0.00000  Uiso   1.00
C197   C     0.07462   0.96219   0.08535   0.00000  Uiso   1.00
C198   C     0.06993   0.10308   0.45597   0.00000  Uiso   1.00
C199   C     0.10623   0.09806   0.54459   0.00000  Uiso   1.00
C200   C     0.10128   0.08876   0.66268   0.00000  Uiso   1.00
C201   C     0.13851   0.08549   0.72913   0.00000  Uiso   1.00
C202   C     0.07557   0.14754   0.40195   0.00000  Uiso   1.00
C203   C     0.04483   0.17984   0.40009   0.00000  Uiso   1.00
C204   C     0.05622   0.21822   0.34644   0.00000  Uiso   1.00
C205   C     0.07930   0.07099   0.35833   0.00000  Uiso   1.00
C206   C     0.05170   0.03895   0.31978   0.00000  Uiso   1.00
C207   C     0.06625   0.01289   0.22938   0.00000  Uiso   1.00
H208   H     0.17650   0.11833   0.32509   0.00000  Uiso   1.00
H209   H     0.21563   0.10513   0.52222   0.00000  Uiso   1.00
H210   H     0.15918   0.19619   0.25966   0.00000  Uiso   1.00
H211   H     0.16606   0.05532   0.17937   0.00000  Uiso   1.00
H212   H     0.24108   0.08794   0.76282   0.00000  Uiso   1.00
H213   H     0.12204   0.27995   0.20916   0.00000  Uiso   1.00
H214   H     0.13654   0.98289   0.03984   0.00000  Uiso   1.00
H215   H     0.03825   0.09855   0.49487   0.00000  Uiso   1.00
H216   H     0.06980   0.08426   0.70132   0.00000  Uiso   1.00
H217   H     0.01334   0.17533   0.43876   0.00000  Uiso   1.00
H218   H     0.02022   0.03445   0.35847   0.00000  Uiso   1.00
H219   H     0.12271   0.07100   0.90819   0.00000  Uiso   1.00
H220   H     0.00367   0.26301   0.35452   0.00000  Uiso   1.00
H221   H     0.01817   0.96596   0.18521   0.00000  Uiso   1.00
O222   O     0.20514   0.07044   0.96826   0.00000  Uiso   1.00
O223   O     0.04897   0.32235   0.24186   0.00000  Uiso   1.00
O224   O     0.06799   0.93262   0.01972   0.00000  Uiso   1.00
N225   N     0.20889   0.08591   0.76869   0.00000  Uiso   1.00
N226   N     0.09760   0.26543   0.25107   0.00000  Uiso   1.00
N227   N     0.11115   0.98771   0.09275   0.00000  Uiso   1.00
N228   N     0.14520   0.07679   0.84691   0.00000  Uiso   1.00
N229   N     0.03391   0.25631   0.32929   0.00000  Uiso   1.00
N230   N     0.04746   0.97860   0.17097   0.00000  Uiso   1.00
C231   C     0.64483   0.61380   0.86399   0.00000  Uiso   1.00
C232   C     0.64692   0.60388   0.99463   0.00000  Uiso   1.00
C233   C     0.68415   0.60062   0.06091   0.00000  Uiso   1.00
C234   C     0.67926   0.59132   0.17907   0.00000  Uiso   1.00
C235   C     0.68870   0.57682   0.37435   0.00000  Uiso   1.00
C236   C     0.61625   0.65336   0.85199   0.00000  Uiso   1.00
C237   C     0.62770   0.69170   0.79832   0.00000  Uiso   1.00
C238   C     0.59698   0.72405   0.79640   0.00000  Uiso   1.00
C239   C     0.55879   0.78637   0.77014   0.00000  Uiso   1.00
C240   C     0.61999   0.57682   0.80837   0.00000  Uiso   1.00
C241   C     0.63457   0.55081   0.71801   0.00000  Uiso   1.00
C242   C     0.60700   0.51872   0.67933   0.00000  Uiso   1.00
C243   C     0.57462   0.46219   0.58535   0.00000  Uiso   1.00
C244   C     0.56993   0.60308   0.95597   0.00000  Uiso   1.00
C245   C     0.60623   0.59806   0.04459   0.00000  Uiso   1.00
C246   C     0.60128   0.58876   0.16268   0.00000  Uiso   1.00
C247   C     0.63851   0.58549   0.22913   0.00000  Uiso   1.00
C248   C     0.57557   0.64754   0.90195   0.00000  Uiso   1.00
C249   C     0.54483   0.67984   0.90009   0.00000  Uiso   1.00
C250   C     0.55622   0.71822   0.84644   0.00000  Uiso   1.00
C251   C     0.57930   0.57099   0.85833   0.00000  Uiso   1.00
C252   C     0.55170   0.53895   0.81978   0.00000  Uiso   1.00
C253   C     0.56625   0.51289   0.72938   0.00000  Uiso   1.00
H254   H     0.67650   0.61833   0.82509   0.00000  Uiso   1.00
H255   H     0.71563   0.60513   0.02222   0.00000  Uiso   1.00
H256   H     0.65918   0.69619   0.75966   0.00000  Uiso   1.00
H257   H     0.66606   0.55532   0.67937   0.00000  Uiso   1.00
H258   H     0.74108   0.58794   0.26282   0.00000  Uiso   1.00
H259   H     0.62204   0.77995   0.70916   0.00000  Uiso   1.00
H260   H     0.63654   0.48289   0.53984   0.00000  Uiso   1.00
H261   H     0.53825   0.59855   0.99487   0.00000  Uiso   1.00
H262   H     0.56980   0.58426   0.20132   0.00000  Uiso   1.00
H263   H     0.51334   0.67533   0.93876   0.00000  Uiso   1.00
H264   H     0.52022   0.53445   0.85847   0.00000  Uiso   1.00
H265   H     0.62271   0.57100   0.40819   0.00000  Uiso   1.00
H266   H     0.50367   0.76301   0.85452   0.00000  Uiso   1.00
H267   H     0.51817   0.46596   0.68521   0.00000  Uiso   1.00
O268   O     0.70514   0.57044   0.46826   0.00000  Uiso   1.00
O269   O     0.54897   0.82235   0.74186   0.00000  Uiso   1.00
O270   O     0.56799   0.43262   0.51972   0.00000  Uiso   1.00
N271   N     0.70889   0.58591   0.26869   0.00000  Uiso   1.00
N272   N     0.59760   0.76543   0.75107   0.00000  Uiso   1.00
N273   N     0.61115   0.48771   0.59275   0.00000  Uiso   1.00
N274   N     0.64520   0.57679   0.34691   0.00000  Uiso   1.00
N275   N     0.53391   0.75631   0.82929   0.00000  Uiso   1.00
N276   N     0.54746   0.47860   0.67097   0.00000  Uiso   1.00
C277   C     0.85517   0.88620   0.36399   0.00000  Uiso   1.00
C278   C     0.85308   0.89612   0.49463   0.00000  Uiso   1.00
C279   C     0.81585   0.89938   0.56091   0.00000  Uiso   1.00
C280   C     0.82074   0.90868   0.67907   0.00000  Uiso   1.00
C281   C     0.81130   0.92318   0.87435   0.00000  Uiso   1.00
C282   C     0.88375   0.84664   0.35199   0.00000  Uiso   1.00
C283   C     0.87230   0.80830   0.29832   0.00000  Uiso   1.00
C284   C     0.90302   0.77595   0.29640   0.00000  Uiso   1.00
C285   C     0.94121   0.71363   0.27014   0.00000  Uiso   1.00
C286   C     0.88001   0.92318   0.30837   0.00000  Uiso   1.00
C287   C     0.86543   0.94919   0.21801   0.00000  Uiso   1.00
C288   C     0.89300   0.98128   0.17933   0.00000  Uiso   1.00
C289   C     0.92538   0.03781   0.08535   0.00000  Uiso   1.00
C290   C     0.93007   0.89692   0.45597   0.00000  Uiso   1.00
C291   C     0.89377   0.90194   0.54459   0.00000  Uiso   1.00
C292   C     0.89872   0.91124   0.66268   0.00000  Uiso   1.00
C293   C     0.86149   0.91451   0.72913   0.00000  Uiso   1.00
C294   C     0.92443   0.85246   0.40195   0.00000  Uiso   1.00
C295   C     0.95517   0.82016   0.40009   0.00000  Uiso   1.00
C296   C     0.94378   0.78178   0.34644   0.00000  Uiso   1.00
C297   C     0.92070   0.92901   0.35833   0.00000  Uiso   1.00
C298   C     0.94830   0.96105   0.31978   0.00000  Uiso   1.00
C299   C     0.93375   0.98711   0.22938   0.00000  Uiso   1.00
H300   H     0.82350   0.88167   0.32509   0.00000  Uiso   1.00
H301   H     0.78437   0.89487   0.52222   0.00000  Uiso   1.00
H302   H     0.84082   0.80381   0.25966   0.00000  Uiso   1.00
H303   H     0.83394   0.94468   0.17937   0.00000  Uiso   1.00
H304   H     0.75892   0.91206   0.76282   0.00000  Uiso   1.00
H305   H     0.87796   0.72005   0.20916   0.00000  Uiso   1.00
H306   H     0.86346   0.01711   0.03984   0.00000  Uiso   1.00
H307   H     0.96175   0.90145   0.49487   0.00000  Uiso   1.00
H308   H     0.93020   0.91574   0.70132   0.00000  Uiso   1.00
H309   H     0.98666   0.82467   0.43876   0.00000  Uiso   1.00
H310   H     0.97978   0.96555   0.35847   0.00000  Uiso   1.00
H311   H     0.87729   0.92900   0.90819   0.00000  Uiso   1.00
H312   H     0.99633   0.73699   0.35452   0.00000  Uiso   1.00
H313   H     0.98183   0.03404   0.18521   0.00000  Uiso   1.00
O314   O     0.79486   0.92956   0.96826   0.00000  Uiso   1.00
O315   O     0.95103   0.67765   0.24186   0.00000  Uiso   1.00
O316   O     0.93201   0.06738   0.01972   0.00000  Uiso   1.00
N317   N     0.79111   0.91409   0.76869   0.00000  Uiso   1.00
N318   N     0.90240   0.73457   0.25107   0.00000  Uiso   1.00
N319   N     0.88885   0.01229   0.09275   0.00000  Uiso   1.00
N320   N     0.85480   0.92321   0.84691   0.00000  Uiso   1.00
N321   N     0.96609   0.74369   0.32929   0.00000  Uiso   1.00
N322   N     0.95254   0.02140   0.17097   0.00000  Uiso   1.00
C323   C     0.35517   0.38620   0.86399   0.00000  Uiso   1.00
C324   C     0.35308   0.39612   0.99463   0.00000  Uiso   1.00
C325   C     0.31585   0.39938   0.06091   0.00000  Uiso   1.00
C326   C     0.32074   0.40868   0.17907   0.00000  Uiso   1.00
C327   C     0.31130   0.42318   0.37435   0.00000  Uiso   1.00
C328   C     0.38375   0.34664   0.85199   0.00000  Uiso   1.00
C329   C     0.37230   0.30830   0.79832   0.00000  Uiso   1.00
C330   C     0.40302   0.27595   0.79640   0.00000  Uiso   1.00
C331   C     0.44121   0.21363   0.77014   0.00000  Uiso   1.00
C332   C     0.38001   0.42318   0.80837   0.00000  Uiso   1.00
C333   C     0.36543   0.44919   0.71801   0.00000  Uiso   1.00
C334   C     0.39300   0.48128   0.67933   0.00000  Uiso   1.00
C335   C     0.42538   0.53781   0.58535   0.00000  Uiso   1.00
C336   C     0.43007   0.39692   0.95597   0.00000  Uiso   1.00
C337   C     0.39377   0.40194   0.04459   0.00000  Uiso   1.00
C338   C     0.39872   0.41124   0.16268   0.00000  Uiso   1.00
C339   C     0.36149   0.41451   0.22913   0.00000  Uiso   1.00
C340   C     0.42443   0.35246   0.90195   0.00000  Uiso   1.00
C341   C     0.45517   0.32016   0.90009   0.00000  Uiso   1.00
C342   C     0.44378   0.28178   0.84644   0.00000  Uiso   1.00
C343   C     0.42070   0.42901   0.85833   0.00000  Uiso   1.00
C344   C     0.44830   0.46105   0.81978   0.00000  Uiso   1.00
C345   C     0.43375   0.48711   0.72938   0.00000  Uiso   1.00
H346   H     0.32350   0.38167   0.82509   0.00000  Uiso   1.00
H347   H     0.28437   0.39487   0.02222   0.00000  Uiso   1.00
H348   H     0.34082   0.30381   0.75966   0.00000  Uiso   1.00
H349   H     0.33394   0.44468   0.67937   0.00000  Uiso   1.00
H350   H     0.25892   0.41206   0.26282   0.00000  Uiso   1.00
H351   H     0.37796   0.22005   0.70916   0.00000  Uiso   1.00
H352   H     0.36346   0.51711   0.53984   0.00000  Uiso   1.00
H353   H     0.46175   0.40145   0.99487   0.00000  Uiso   1.00
H354   H     0.43020   0.41574   0.20132   0.00000  Uiso   1.00
H355   H     0.48666   0.32467   0.93876   0.00000  Uiso   1.00
H356   H     0.47978   0.46555   0.85847   0.00000  Uiso   1.00
H357   H     0.37729   0.42900   0.40819   0.00000  Uiso   1.00
H358   H     0.49633   0.23699   0.85452   0.00000  Uiso   1.00
H359   H     0.48183   0.53404   0.68521   0.00000  Uiso   1.00
O360   O     0.29486   0.42956   0.46826   0.00000  Uiso   1.00
O361   O     0.45103   0.17765   0.74186   0.00000  Uiso   1.00
O362   O     0.43201   0.56738   0.51972   0.00000  Uiso   1.00
N363   N     0.29111   0.41409   0.26869   0.00000  Uiso   1.00
N364   N     0.40240   0.23457   0.75107   0.00000  Uiso   1.00
N365   N     0.38885   0.51229   0.59275   0.00000  Uiso   1.00
N366   N     0.35480   0.42321   0.34691   0.00000  Uiso   1.00
N367   N     0.46609   0.24369   0.82929   0.00000  Uiso   1.00
N368   N     0.45254   0.52140   0.67097   0.00000  Uiso   1.00
C369   C     0.61380   0.14483   0.11399   0.00000  Uiso   1.00
C370   C     0.60388   0.14692   0.24463   0.00000  Uiso   1.00
C371   C     0.60062   0.18415   0.31091   0.00000  Uiso   1.00
C372   C     0.59132   0.17926   0.42907   0.00000  Uiso   1.00
C373   C     0.57682   0.18870   0.62435   0.00000  Uiso   1.00
C374   C     0.65336   0.11625   0.10199   0.00000  Uiso   1.00
C375   C     0.69170   0.12770   0.04832   0.00000  Uiso   1.00
C376   C     0.72405   0.09698   0.04640   0.00000  Uiso   1.00
C377   C     0.78637   0.05879   0.02014   0.00000  Uiso   1.00
C378   C     0.57682   0.11999   0.05837   0.00000  Uiso   1.00
C379   C     0.55081   0.13457   0.96801   0.00000  Uiso   1.00
C380   C     0.51872   0.10700   0.92933   0.00000  Uiso   1.00
C381   C     0.46219   0.07462   0.83535   0.00000  Uiso   1.00
C382   C     0.60308   0.06993   0.20597   0.00000  Uiso   1.00
C383   C     0.59806   0.10623   0.29459   0.00000  Uiso   1.00
C384   C     0.58876   0.10128   0.41268   0.00000  Uiso   1.00
C385   C     0.58549   0.13851   0.47913   0.00000  Uiso   1.00
C386   C     0.64754   0.07557   0.15195   0.00000  Uiso   1.00
C387   C     0.67984   0.04483   0.15009   0.00000  Uiso   1.00
C388   C     0.71822   0.05622   0.09644   0.00000  Uiso   1.00
C389   C     0.57099   0.07930   0.10833   0.00000  Uiso   1.00
C390   C     0.53895   0.05170   0.06978   0.00000  Uiso   1.00
C391   C     0.51289   0.06625   0.97938   0.00000  Uiso   1.00
H392   H     0.61833   0.17650   0.07509   0.00000  Uiso   1.00
H393   H     0.60513   0.21563   0.27222   0.00000  Uiso   1.00
H394   H     0.69619   0.15918   0.00966   0.00000  Uiso   1.00
H395   H     0.55532   0.16606   0.92937   0.00000  Uiso   1.00
H396   H     0.58794   0.24108   0.51282   0.00000  Uiso   1.00
H397   H     0.77995   0.12204   0.95916   0.00000  Uiso   1.00
H398   H     0.48289   0.13654   0.78984   0.00000  Uiso   1.00
H399   H     0.59855   0.03825   0.24487   0.00000  Uiso   1.00
H400   H     0.58426   0.06980   0.45132   0.00000  Uiso   1.00
H401   H     0.67533   0.01334   0.18876   0.00000  Uiso   1.00
H402   H     0.53445   0.02022   0.10847   0.00000  Uiso   1.00
H403   H     0.57100   0.12271   0.65819   0.00000  Uiso   1.00
H404   H     0.76301   0.00367   0.10452   0.00000  Uiso   1.00
H405   H     0.46596   0.01817   0.93521   0.00000  Uiso   1.00
O406   O     0.57044   0.20514   0.71826   0.00000  Uiso   1.00
O407   O     0.82235   0.04897   0.99186   0.00000  Uiso   1.00
O408   O     0.43262   0.06799   0.76972   0.00000  Uiso   1.00
N409   N     0.58591   0.20889   0.51869   0.00000  Uiso   1.00
N410   N     0.76543   0.09760   0.00107   0.00000  Uiso   1.00
N411   N     0.48771   0.11115   0.84275   0.00000  Uiso   1.00
N412   N     0.57679   0.14520   0.59691   0.00000  Uiso   1.00
N413   N     0.75631   0.03391   0.07929   0.00000  Uiso   1.00
N414   N     0.47860   0.04746   0.92097   0.00000  Uiso   1.00
C415   C     0.11380   0.64483   0.61399   0.00000  Uiso   1.00
C416   C     0.10388   0.64692   0.74463   0.00000  Uiso   1.00
C417   C     0.10062   0.68415   0.81091   0.00000  Uiso   1.00
C418   C     0.09132   0.67926   0.92907   0.00000  Uiso   1.00
C419   C     0.07682   0.68870   0.12435   0.00000  Uiso   1.00
C420   C     0.15336   0.61625   0.60199   0.00000  Uiso   1.00
C421   C     0.19170   0.62770   0.54832   0.00000  Uiso   1.00
C422   C     0.22405   0.59698   0.54640   0.00000  Uiso   1.00
C423   C     0.28637   0.55879   0.52014   0.00000  Uiso   1.00
C424   C     0.07682   0.61999   0.55837   0.00000  Uiso   1.00
C425   C     0.05081   0.63457   0.46801   0.00000  Uiso   1.00
C426   C     0.01872   0.60700   0.42933   0.00000  Uiso   1.00
C427   C     0.96219   0.57462   0.33535   0.00000  Uiso   1.00
C428   C     0.10308   0.56993   0.70597   0.00000  Uiso   1.00
C429   C     0.09806   0.60623   0.79459   0.00000  Uiso   1.00
C430   C     0.08876   0.60128   0.91268   0.00000  Uiso   1.00
C431   C     0.08549   0.63851   0.97913   0.00000  Uiso   1.00
C432   C     0.14754   0.57557   0.65195   0.00000  Uiso   1.00
C433   C     0.17984   0.54483   0.65009   0.00000  Uiso   1.00
C434   C     0.21822   0.55622   0.59644   0.00000  Uiso   1.00
C435   C     0.07099   0.57930   0.60833   0.00000  Uiso   1.00
C436   C     0.03895   0.55170   0.56978   0.00000  Uiso   1.00
C437   C     0.01289   0.56625   0.47938   0.00000  Uiso   1.00
H438   H     0.11833   0.67650   0.57509   0.00000  Uiso   1.00
H439   H     0.10513   0.71563   0.77222   0.00000  Uiso   1.00
H440   H     0.19619   0.65918   0.50966   0.00000  Uiso   1.00
H441   H     0.05532   0.66606   0.42937   0.00000  Uiso   1.00
H442   H     0.08794   0.74108   0.01282   0.00000  Uiso   1.00
H443   H     0.27995   0.62204   0.45916   0.00000  Uiso   1.00
H444   H     0.98289   0.63654   0.28984   0.00000  Uiso   1.00
H445   H     0.09855   0.53825   0.74487   0.00000  Uiso   1.00
H446   H     0.08426   0.56980   0.95132   0.00000  Uiso   1.00
H447   H     0.17533   0.51334   0.68876   0.00000  Uiso   1.00
H448   H     0.03445   0.52022   0.60847   0.00000  Uiso   1.00
H449   H     0.07100   0.62271   0.15819   0.00000  Uiso   1.00
H450   H     0.26301   0.50367   0.60452   0.00000  Uiso   1.00
H451   H     0.96596   0.51817   0.43521   0.00000  Uiso   1.00
O452   O     0.07044   0.70514   0.21826   0.00000  Uiso   1.00
O453   O     0.32235   0.54897   0.49186   0.00000  Uiso   1.00
O454   O     0.93262   0.56799   0.26972   0.00000  Uiso   1.00
N455   N     0.08591   0.70889   0.01869   0.00000  Uiso   1.00
N456   N     0.26543   0.59760   0.50107   0.00000  Uiso   1.00
N457   N     0.98771   0.61115   0.34275   0.00000  Uiso   1.00
N458   N     0.07679   0.64520   0.09691   0.00000  Uiso   1.00
N459   N     0.25631   0.53391   0.57929   0.00000  Uiso   1.00
N460   N     0.97860   0.54746   0.42097   0.00000  Uiso   1.00
C461   C     0.38620   0.85517   0.11399   0.00000  Uiso   1.00
C462   C     0.39612   0.85308   0.24463   0.00000  Uiso   1.00
C463   C     0.39938   0.81585   0.31091   0.00000  Uiso   1.00
C464   C     0.40868   0.82074   0.42907   0.00000  Uiso   1.00
C465   C     0.42318   0.81130   0.62435   0.00000  Uiso   1.00
C466   C     0.34664   0.88375   0.10199   0.00000  Uiso   1.00
C467   C     0.30830   0.87230   0.04832   0.00000  Uiso   1.00
C468   C     0.27595   0.90302   0.04640   0.00000  Uiso   1.00
C469   C     0.21363   0.94121   0.02014   0.00000  Uiso   1.00
C470   C     0.42318   0.88001   0.05837   0.00000  Uiso   1.00
C471   C     0.44919   0.86543   0.96801   0.00000  Uiso   1.00
C472   C     0.48128   0.89300   0.92933   0.00000  Uiso   1.00
C473   C     0.53781   0.92538   0.83535   0.00000  Uiso   1.00
C474   C     0.39692   0.93007   0.20597   0.00000  Uiso   1.00
C475   C     0.40194   0.89377   0.29459   0.00000  Uiso   1.00
C476   C     0.41124   0.89872   0.41268   0.00000  Uiso   1.00
C477   C     0.41451   0.86149   0.47913   0.00000  Uiso   1.00
C478   C     0.35246   0.92443   0.15195   0.00000  Uiso   1.00
C479   C     0.32016   0.95517   0.15009   0.00000  Uiso   1.00
C480   C     0.28178   0.94378   0.09644   0.00000  Uiso   1.00
C481   C     0.42901   0.92070   0.10833   0.00000  Uiso   1.00
C482   C     0.46105   0.94830   0.06978   0.00000  Uiso   1.00
C483   C     0.48711   0.93375   0.97938   0.00000  Uiso   1.00
H484   H     0.38167   0.82350   0.07509   0.00000  Uiso   1.00
H485   H     0.39487   0.78437   0.27222   0.00000  Uiso   1.00
H486   H     0.30381   0.84082   0.00966   0.00000  Uiso   1.00
H487   H     0.44468   0.83394   0.92937   0.00000  Uiso   1.00
H488   H     0.41206   0.75892   0.51282   0.00000  Uiso   1.00
H489   H     0.22005   0.87796   0.95916   0.00000  Uiso   1.00
H490   H     0.51711   0.86346   0.78984   0.00000  Uiso   1.00
H491   H     0.40145   0.96175   0.24487   0.00000  Uiso   1.00
H492   H     0.41574   0.93020   0.45132   0.00000  Uiso   1.00
H493   H     0.32467   0.98666   0.18876   0.00000  Uiso   1.00
H494   H     0.46555   0.97978   0.10847   0.00000  Uiso   1.00
H495   H     0.42900   0.87729   0.65819   0.00000  Uiso   1.00
H496   H     0.23699   0.99633   0.10452   0.00000  Uiso   1.00
H497   H     0.53404   0.98183   0.93521   0.00000  Uiso   1.00
O498   O     0.42956   0.79486   0.71826   0.00000  Uiso   1.00
O499   O     0.17765   0.95103   0.99186   0.00000  Uiso   1.00
O500   O     0.56738   0.93201   0.76972   0.00000  Uiso   1.00
N501   N     0.41409   0.79111   0.51869   0.00000  Uiso   1.00
N502   N     0.23457   0.90240   0.00107   0.00000  Uiso   1.00
N503   N     0.51229   0.88885   0.84275   0.00000  Uiso   1.00
N504   N     0.42321   0.85480   0.59691   0.00000  Uiso   1.00
N505   N     0.24369   0.96609   0.07929   0.00000  Uiso   1.00
N506   N     0.52140   0.95254   0.92097   0.00000  Uiso   1.00
C507   C     0.88620   0.35517   0.61399   0.00000  Uiso   1.00
C508   C     0.89612   0.35308   0.74463   0.00000  Uiso   1.00
C509   C     0.89938   0.31585   0.81091   0.00000  Uiso   1.00
C510   C     0.90868   0.32074   0.92907   0.00000  Uiso   1.00
C511   C     0.92318   0.31130   0.12435   0.00000  Uiso   1.00
C512   C     0.84664   0.38375   0.60199   0.00000  Uiso   1.00
C513   C     0.80830   0.37230   0.54832   0.00000  Uiso   1.00
C514   C     0.77595   0.40302   0.54640   0.00000  Uiso   1.00
C515   C     0.71363   0.44121   0.52014   0.00000  Uiso   1.00
C516   C     0.92318   0.38001   0.55837   0.00000  Uiso   1.00
C517   C     0.94919   0.36543   0.46801   0.00000  Uiso   1.00
C518   C     0.98128   0.39300   0.42933   0.00000  Uiso   1.00
C519   C     0.03781   0.42538   0.33535   0.00000  Uiso   1.00
C520   C     0.89692   0.43007   0.70597   0.00000  Uiso   1.00
C521   C     0.90194   0.39377   0.79459   0.00000  Uiso   1.00
C522   C     0.91124   0.39872   0.91268   0.00000  Uiso   1.00
C523   C     0.91451   0.36149   0.97913   0.00000  Uiso   1.00
C524   C     0.85246   0.42443   0.65195   0.00000  Uiso   1.00
C525   C     0.82016   0.45517   0.65009   0.00000  Uiso   1.00
C526   C     0.78178   0.44378   0.59644   0.00000  Uiso   1.00
C527   C     0.92901   0.42070   0.60833   0.00000  Uiso   1.00
C528   C     0.96105   0.44830   0.56978   0.00000  Uiso   1.00
C529   C     0.98711   0.43375   0.47938   0.00000  Uiso   1.00
H530   H     0.88167   0.32350   0.57509   0.00000  Uiso   1.00
H531   H     0.89487   0.28437   0.77222   0.00000  Uiso   1.00
H532   H     0.80381   0.34082   0.50966   0.00000  Uiso   1.00
H533   H     0.94468   0.33394   0.42937   0.00000  Uiso   1.00
H534   H     0.91206   0.25892   0.01282   0.00000  Uiso   1.00
H535   H     0.72005   0.37796   0.45916   0.00000  Uiso   1.00
H536   H     0.01711   0.36346   0.28984   0.00000  Uiso   1.00
H537   H     0.90145   0.46175   0.74487   0.00000  Uiso   1.00
H538   H     0.91574   0.43020   0.95132   0.00000  Uiso   1.00
H539   H     0.82467   0.48666   0.68876   0.00000  Uiso   1.00
H540   H     0.96555   0.47978   0.60847   0.00000  Uiso   1.00
H541   H     0.92900   0.37729   0.15819   0.00000  Uiso   1.00
H542   H     0.73699   0.49633   0.60452   0.00000  Uiso   1.00
H543   H     0.03404   0.48183   0.43521   0.00000  Uiso   1.00
O544   O     0.92956   0.29486   0.21826   0.00000  Uiso   1.00
O545   O     0.67765   0.45103   0.49186   0.00000  Uiso   1.00
O546   O     0.06738   0.43201   0.26972   0.00000  Uiso   1.00
N547   N     0.91409   0.29111   0.01869   0.00000  Uiso   1.00
N548   N     0.73457   0.40240   0.50107   0.00000  Uiso   1.00
N549   N     0.01229   0.38885   0.34275   0.00000  Uiso   1.00
N550   N     0.92321   0.35480   0.09691   0.00000  Uiso   1.00
N551   N     0.74369   0.46609   0.57929   0.00000  Uiso   1.00
N552   N     0.02140   0.45254   0.42097   0.00000  Uiso   1.00
C553   C     0.35517   0.11380   0.38601   0.00000  Uiso   1.00
C554   C     0.35308   0.10388   0.25537   0.00000  Uiso   1.00
C555   C     0.31585   0.10062   0.18909   0.00000  Uiso   1.00
C556   C     0.32074   0.09132   0.07093   0.00000  Uiso   1.00
C557   C     0.31130   0.07682   0.87565   0.00000  Uiso   1.00
C558   C     0.38375   0.15336   0.39801   0.00000  Uiso   1.00
C559   C     0.37230   0.19170   0.45168   0.00000  Uiso   1.00
C560   C     0.40302   0.22405   0.45360   0.00000  Uiso   1.00
C561   C     0.44121   0.28637   0.47986   0.00000  Uiso   1.00
C562   C     0.38001   0.07682   0.44163   0.00000  Uiso   1.00
C563   C     0.36543   0.05081   0.53199   0.00000  Uiso   1.00
C564   C     0.39300   0.01872   0.57067   0.00000  Uiso   1.00
C565   C     0.42538   0.96219   0.66465   0.00000  Uiso   1.00
C566   C     0.43007   0.10308   0.29403   0.00000  Uiso   1.00
C567   C     0.39377   0.09806   0.20541   0.00000  Uiso   1.00
C568   C     0.39872   0.08876   0.08732   0.00000  Uiso   1.00
C569   C     0.36149   0.08549   0.02087   0.00000  Uiso   1.00
C570   C     0.42443   0.14754   0.34805   0.00000  Uiso   1.00
C571   C     0.45517   0.17984   0.34991   0.00000  Uiso   1.00
C572   C     0.44378   0.21822   0.40356   0.00000  Uiso   1.00
C573   C     0.42070   0.07099   0.39167   0.00000  Uiso   1.00
C574   C     0.44830   0.03895   0.43022   0.00000  Uiso   1.00
C575   C     0.43375   0.01289   0.52062   0.00000  Uiso   1.00
H576   H     0.32350   0.11833   0.42491   0.00000  Uiso   1.00
H577   H     0.28437   0.10513   0.22778   0.00000  Uiso   1.00
H578   H     0.34082   0.19619   0.49034   0.00000  Uiso   1.00
H579   H     0.33394   0.05532   0.57063   0.00000  Uiso   1.00
H580   H     0.25892   0.08794   0.98718   0.00000  Uiso   1.00
H581   H     0.37796   0.27995   0.54084   0.00000  Uiso   1.00
H582   H     0.36346   0.98289   0.71016   0.00000  Uiso   1.00
H583   H     0.46175   0.09855   0.25513   0.00000  Uiso   1.00
H584   H     0.43020   0.08426   0.04868   0.00000  Uiso   1.00
H585   H     0.48666   0.17533   0.31124   0.00000  Uiso   1.00
H586   H     0.47978   0.03445   0.39153   0.00000  Uiso   1.00
H587   H     0.37729   0.07100   0.84181   0.00000  Uiso   1.00
H588   H     0.49633   0.26301   0.39548   0.00000  Uiso   1.00
H589   H     0.48183   0.96596   0.56479   0.00000  Uiso   1.00
O590   O     0.29486   0.07044   0.78174   0.00000  Uiso   1.00
O591   O     0.45103   0.32235   0.50814   0.00000  Uiso   1.00
O592   O     0.43201   0.93262   0.73028   0.00000  Uiso   1.00
N593   N     0.29111   0.08591   0.98131   0.00000  Uiso   1.00
N594   N     0.40240   0.26543   0.49893   0.00000  Uiso   1.00
N595   N     0.38885   0.98771   0.65725   0.00000  Uiso   1.00
N596   N     0.35480   0.07679   0.90309   0.00000  Uiso   1.00
N597   N     0.46609   0.25631   0.42071   0.00000  Uiso   1.00
N598   N     0.45254   0.97860   0.57903   0.00000  Uiso   1.00
C599   C     0.85517   0.61380   0.88601   0.00000  Uiso   1.00
C600   C     0.85308   0.60388   0.75537   0.00000  Uiso   1.00
C601   C     0.81585   0.60062   0.68909   0.00000  Uiso   1.00
C602   C     0.82074   0.59132   0.57093   0.00000  Uiso   1.00
C603   C     0.81130   0.57682   0.37565   0.00000  Uiso   1.00
C604   C     0.88375   0.65336   0.89801   0.00000  Uiso   1.00
C605   C     0.87230   0.69170   0.95168   0.00000  Uiso   1.00
C606   C     0.90302   0.72405   0.95360   0.00000  Uiso   1.00
C607   C     0.94121   0.78637   0.97986   0.00000  Uiso   1.00
C608   C     0.88001   0.57682   0.94163   0.00000  Uiso   1.00
C609   C     0.86543   0.55081   0.03199   0.00000  Uiso   1.00
C610   C     0.89300   0.51872   0.07067   0.00000  Uiso   1.00
C611   C     0.92538   0.46219   0.16465   0.00000  Uiso   1.00
C612   C     0.93007   0.60308   0.79403   0.00000  Uiso   1.00
C613   C     0.89377   0.59806   0.70541   0.00000  Uiso   1.00
C614   C     0.89872   0.58876   0.58732   0.00000  Uiso   1.00
C615   C     0.86149   0.58549   0.52087   0.00000  Uiso   1.00
C616   C     0.92443   0.64754   0.84805   0.00000  Uiso   1.00
C617   C     0.95517   0.67984   0.84991   0.00000  Uiso   1.00
C618   C     0.94378   0.71822   0.90356   0.00000  Uiso   1.00
C619   C     0.92070   0.57099   0.89167   0.00000  Uiso   1.00
C620   C     0.94830   0.53895   0.93022   0.00000  Uiso   1.00
C621   C     0.93375   0.51289   0.02062   0.00000  Uiso   1.00
H622   H     0.82350   0.61833   0.92491   0.00000  Uiso   1.00
H623   H     0.78437   0.60513   0.72778   0.00000  Uiso   1.00
H624   H     0.84082   0.69619   0.99034   0.00000  Uiso   1.00
H625   H     0.83394   0.55532   0.07063   0.00000  Uiso   1.00
H626   H     0.75892   0.58794   0.48718   0.00000  Uiso   1.00
H627   H     0.87796   0.77995   0.04084   0.00000  Uiso   1.00
H628   H     0.86346   0.48289   0.21016   0.00000  Uiso   1.00
H629   H     0.96175   0.59855   0.75513   0.00000  Uiso   1.00
H630   H     0.93020   0.58426   0.54868   0.00000  Uiso   1.00
H631   H     0.98666   0.67533   0.81124   0.00000  Uiso   1.00
H632   H     0.97978   0.53445   0.89153   0.00000  Uiso   1.00
H633   H     0.87729   0.57100   0.34181   0.00000  Uiso   1.00
H634   H     0.99633   0.76301   0.89548   0.00000  Uiso   1.00
H635   H     0.98183   0.46596   0.06479   0.00000  Uiso   1.00
O636   O     0.79486   0.57044   0.28174   0.00000  Uiso   1.00
O637   O     0.95103   0.82235   0.00814   0.00000  Uiso   1.00
O638   O     0.93201   0.43262   0.23028   0.00000  Uiso   1.00
N639   N     0.79111   0.58591   0.48131   0.00000  Uiso   1.00
N640   N     0.90240   0.76543   0.99893   0.00000  Uiso   1.00
N641   N     0.88885   0.48771   0.15725   0.00000  Uiso   1.00
N642   N     0.85480   0.57679   0.40309   0.00000  Uiso   1.00
N643   N     0.96609   0.75631   0.92071   0.00000  Uiso   1.00
N644   N     0.95254   0.47860   0.07903   0.00000  Uiso   1.00
C645   C     0.64483   0.88620   0.38601   0.00000  Uiso   1.00
C646   C     0.64692   0.89612   0.25537   0.00000  Uiso   1.00
C647   C     0.68415   0.89938   0.18909   0.00000  Uiso   1.00
C648   C     0.67926   0.90868   0.07093   0.00000  Uiso   1.00
C649   C     0.68870   0.92318   0.87565   0.00000  Uiso   1.00
C650   C     0.61625   0.84664   0.39801   0.00000  Uiso   1.00
C651   C     0.62770   0.80830   0.45168   0.00000  Uiso   1.00
C652   C     0.59698   0.77595   0.45360   0.00000  Uiso   1.00
C653   C     0.55879   0.71363   0.47986   0.00000  Uiso   1.00
C654   C     0.61999   0.92318   0.44163   0.00000  Uiso   1.00
C655   C     0.63457   0.94919   0.53199   0.00000  Uiso   1.00
C656   C     0.60700   0.98128   0.57067   0.00000  Uiso   1.00
C657   C     0.57462   0.03781   0.66465   0.00000  Uiso   1.00
C658   C     0.56993   0.89692   0.29403   0.00000  Uiso   1.00
C659   C     0.60623   0.90194   0.20541   0.00000  Uiso   1.00
C660   C     0.60128   0.91124   0.08732   0.00000  Uiso   1.00
C661   C     0.63851   0.91451   0.02087   0.00000  Uiso   1.00
C662   C     0.57557   0.85246   0.34805   0.00000  Uiso   1.00
C663   C     0.54483   0.82016   0.34991   0.00000  Uiso   1.00
C664   C     0.55622   0.78178   0.40356   0.00000  Uiso   1.00
C665   C     0.57930   0.92901   0.39167   0.00000  Uiso   1.00
C666   C     0.55170   0.96105   0.43022   0.00000  Uiso   1.00
C667   C     0.56625   0.98711   0.52062   0.00000  Uiso   1.00
H668   H     0.67650   0.88167   0.42491   0.00000  Uiso   1.00
H669   H     0.71563   0.89487   0.22778   0.00000  Uiso   1.00
H670   H     0.65918   0.80381   0.49034   0.00000  Uiso   1.00
H671   H     0.66606   0.94468   0.57063   0.00000  Uiso   1.00
H672   H     0.74108   0.91206   0.98718   0.00000  Uiso   1.00
H673   H     0.62204   0.72005   0.54084   0.00000  Uiso   1.00
H674   H     0.63654   0.01711   0.71016   0.00000  Uiso   1.00
H675   H     0.53825   0.90145   0.25513   0.00000  Uiso   1.00
H676   H     0.56980   0.91574   0.04868   0.00000  Uiso   1.00
H677   H     0.51334   0.82467   0.31124   0.00000  Uiso   1.00
H678   H     0.52022   0.96555   0.39153   0.00000  Uiso   1.00
H679   H     0.62271   0.92900   0.84181   0.00000  Uiso   1.00
H680   H     0.50367   0.73699   0.39548   0.00000  Uiso   1.00
H681   H     0.51817   0.03404   0.56479   0.00000  Uiso   1.00
O682   O     0.70514   0.92956   0.78174   0.00000  Uiso   1.00
O683   O     0.54897   0.67765   0.50814   0.00000  Uiso   1.00
O684   O     0.56799   0.06738   0.73028   0.00000  Uiso   1.00
N685   N     0.70889   0.91409   0.98131   0.00000  Uiso   1.00
N686   N     0.59760   0.73457   0.49893   0.00000  Uiso   1.00
N687   N     0.61115   0.01229   0.65725   0.00000  Uiso   1.00
N688   N     0.64520   0.92321   0.90309   0.00000  Uiso   1.00
N689   N     0.53391   0.74369   0.42071   0.00000  Uiso   1.00
N690   N     0.54746   0.02140   0.57903   0.00000  Uiso   1.00
C691   C     0.14483   0.38620   0.88601   0.00000  Uiso   1.00
C692   C     0.14692   0.39612   0.75537   0.00000  Uiso   1.00
C693   C     0.18415   0.39938   0.68909   0.00000  Uiso   1.00
C694   C     0.17926   0.40868   0.57093   0.00000  Uiso   1.00
C695   C     0.18870   0.42318   0.37565   0.00000  Uiso   1.00
C696   C     0.11625   0.34664   0.89801   0.00000  Uiso   1.00
C697   C     0.12770   0.30830   0.95168   0.00000  Uiso   1.00
C698   C     0.09698   0.27595   0.95360   0.00000  Uiso   1.00
C699   C     0.05879   0.21363   0.97986   0.00000  Uiso   1.00
C700   C     0.11999   0.42318   0.94163   0.00000  Uiso   1.00
C701   C     0.13457   0.44919   0.03199   0.00000  Uiso   1.00
C702   C     0.10700   0.48128   0.07067   0.00000  Uiso   1.00
C703   C     0.07462   0.53781   0.16465   0.00000  Uiso   1.00
C704   C     0.06993   0.39692   0.79403   0.00000  Uiso   1.00
C705   C     0.10623   0.40194   0.70541   0.00000  Uiso   1.00
C706   C     0.10128   0.41124   0.58732   0.00000  Uiso   1.00
C707   C     0.13851   0.41451   0.52087   0.00000  Uiso   1.00
C708   C     0.07557   0.35246   0.84805   0.00000  Uiso   1.00
C709   C     0.04483   0.32016   0.84991   0.00000  Uiso   1.00
C710   C     0.05622   0.28178   0.90356   0.00000  Uiso   1.00
C711   C     0.07930   0.42901   0.89167   0.00000  Uiso   1.00
C712   C     0.05170   0.46105   0.93022   0.00000  Uiso   1.00
C713   C     0.06625   0.48711   0.02062   0.00000  Uiso   1.00
H714   H     0.17650   0.38167   0.92491   0.00000  Uiso   1.00
H715   H     0.21563   0.39487   0.72778   0.00000  Uiso   1.00
H716   H     0.15918   0.30381   0.99034   0.00000  Uiso   1.00
H717   H     0.16606   0.44468   0.07063   0.00000  Uiso   1.00
H718   H     0.24108   0.41206   0.48718   0.00000  Uiso   1.00
H719   H     0.12204   0.22005   0.04084   0.00000  Uiso   1.00
H720   H     0.13654   0.51711   0.21016   0.00000  Uiso   1.00
H721   H     0.03825   0.40145   0.75513   0.00000  Uiso   1.00
H722   H     0.06980   0.41574   0.54868   0.00000  Uiso   1.00
H723   H     0.01334   0.32467   0.81124   0.00000  Uiso   1.00
H724   H     0.02022   0.46555   0.89153   0.00000  Uiso   1.00
H725   H     0.12271   0.42900   0.34181   0.00000  Uiso   1.00
H726   H     0.00367   0.23699   0.89548   0.00000  Uiso   1.00
H727   H     0.01817   0.53404   0.06479   0.00000  Uiso   1.00
O728   O     0.20514   0.42956   0.28174   0.00000  Uiso   1.00
O729   O     0.04897   0.17765   0.00814   0.00000  Uiso   1.00
O730   O     0.06799   0.56738   0.23028   0.00000  Uiso   1.00
N731   N     0.20889   0.41409   0.48131   0.00000  Uiso   1.00
N732   N     0.09760   0.23457   0.99893   0.00000  Uiso   1.00
N733   N     0.11115   0.51229   0.15725   0.00000  Uiso   1.00
N734   N     0.14520   0.42321   0.40309   0.00000  Uiso   1.00
N735   N     0.03391   0.24369   0.92071   0.00000  Uiso   1.00
N736   N     0.04746   0.52140   0.07903   0.00000  Uiso   1.00
