data_job_02563
_audit_creation_date              2018-12-19
_audit_creation_method            'Materials Studio'
_symmetry_space_group_name_H-M    'P1'
_symmetry_Int_Tables_number       1
_symmetry_cell_setting            triclinic
loop_
_symmetry_equiv_pos_as_xyz
  x,y,z
_cell_length_a                    26.3034
_cell_length_b                    26.3034
_cell_length_c                    17.5361
_cell_angle_alpha                 90.0000
_cell_angle_beta                  90.0000
_cell_angle_gamma                 90.0000
loop_
_atom_site_label
_atom_site_type_symbol
_atom_site_fract_x
_atom_site_fract_y
_atom_site_fract_z
_atom_site_U_iso_or_equiv
_atom_site_adp_type
_atom_site_occupancy
C1     C     0.85011   0.32777   0.07854   0.00000  Uiso   1.00
C2     C     0.88002   0.36040   0.02237   0.00000  Uiso   1.00
C3     C     0.92985   0.35205   0.99961   0.00000  Uiso   1.00
C4     C     0.95041   0.38622   0.94775   0.00000  Uiso   1.00
C5     C     0.00117   0.43065   0.86483   0.00000  Uiso   1.00
C6     C     0.83237   0.36369   0.14140   0.00000  Uiso   1.00
C7     C     0.84213   0.35810   0.21872   0.00000  Uiso   1.00
C8     C     0.82257   0.39505   0.26706   0.00000  Uiso   1.00
C9     C     0.79932   0.44457   0.36895   0.00000  Uiso   1.00
C10    C     0.80222   0.31101   0.03646   0.00000  Uiso   1.00
C11    C     0.78663   0.26113   0.02557   0.00000  Uiso   1.00
C12    C     0.74168   0.25372   0.98557   0.00000  Uiso   1.00
C13    C     0.67163   0.22145   0.92452   0.00000  Uiso   1.00
C14    C     0.79799   0.40332   0.02690   0.00000  Uiso   1.00
C15    C     0.85171   0.40143   0.99433   0.00000  Uiso   1.00
C16    C     0.87219   0.43563   0.94248   0.00000  Uiso   1.00
C17    C     0.92205   0.42733   0.91965   0.00000  Uiso   1.00
C18    C     0.80406   0.40472   0.11336   0.00000  Uiso   1.00
C19    C     0.78447   0.44168   0.16159   0.00000  Uiso   1.00
C20    C     0.79421   0.43616   0.23896   0.00000  Uiso   1.00
C21    C     0.77391   0.35204   0.00841   0.00000  Uiso   1.00
C22    C     0.72898   0.34471   0.96843   0.00000  Uiso   1.00
C23    C     0.71332   0.29483   0.95747   0.00000  Uiso   1.00
H24    H     0.87214   0.29583   0.10038   0.00000  Uiso   1.00
H25    H     0.95175   0.32029   0.02134   0.00000  Uiso   1.00
H26    H     0.86404   0.32634   0.24041   0.00000  Uiso   1.00
H27    H     0.80855   0.22939   0.04728   0.00000  Uiso   1.00
H28    H     0.02753   0.36551   0.92136   0.00000  Uiso   1.00
H29    H     0.84257   0.37827   0.38329   0.00000  Uiso   1.00
H30    H     0.72556   0.17381   0.97604   0.00000  Uiso   1.00
H31    H     0.77595   0.43527   0.00506   0.00000  Uiso   1.00
H32    H     0.85028   0.46738   0.92079   0.00000  Uiso   1.00
H33    H     0.76257   0.47343   0.13987   0.00000  Uiso   1.00
H34    H     0.70708   0.37647   0.94673   0.00000  Uiso   1.00
H35    H     0.94517   0.48490   0.83975   0.00000  Uiso   1.00
H36    H     0.76021   0.49765   0.30169   0.00000  Uiso   1.00
H37    H     0.64320   0.29320   0.89443   0.00000  Uiso   1.00
O38    O     0.03699   0.44382   0.82685   0.00000  Uiso   1.00
O39    O     0.79432   0.46055   0.43289   0.00000  Uiso   1.00
O40    O     0.64081   0.19231   0.89859   0.00000  Uiso   1.00
N41    N     0.99794   0.38920   0.91371   0.00000  Uiso   1.00
N42    N     0.82502   0.40113   0.34559   0.00000  Uiso   1.00
N43    N     0.71562   0.20998   0.96486   0.00000  Uiso   1.00
N44    N     0.95363   0.45344   0.86979   0.00000  Uiso   1.00
N45    N     0.78071   0.46537   0.30167   0.00000  Uiso   1.00
N46    N     0.67131   0.27422   0.92094   0.00000  Uiso   1.00
C47    C     0.35011   0.82777   0.57854   0.00000  Uiso   1.00
C48    C     0.38002   0.86040   0.52237   0.00000  Uiso   1.00
C49    C     0.42985   0.85205   0.49961   0.00000  Uiso   1.00
C50    C     0.45041   0.88622   0.44775   0.00000  Uiso   1.00
C51    C     0.50117   0.93065   0.36483   0.00000  Uiso   1.00
C52    C     0.33237   0.86369   0.64140   0.00000  Uiso   1.00
C53    C     0.34213   0.85810   0.71872   0.00000  Uiso   1.00
C54    C     0.32257   0.89505   0.76706   0.00000  Uiso   1.00
C55    C     0.29932   0.94457   0.86895   0.00000  Uiso   1.00
C56    C     0.30222   0.81101   0.53646   0.00000  Uiso   1.00
C57    C     0.28663   0.76113   0.52557   0.00000  Uiso   1.00
C58    C     0.24168   0.75372   0.48557   0.00000  Uiso   1.00
C59    C     0.17163   0.72145   0.42452   0.00000  Uiso   1.00
C60    C     0.29799   0.90332   0.52690   0.00000  Uiso   1.00
C61    C     0.35171   0.90143   0.49433   0.00000  Uiso   1.00
C62    C     0.37219   0.93563   0.44248   0.00000  Uiso   1.00
C63    C     0.42205   0.92733   0.41965   0.00000  Uiso   1.00
C64    C     0.30406   0.90472   0.61336   0.00000  Uiso   1.00
C65    C     0.28447   0.94168   0.66159   0.00000  Uiso   1.00
C66    C     0.29421   0.93616   0.73896   0.00000  Uiso   1.00
C67    C     0.27391   0.85204   0.50841   0.00000  Uiso   1.00
C68    C     0.22898   0.84471   0.46843   0.00000  Uiso   1.00
C69    C     0.21332   0.79483   0.45747   0.00000  Uiso   1.00
H70    H     0.37214   0.79583   0.60038   0.00000  Uiso   1.00
H71    H     0.45175   0.82029   0.52134   0.00000  Uiso   1.00
H72    H     0.36404   0.82634   0.74041   0.00000  Uiso   1.00
H73    H     0.30855   0.72939   0.54728   0.00000  Uiso   1.00
H74    H     0.52753   0.86551   0.42136   0.00000  Uiso   1.00
H75    H     0.34257   0.87827   0.88329   0.00000  Uiso   1.00
H76    H     0.22556   0.67381   0.47604   0.00000  Uiso   1.00
H77    H     0.27595   0.93527   0.50506   0.00000  Uiso   1.00
H78    H     0.35028   0.96738   0.42079   0.00000  Uiso   1.00
H79    H     0.26257   0.97343   0.63987   0.00000  Uiso   1.00
H80    H     0.20708   0.87647   0.44673   0.00000  Uiso   1.00
H81    H     0.44517   0.98490   0.33975   0.00000  Uiso   1.00
H82    H     0.26021   0.99765   0.80169   0.00000  Uiso   1.00
H83    H     0.14320   0.79320   0.39443   0.00000  Uiso   1.00
O84    O     0.53699   0.94382   0.32685   0.00000  Uiso   1.00
O85    O     0.29432   0.96055   0.93289   0.00000  Uiso   1.00
O86    O     0.14081   0.69231   0.39859   0.00000  Uiso   1.00
N87    N     0.49794   0.88920   0.41371   0.00000  Uiso   1.00
N88    N     0.32502   0.90113   0.84559   0.00000  Uiso   1.00
N89    N     0.21562   0.70998   0.46486   0.00000  Uiso   1.00
N90    N     0.45363   0.95344   0.36979   0.00000  Uiso   1.00
N91    N     0.28071   0.96537   0.80167   0.00000  Uiso   1.00
N92    N     0.17131   0.77422   0.42094   0.00000  Uiso   1.00
C93    C     0.64989   0.17223   0.57854   0.00000  Uiso   1.00
C94    C     0.61998   0.13960   0.52237   0.00000  Uiso   1.00
C95    C     0.57015   0.14795   0.49961   0.00000  Uiso   1.00
C96    C     0.54959   0.11378   0.44775   0.00000  Uiso   1.00
C97    C     0.49883   0.06935   0.36483   0.00000  Uiso   1.00
C98    C     0.66763   0.13631   0.64140   0.00000  Uiso   1.00
C99    C     0.65787   0.14190   0.71872   0.00000  Uiso   1.00
C100   C     0.67743   0.10495   0.76706   0.00000  Uiso   1.00
C101   C     0.70068   0.05543   0.86895   0.00000  Uiso   1.00
C102   C     0.69778   0.18899   0.53646   0.00000  Uiso   1.00
C103   C     0.71337   0.23887   0.52557   0.00000  Uiso   1.00
C104   C     0.75832   0.24628   0.48557   0.00000  Uiso   1.00
C105   C     0.82837   0.27855   0.42452   0.00000  Uiso   1.00
C106   C     0.70201   0.09668   0.52690   0.00000  Uiso   1.00
C107   C     0.64829   0.09857   0.49433   0.00000  Uiso   1.00
C108   C     0.62781   0.06437   0.44248   0.00000  Uiso   1.00
C109   C     0.57795   0.07267   0.41965   0.00000  Uiso   1.00
C110   C     0.69594   0.09528   0.61336   0.00000  Uiso   1.00
C111   C     0.71553   0.05832   0.66159   0.00000  Uiso   1.00
C112   C     0.70579   0.06384   0.73896   0.00000  Uiso   1.00
C113   C     0.72609   0.14796   0.50841   0.00000  Uiso   1.00
C114   C     0.77102   0.15529   0.46843   0.00000  Uiso   1.00
C115   C     0.78668   0.20517   0.45747   0.00000  Uiso   1.00
H116   H     0.62786   0.20417   0.60038   0.00000  Uiso   1.00
H117   H     0.54825   0.17971   0.52134   0.00000  Uiso   1.00
H118   H     0.63596   0.17366   0.74041   0.00000  Uiso   1.00
H119   H     0.69145   0.27061   0.54728   0.00000  Uiso   1.00
H120   H     0.47247   0.13449   0.42136   0.00000  Uiso   1.00
H121   H     0.65743   0.12173   0.88329   0.00000  Uiso   1.00
H122   H     0.77444   0.32619   0.47604   0.00000  Uiso   1.00
H123   H     0.72405   0.06473   0.50506   0.00000  Uiso   1.00
H124   H     0.64972   0.03262   0.42079   0.00000  Uiso   1.00
H125   H     0.73743   0.02657   0.63987   0.00000  Uiso   1.00
H126   H     0.79292   0.12353   0.44673   0.00000  Uiso   1.00
H127   H     0.55483   0.01510   0.33975   0.00000  Uiso   1.00
H128   H     0.73979   0.00235   0.80169   0.00000  Uiso   1.00
H129   H     0.85680   0.20680   0.39443   0.00000  Uiso   1.00
O130   O     0.46301   0.05618   0.32685   0.00000  Uiso   1.00
O131   O     0.70568   0.03945   0.93289   0.00000  Uiso   1.00
O132   O     0.85919   0.30769   0.39859   0.00000  Uiso   1.00
N133   N     0.50206   0.11080   0.41371   0.00000  Uiso   1.00
N134   N     0.67498   0.09887   0.84559   0.00000  Uiso   1.00
N135   N     0.78438   0.29002   0.46486   0.00000  Uiso   1.00
N136   N     0.54637   0.04656   0.36979   0.00000  Uiso   1.00
N137   N     0.71929   0.03463   0.80167   0.00000  Uiso   1.00
N138   N     0.82869   0.22578   0.42094   0.00000  Uiso   1.00
C139   C     0.14989   0.67223   0.07854   0.00000  Uiso   1.00
C140   C     0.11998   0.63960   0.02237   0.00000  Uiso   1.00
C141   C     0.07015   0.64795   0.99961   0.00000  Uiso   1.00
C142   C     0.04959   0.61378   0.94775   0.00000  Uiso   1.00
C143   C     0.99883   0.56935   0.86483   0.00000  Uiso   1.00
C144   C     0.16763   0.63631   0.14140   0.00000  Uiso   1.00
C145   C     0.15787   0.64190   0.21872   0.00000  Uiso   1.00
C146   C     0.17743   0.60495   0.26706   0.00000  Uiso   1.00
C147   C     0.20068   0.55543   0.36895   0.00000  Uiso   1.00
C148   C     0.19778   0.68899   0.03646   0.00000  Uiso   1.00
C149   C     0.21337   0.73887   0.02557   0.00000  Uiso   1.00
C150   C     0.25832   0.74628   0.98557   0.00000  Uiso   1.00
C151   C     0.32837   0.77855   0.92452   0.00000  Uiso   1.00
C152   C     0.20201   0.59668   0.02690   0.00000  Uiso   1.00
C153   C     0.14829   0.59857   0.99433   0.00000  Uiso   1.00
C154   C     0.12781   0.56437   0.94248   0.00000  Uiso   1.00
C155   C     0.07795   0.57267   0.91965   0.00000  Uiso   1.00
C156   C     0.19594   0.59528   0.11336   0.00000  Uiso   1.00
C157   C     0.21553   0.55832   0.16159   0.00000  Uiso   1.00
C158   C     0.20579   0.56384   0.23896   0.00000  Uiso   1.00
C159   C     0.22609   0.64796   0.00841   0.00000  Uiso   1.00
C160   C     0.27102   0.65529   0.96843   0.00000  Uiso   1.00
C161   C     0.28668   0.70517   0.95747   0.00000  Uiso   1.00
H162   H     0.12786   0.70417   0.10038   0.00000  Uiso   1.00
H163   H     0.04825   0.67971   0.02134   0.00000  Uiso   1.00
H164   H     0.13596   0.67366   0.24041   0.00000  Uiso   1.00
H165   H     0.19145   0.77061   0.04728   0.00000  Uiso   1.00
H166   H     0.97247   0.63449   0.92136   0.00000  Uiso   1.00
H167   H     0.15743   0.62173   0.38329   0.00000  Uiso   1.00
H168   H     0.27444   0.82619   0.97604   0.00000  Uiso   1.00
H169   H     0.22405   0.56473   0.00506   0.00000  Uiso   1.00
H170   H     0.14972   0.53262   0.92079   0.00000  Uiso   1.00
H171   H     0.23743   0.52657   0.13987   0.00000  Uiso   1.00
H172   H     0.29292   0.62353   0.94673   0.00000  Uiso   1.00
H173   H     0.05483   0.51510   0.83975   0.00000  Uiso   1.00
H174   H     0.23979   0.50235   0.30169   0.00000  Uiso   1.00
H175   H     0.35680   0.70680   0.89443   0.00000  Uiso   1.00
O176   O     0.96301   0.55618   0.82685   0.00000  Uiso   1.00
O177   O     0.20568   0.53945   0.43289   0.00000  Uiso   1.00
O178   O     0.35919   0.80769   0.89859   0.00000  Uiso   1.00
N179   N     0.00206   0.61080   0.91371   0.00000  Uiso   1.00
N180   N     0.17498   0.59887   0.34559   0.00000  Uiso   1.00
N181   N     0.28438   0.79002   0.96486   0.00000  Uiso   1.00
N182   N     0.04637   0.54656   0.86979   0.00000  Uiso   1.00
N183   N     0.21929   0.53463   0.30167   0.00000  Uiso   1.00
N184   N     0.32869   0.72578   0.92094   0.00000  Uiso   1.00
C185   C     0.67223   0.35011   0.32854   0.00000  Uiso   1.00
C186   C     0.63960   0.38002   0.27237   0.00000  Uiso   1.00
C187   C     0.64795   0.42985   0.24961   0.00000  Uiso   1.00
C188   C     0.61378   0.45041   0.19775   0.00000  Uiso   1.00
C189   C     0.56935   0.50117   0.11483   0.00000  Uiso   1.00
C190   C     0.63631   0.33237   0.39140   0.00000  Uiso   1.00
C191   C     0.64190   0.34213   0.46872   0.00000  Uiso   1.00
C192   C     0.60495   0.32257   0.51706   0.00000  Uiso   1.00
C193   C     0.55543   0.29932   0.61895   0.00000  Uiso   1.00
C194   C     0.68899   0.30222   0.28646   0.00000  Uiso   1.00
C195   C     0.73887   0.28663   0.27557   0.00000  Uiso   1.00
C196   C     0.74628   0.24168   0.23557   0.00000  Uiso   1.00
C197   C     0.77855   0.17163   0.17452   0.00000  Uiso   1.00
C198   C     0.59668   0.29799   0.27690   0.00000  Uiso   1.00
C199   C     0.59857   0.35171   0.24433   0.00000  Uiso   1.00
C200   C     0.56437   0.37219   0.19248   0.00000  Uiso   1.00
C201   C     0.57267   0.42205   0.16965   0.00000  Uiso   1.00
C202   C     0.59528   0.30406   0.36336   0.00000  Uiso   1.00
C203   C     0.55832   0.28447   0.41159   0.00000  Uiso   1.00
C204   C     0.56384   0.29421   0.48896   0.00000  Uiso   1.00
C205   C     0.64796   0.27391   0.25841   0.00000  Uiso   1.00
C206   C     0.65529   0.22898   0.21843   0.00000  Uiso   1.00
C207   C     0.70517   0.21332   0.20747   0.00000  Uiso   1.00
H208   H     0.70417   0.37214   0.35038   0.00000  Uiso   1.00
H209   H     0.67971   0.45175   0.27134   0.00000  Uiso   1.00
H210   H     0.67366   0.36404   0.49041   0.00000  Uiso   1.00
H211   H     0.77061   0.30855   0.29728   0.00000  Uiso   1.00
H212   H     0.63449   0.52753   0.17136   0.00000  Uiso   1.00
H213   H     0.62173   0.34257   0.63329   0.00000  Uiso   1.00
H214   H     0.82619   0.22556   0.22604   0.00000  Uiso   1.00
H215   H     0.56473   0.27595   0.25506   0.00000  Uiso   1.00
H216   H     0.53262   0.35028   0.17079   0.00000  Uiso   1.00
H217   H     0.52657   0.26257   0.38987   0.00000  Uiso   1.00
H218   H     0.62353   0.20708   0.19673   0.00000  Uiso   1.00
H219   H     0.51510   0.44517   0.08975   0.00000  Uiso   1.00
H220   H     0.50235   0.26021   0.55169   0.00000  Uiso   1.00
H221   H     0.70680   0.14320   0.14443   0.00000  Uiso   1.00
O222   O     0.55618   0.53699   0.07685   0.00000  Uiso   1.00
O223   O     0.53945   0.29432   0.68289   0.00000  Uiso   1.00
O224   O     0.80769   0.14081   0.14859   0.00000  Uiso   1.00
N225   N     0.61080   0.49794   0.16371   0.00000  Uiso   1.00
N226   N     0.59887   0.32502   0.59559   0.00000  Uiso   1.00
N227   N     0.79002   0.21562   0.21486   0.00000  Uiso   1.00
N228   N     0.54656   0.45363   0.11979   0.00000  Uiso   1.00
N229   N     0.53463   0.28071   0.55167   0.00000  Uiso   1.00
N230   N     0.72578   0.17131   0.17094   0.00000  Uiso   1.00
C231   C     0.17223   0.85011   0.82854   0.00000  Uiso   1.00
C232   C     0.13960   0.88002   0.77237   0.00000  Uiso   1.00
C233   C     0.14795   0.92985   0.74961   0.00000  Uiso   1.00
C234   C     0.11378   0.95041   0.69775   0.00000  Uiso   1.00
C235   C     0.06935   0.00117   0.61483   0.00000  Uiso   1.00
C236   C     0.13631   0.83237   0.89140   0.00000  Uiso   1.00
C237   C     0.14190   0.84213   0.96872   0.00000  Uiso   1.00
C238   C     0.10495   0.82257   0.01706   0.00000  Uiso   1.00
C239   C     0.05543   0.79932   0.11895   0.00000  Uiso   1.00
C240   C     0.18899   0.80222   0.78646   0.00000  Uiso   1.00
C241   C     0.23887   0.78663   0.77557   0.00000  Uiso   1.00
C242   C     0.24628   0.74168   0.73557   0.00000  Uiso   1.00
C243   C     0.27855   0.67163   0.67452   0.00000  Uiso   1.00
C244   C     0.09668   0.79799   0.77690   0.00000  Uiso   1.00
C245   C     0.09857   0.85171   0.74433   0.00000  Uiso   1.00
C246   C     0.06437   0.87219   0.69248   0.00000  Uiso   1.00
C247   C     0.07267   0.92205   0.66965   0.00000  Uiso   1.00
C248   C     0.09528   0.80406   0.86336   0.00000  Uiso   1.00
C249   C     0.05832   0.78447   0.91159   0.00000  Uiso   1.00
C250   C     0.06384   0.79421   0.98896   0.00000  Uiso   1.00
C251   C     0.14796   0.77391   0.75841   0.00000  Uiso   1.00
C252   C     0.15529   0.72898   0.71843   0.00000  Uiso   1.00
C253   C     0.20517   0.71332   0.70747   0.00000  Uiso   1.00
H254   H     0.20417   0.87214   0.85038   0.00000  Uiso   1.00
H255   H     0.17971   0.95175   0.77134   0.00000  Uiso   1.00
H256   H     0.17366   0.86404   0.99041   0.00000  Uiso   1.00
H257   H     0.27061   0.80855   0.79728   0.00000  Uiso   1.00
H258   H     0.13449   0.02753   0.67136   0.00000  Uiso   1.00
H259   H     0.12173   0.84257   0.13329   0.00000  Uiso   1.00
H260   H     0.32619   0.72556   0.72604   0.00000  Uiso   1.00
H261   H     0.06473   0.77595   0.75506   0.00000  Uiso   1.00
H262   H     0.03262   0.85028   0.67079   0.00000  Uiso   1.00
H263   H     0.02657   0.76257   0.88987   0.00000  Uiso   1.00
H264   H     0.12353   0.70708   0.69673   0.00000  Uiso   1.00
H265   H     0.01510   0.94517   0.58975   0.00000  Uiso   1.00
H266   H     0.00235   0.76021   0.05169   0.00000  Uiso   1.00
H267   H     0.20680   0.64320   0.64443   0.00000  Uiso   1.00
O268   O     0.05618   0.03699   0.57685   0.00000  Uiso   1.00
O269   O     0.03945   0.79432   0.18289   0.00000  Uiso   1.00
O270   O     0.30769   0.64081   0.64859   0.00000  Uiso   1.00
N271   N     0.11080   0.99794   0.66371   0.00000  Uiso   1.00
N272   N     0.09887   0.82502   0.09559   0.00000  Uiso   1.00
N273   N     0.29002   0.71562   0.71486   0.00000  Uiso   1.00
N274   N     0.04656   0.95363   0.61979   0.00000  Uiso   1.00
N275   N     0.03463   0.78071   0.05167   0.00000  Uiso   1.00
N276   N     0.22578   0.67131   0.67094   0.00000  Uiso   1.00
C277   C     0.82777   0.14989   0.82854   0.00000  Uiso   1.00
C278   C     0.86040   0.11998   0.77237   0.00000  Uiso   1.00
C279   C     0.85205   0.07015   0.74961   0.00000  Uiso   1.00
C280   C     0.88622   0.04959   0.69775   0.00000  Uiso   1.00
C281   C     0.93065   0.99883   0.61483   0.00000  Uiso   1.00
C282   C     0.86369   0.16763   0.89140   0.00000  Uiso   1.00
C283   C     0.85810   0.15787   0.96872   0.00000  Uiso   1.00
C284   C     0.89505   0.17743   0.01706   0.00000  Uiso   1.00
C285   C     0.94457   0.20068   0.11895   0.00000  Uiso   1.00
C286   C     0.81101   0.19778   0.78646   0.00000  Uiso   1.00
C287   C     0.76113   0.21337   0.77557   0.00000  Uiso   1.00
C288   C     0.75372   0.25832   0.73557   0.00000  Uiso   1.00
C289   C     0.72145   0.32837   0.67452   0.00000  Uiso   1.00
C290   C     0.90332   0.20201   0.77690   0.00000  Uiso   1.00
C291   C     0.90143   0.14829   0.74433   0.00000  Uiso   1.00
C292   C     0.93563   0.12781   0.69248   0.00000  Uiso   1.00
C293   C     0.92733   0.07795   0.66965   0.00000  Uiso   1.00
C294   C     0.90472   0.19594   0.86336   0.00000  Uiso   1.00
C295   C     0.94168   0.21553   0.91159   0.00000  Uiso   1.00
C296   C     0.93616   0.20579   0.98896   0.00000  Uiso   1.00
C297   C     0.85204   0.22609   0.75841   0.00000  Uiso   1.00
C298   C     0.84471   0.27102   0.71843   0.00000  Uiso   1.00
C299   C     0.79483   0.28668   0.70747   0.00000  Uiso   1.00
H300   H     0.79583   0.12786   0.85038   0.00000  Uiso   1.00
H301   H     0.82029   0.04825   0.77134   0.00000  Uiso   1.00
H302   H     0.82634   0.13596   0.99041   0.00000  Uiso   1.00
H303   H     0.72939   0.19145   0.79728   0.00000  Uiso   1.00
H304   H     0.86551   0.97247   0.67136   0.00000  Uiso   1.00
H305   H     0.87827   0.15743   0.13329   0.00000  Uiso   1.00
H306   H     0.67381   0.27444   0.72604   0.00000  Uiso   1.00
H307   H     0.93527   0.22405   0.75506   0.00000  Uiso   1.00
H308   H     0.96738   0.14972   0.67079   0.00000  Uiso   1.00
H309   H     0.97343   0.23743   0.88987   0.00000  Uiso   1.00
H310   H     0.87647   0.29292   0.69673   0.00000  Uiso   1.00
H311   H     0.98490   0.05483   0.58975   0.00000  Uiso   1.00
H312   H     0.99765   0.23979   0.05169   0.00000  Uiso   1.00
H313   H     0.79320   0.35680   0.64443   0.00000  Uiso   1.00
O314   O     0.94382   0.96301   0.57685   0.00000  Uiso   1.00
O315   O     0.96055   0.20568   0.18289   0.00000  Uiso   1.00
O316   O     0.69231   0.35919   0.64859   0.00000  Uiso   1.00
N317   N     0.88920   0.00206   0.66371   0.00000  Uiso   1.00
N318   N     0.90113   0.17498   0.09559   0.00000  Uiso   1.00
N319   N     0.70998   0.28438   0.71486   0.00000  Uiso   1.00
N320   N     0.95344   0.04637   0.61979   0.00000  Uiso   1.00
N321   N     0.96537   0.21929   0.05167   0.00000  Uiso   1.00
N322   N     0.77422   0.32869   0.67094   0.00000  Uiso   1.00
C323   C     0.32777   0.64989   0.32854   0.00000  Uiso   1.00
C324   C     0.36040   0.61998   0.27237   0.00000  Uiso   1.00
C325   C     0.35205   0.57015   0.24961   0.00000  Uiso   1.00
C326   C     0.38622   0.54959   0.19775   0.00000  Uiso   1.00
C327   C     0.43065   0.49883   0.11483   0.00000  Uiso   1.00
C328   C     0.36369   0.66763   0.39140   0.00000  Uiso   1.00
C329   C     0.35810   0.65787   0.46872   0.00000  Uiso   1.00
C330   C     0.39505   0.67743   0.51706   0.00000  Uiso   1.00
C331   C     0.44457   0.70068   0.61895   0.00000  Uiso   1.00
C332   C     0.31101   0.69778   0.28646   0.00000  Uiso   1.00
C333   C     0.26113   0.71337   0.27557   0.00000  Uiso   1.00
C334   C     0.25372   0.75832   0.23557   0.00000  Uiso   1.00
C335   C     0.22145   0.82837   0.17452   0.00000  Uiso   1.00
C336   C     0.40332   0.70201   0.27690   0.00000  Uiso   1.00
C337   C     0.40143   0.64829   0.24433   0.00000  Uiso   1.00
C338   C     0.43563   0.62781   0.19248   0.00000  Uiso   1.00
C339   C     0.42733   0.57795   0.16965   0.00000  Uiso   1.00
C340   C     0.40472   0.69594   0.36336   0.00000  Uiso   1.00
C341   C     0.44168   0.71553   0.41159   0.00000  Uiso   1.00
C342   C     0.43616   0.70579   0.48896   0.00000  Uiso   1.00
C343   C     0.35204   0.72609   0.25841   0.00000  Uiso   1.00
C344   C     0.34471   0.77102   0.21843   0.00000  Uiso   1.00
C345   C     0.29483   0.78668   0.20747   0.00000  Uiso   1.00
H346   H     0.29583   0.62786   0.35038   0.00000  Uiso   1.00
H347   H     0.32029   0.54825   0.27134   0.00000  Uiso   1.00
H348   H     0.32634   0.63596   0.49041   0.00000  Uiso   1.00
H349   H     0.22939   0.69145   0.29728   0.00000  Uiso   1.00
H350   H     0.36551   0.47247   0.17136   0.00000  Uiso   1.00
H351   H     0.37827   0.65743   0.63329   0.00000  Uiso   1.00
H352   H     0.17381   0.77444   0.22604   0.00000  Uiso   1.00
H353   H     0.43527   0.72405   0.25506   0.00000  Uiso   1.00
H354   H     0.46738   0.64972   0.17079   0.00000  Uiso   1.00
H355   H     0.47343   0.73743   0.38987   0.00000  Uiso   1.00
H356   H     0.37647   0.79292   0.19673   0.00000  Uiso   1.00
H357   H     0.48490   0.55483   0.08975   0.00000  Uiso   1.00
H358   H     0.49765   0.73979   0.55169   0.00000  Uiso   1.00
H359   H     0.29320   0.85680   0.14443   0.00000  Uiso   1.00
O360   O     0.44382   0.46301   0.07685   0.00000  Uiso   1.00
O361   O     0.46055   0.70568   0.68289   0.00000  Uiso   1.00
O362   O     0.19231   0.85919   0.14859   0.00000  Uiso   1.00
N363   N     0.38920   0.50206   0.16371   0.00000  Uiso   1.00
N364   N     0.40113   0.67498   0.59559   0.00000  Uiso   1.00
N365   N     0.20998   0.78438   0.21486   0.00000  Uiso   1.00
N366   N     0.45344   0.54637   0.11979   0.00000  Uiso   1.00
N367   N     0.46537   0.71929   0.55167   0.00000  Uiso   1.00
N368   N     0.27422   0.82869   0.17094   0.00000  Uiso   1.00
C369   C     0.14989   0.17223   0.17146   0.00000  Uiso   1.00
C370   C     0.11998   0.13960   0.22763   0.00000  Uiso   1.00
C371   C     0.07015   0.14795   0.25039   0.00000  Uiso   1.00
C372   C     0.04959   0.11378   0.30225   0.00000  Uiso   1.00
C373   C     0.99883   0.06935   0.38517   0.00000  Uiso   1.00
C374   C     0.16763   0.13631   0.10860   0.00000  Uiso   1.00
C375   C     0.15787   0.14190   0.03128   0.00000  Uiso   1.00
C376   C     0.17743   0.10495   0.98294   0.00000  Uiso   1.00
C377   C     0.20068   0.05543   0.88105   0.00000  Uiso   1.00
C378   C     0.19778   0.18899   0.21354   0.00000  Uiso   1.00
C379   C     0.21337   0.23887   0.22443   0.00000  Uiso   1.00
C380   C     0.25832   0.24628   0.26443   0.00000  Uiso   1.00
C381   C     0.32837   0.27855   0.32548   0.00000  Uiso   1.00
C382   C     0.20201   0.09668   0.22310   0.00000  Uiso   1.00
C383   C     0.14829   0.09857   0.25567   0.00000  Uiso   1.00
C384   C     0.12781   0.06437   0.30752   0.00000  Uiso   1.00
C385   C     0.07795   0.07267   0.33035   0.00000  Uiso   1.00
C386   C     0.19594   0.09528   0.13664   0.00000  Uiso   1.00
C387   C     0.21553   0.05832   0.08841   0.00000  Uiso   1.00
C388   C     0.20579   0.06384   0.01104   0.00000  Uiso   1.00
C389   C     0.22609   0.14796   0.24159   0.00000  Uiso   1.00
C390   C     0.27102   0.15529   0.28157   0.00000  Uiso   1.00
C391   C     0.28668   0.20517   0.29253   0.00000  Uiso   1.00
H392   H     0.12786   0.20417   0.14962   0.00000  Uiso   1.00
H393   H     0.04825   0.17971   0.22866   0.00000  Uiso   1.00
H394   H     0.13596   0.17366   0.00959   0.00000  Uiso   1.00
H395   H     0.19145   0.27061   0.20272   0.00000  Uiso   1.00
H396   H     0.97247   0.13449   0.32864   0.00000  Uiso   1.00
H397   H     0.15743   0.12173   0.86671   0.00000  Uiso   1.00
H398   H     0.27444   0.32619   0.27396   0.00000  Uiso   1.00
H399   H     0.22405   0.06473   0.24494   0.00000  Uiso   1.00
H400   H     0.14972   0.03262   0.32921   0.00000  Uiso   1.00
H401   H     0.23743   0.02657   0.11013   0.00000  Uiso   1.00
H402   H     0.29292   0.12353   0.30327   0.00000  Uiso   1.00
H403   H     0.05483   0.01510   0.41025   0.00000  Uiso   1.00
H404   H     0.23979   0.00235   0.94831   0.00000  Uiso   1.00
H405   H     0.35680   0.20680   0.35557   0.00000  Uiso   1.00
O406   O     0.96301   0.05618   0.42315   0.00000  Uiso   1.00
O407   O     0.20568   0.03945   0.81711   0.00000  Uiso   1.00
O408   O     0.35919   0.30769   0.35141   0.00000  Uiso   1.00
N409   N     0.00206   0.11080   0.33629   0.00000  Uiso   1.00
N410   N     0.17498   0.09887   0.90441   0.00000  Uiso   1.00
N411   N     0.28438   0.29002   0.28514   0.00000  Uiso   1.00
N412   N     0.04637   0.04656   0.38021   0.00000  Uiso   1.00
N413   N     0.21929   0.03463   0.94833   0.00000  Uiso   1.00
N414   N     0.32869   0.22578   0.32906   0.00000  Uiso   1.00
C415   C     0.64989   0.67223   0.67146   0.00000  Uiso   1.00
C416   C     0.61998   0.63960   0.72763   0.00000  Uiso   1.00
C417   C     0.57015   0.64795   0.75039   0.00000  Uiso   1.00
C418   C     0.54959   0.61378   0.80225   0.00000  Uiso   1.00
C419   C     0.49883   0.56935   0.88517   0.00000  Uiso   1.00
C420   C     0.66763   0.63631   0.60860   0.00000  Uiso   1.00
C421   C     0.65787   0.64190   0.53128   0.00000  Uiso   1.00
C422   C     0.67743   0.60495   0.48294   0.00000  Uiso   1.00
C423   C     0.70068   0.55543   0.38105   0.00000  Uiso   1.00
C424   C     0.69778   0.68899   0.71354   0.00000  Uiso   1.00
C425   C     0.71337   0.73887   0.72443   0.00000  Uiso   1.00
C426   C     0.75832   0.74628   0.76443   0.00000  Uiso   1.00
C427   C     0.82837   0.77855   0.82548   0.00000  Uiso   1.00
C428   C     0.70201   0.59668   0.72310   0.00000  Uiso   1.00
C429   C     0.64829   0.59857   0.75567   0.00000  Uiso   1.00
C430   C     0.62781   0.56437   0.80752   0.00000  Uiso   1.00
C431   C     0.57795   0.57267   0.83035   0.00000  Uiso   1.00
C432   C     0.69594   0.59528   0.63664   0.00000  Uiso   1.00
C433   C     0.71553   0.55832   0.58841   0.00000  Uiso   1.00
C434   C     0.70579   0.56384   0.51104   0.00000  Uiso   1.00
C435   C     0.72609   0.64796   0.74159   0.00000  Uiso   1.00
C436   C     0.77102   0.65529   0.78157   0.00000  Uiso   1.00
C437   C     0.78668   0.70517   0.79253   0.00000  Uiso   1.00
H438   H     0.62786   0.70417   0.64962   0.00000  Uiso   1.00
H439   H     0.54825   0.67971   0.72866   0.00000  Uiso   1.00
H440   H     0.63596   0.67366   0.50959   0.00000  Uiso   1.00
H441   H     0.69145   0.77061   0.70272   0.00000  Uiso   1.00
H442   H     0.47247   0.63449   0.82864   0.00000  Uiso   1.00
H443   H     0.65743   0.62173   0.36671   0.00000  Uiso   1.00
H444   H     0.77444   0.82619   0.77396   0.00000  Uiso   1.00
H445   H     0.72405   0.56473   0.74494   0.00000  Uiso   1.00
H446   H     0.64972   0.53262   0.82921   0.00000  Uiso   1.00
H447   H     0.73743   0.52657   0.61013   0.00000  Uiso   1.00
H448   H     0.79292   0.62353   0.80327   0.00000  Uiso   1.00
H449   H     0.55483   0.51510   0.91025   0.00000  Uiso   1.00
H450   H     0.73979   0.50235   0.44831   0.00000  Uiso   1.00
H451   H     0.85680   0.70680   0.85557   0.00000  Uiso   1.00
O452   O     0.46301   0.55618   0.92315   0.00000  Uiso   1.00
O453   O     0.70568   0.53945   0.31711   0.00000  Uiso   1.00
O454   O     0.85919   0.80769   0.85141   0.00000  Uiso   1.00
N455   N     0.50206   0.61080   0.83629   0.00000  Uiso   1.00
N456   N     0.67498   0.59887   0.40441   0.00000  Uiso   1.00
N457   N     0.78438   0.79002   0.78514   0.00000  Uiso   1.00
N458   N     0.54637   0.54656   0.88021   0.00000  Uiso   1.00
N459   N     0.71929   0.53463   0.44833   0.00000  Uiso   1.00
N460   N     0.82869   0.72578   0.82906   0.00000  Uiso   1.00
C461   C     0.35011   0.32777   0.67146   0.00000  Uiso   1.00
C462   C     0.38002   0.36040   0.72763   0.00000  Uiso   1.00
C463   C     0.42985   0.35205   0.75039   0.00000  Uiso   1.00
C464   C     0.45041   0.38622   0.80225   0.00000  Uiso   1.00
C465   C     0.50117   0.43065   0.88517   0.00000  Uiso   1.00
C466   C     0.33237   0.36369   0.60860   0.00000  Uiso   1.00
C467   C     0.34213   0.35810   0.53128   0.00000  Uiso   1.00
C468   C     0.32257   0.39505   0.48294   0.00000  Uiso   1.00
C469   C     0.29932   0.44457   0.38105   0.00000  Uiso   1.00
C470   C     0.30222   0.31101   0.71354   0.00000  Uiso   1.00
C471   C     0.28663   0.26113   0.72443   0.00000  Uiso   1.00
C472   C     0.24168   0.25372   0.76443   0.00000  Uiso   1.00
C473   C     0.17163   0.22145   0.82548   0.00000  Uiso   1.00
C474   C     0.29799   0.40332   0.72310   0.00000  Uiso   1.00
C475   C     0.35171   0.40143   0.75567   0.00000  Uiso   1.00
C476   C     0.37219   0.43563   0.80752   0.00000  Uiso   1.00
C477   C     0.42205   0.42733   0.83035   0.00000  Uiso   1.00
C478   C     0.30406   0.40472   0.63664   0.00000  Uiso   1.00
C479   C     0.28447   0.44168   0.58841   0.00000  Uiso   1.00
C480   C     0.29421   0.43616   0.51104   0.00000  Uiso   1.00
C481   C     0.27391   0.35204   0.74159   0.00000  Uiso   1.00
C482   C     0.22898   0.34471   0.78157   0.00000  Uiso   1.00
C483   C     0.21332   0.29483   0.79253   0.00000  Uiso   1.00
H484   H     0.37214   0.29583   0.64962   0.00000  Uiso   1.00
H485   H     0.45175   0.32029   0.72866   0.00000  Uiso   1.00
H486   H     0.36404   0.32634   0.50959   0.00000  Uiso   1.00
H487   H     0.30855   0.22939   0.70272   0.00000  Uiso   1.00
H488   H     0.52753   0.36551   0.82864   0.00000  Uiso   1.00
H489   H     0.34257   0.37827   0.36671   0.00000  Uiso   1.00
H490   H     0.22556   0.17381   0.77396   0.00000  Uiso   1.00
H491   H     0.27595   0.43527   0.74494   0.00000  Uiso   1.00
H492   H     0.35028   0.46738   0.82921   0.00000  Uiso   1.00
H493   H     0.26257   0.47343   0.61013   0.00000  Uiso   1.00
H494   H     0.20708   0.37647   0.80327   0.00000  Uiso   1.00
H495   H     0.44517   0.48490   0.91025   0.00000  Uiso   1.00
H496   H     0.26021   0.49765   0.44831   0.00000  Uiso   1.00
H497   H     0.14320   0.29320   0.85557   0.00000  Uiso   1.00
O498   O     0.53699   0.44382   0.92315   0.00000  Uiso   1.00
O499   O     0.29432   0.46055   0.31711   0.00000  Uiso   1.00
O500   O     0.14081   0.19231   0.85141   0.00000  Uiso   1.00
N501   N     0.49794   0.38920   0.83629   0.00000  Uiso   1.00
N502   N     0.32502   0.40113   0.40441   0.00000  Uiso   1.00
N503   N     0.21562   0.20998   0.78514   0.00000  Uiso   1.00
N504   N     0.45363   0.45344   0.88021   0.00000  Uiso   1.00
N505   N     0.28071   0.46537   0.44833   0.00000  Uiso   1.00
N506   N     0.17131   0.27422   0.82906   0.00000  Uiso   1.00
C507   C     0.85011   0.82777   0.17146   0.00000  Uiso   1.00
C508   C     0.88002   0.86040   0.22763   0.00000  Uiso   1.00
C509   C     0.92985   0.85205   0.25039   0.00000  Uiso   1.00
C510   C     0.95041   0.88622   0.30225   0.00000  Uiso   1.00
C511   C     0.00117   0.93065   0.38517   0.00000  Uiso   1.00
C512   C     0.83237   0.86369   0.10860   0.00000  Uiso   1.00
C513   C     0.84213   0.85810   0.03128   0.00000  Uiso   1.00
C514   C     0.82257   0.89505   0.98294   0.00000  Uiso   1.00
C515   C     0.79932   0.94457   0.88105   0.00000  Uiso   1.00
C516   C     0.80222   0.81101   0.21354   0.00000  Uiso   1.00
C517   C     0.78663   0.76113   0.22443   0.00000  Uiso   1.00
C518   C     0.74168   0.75372   0.26443   0.00000  Uiso   1.00
C519   C     0.67163   0.72145   0.32548   0.00000  Uiso   1.00
C520   C     0.79799   0.90332   0.22310   0.00000  Uiso   1.00
C521   C     0.85171   0.90143   0.25567   0.00000  Uiso   1.00
C522   C     0.87219   0.93563   0.30752   0.00000  Uiso   1.00
C523   C     0.92205   0.92733   0.33035   0.00000  Uiso   1.00
C524   C     0.80406   0.90472   0.13664   0.00000  Uiso   1.00
C525   C     0.78447   0.94168   0.08841   0.00000  Uiso   1.00
C526   C     0.79421   0.93616   0.01104   0.00000  Uiso   1.00
C527   C     0.77391   0.85204   0.24159   0.00000  Uiso   1.00
C528   C     0.72898   0.84471   0.28157   0.00000  Uiso   1.00
C529   C     0.71332   0.79483   0.29253   0.00000  Uiso   1.00
H530   H     0.87214   0.79583   0.14962   0.00000  Uiso   1.00
H531   H     0.95175   0.82029   0.22866   0.00000  Uiso   1.00
H532   H     0.86404   0.82634   0.00959   0.00000  Uiso   1.00
H533   H     0.80855   0.72939   0.20272   0.00000  Uiso   1.00
H534   H     0.02753   0.86551   0.32864   0.00000  Uiso   1.00
H535   H     0.84257   0.87827   0.86671   0.00000  Uiso   1.00
H536   H     0.72556   0.67381   0.27396   0.00000  Uiso   1.00
H537   H     0.77595   0.93527   0.24494   0.00000  Uiso   1.00
H538   H     0.85028   0.96738   0.32921   0.00000  Uiso   1.00
H539   H     0.76257   0.97343   0.11013   0.00000  Uiso   1.00
H540   H     0.70708   0.87647   0.30327   0.00000  Uiso   1.00
H541   H     0.94517   0.98490   0.41025   0.00000  Uiso   1.00
H542   H     0.76021   0.99765   0.94831   0.00000  Uiso   1.00
H543   H     0.64320   0.79320   0.35557   0.00000  Uiso   1.00
O544   O     0.03699   0.94382   0.42315   0.00000  Uiso   1.00
O545   O     0.79432   0.96055   0.81711   0.00000  Uiso   1.00
O546   O     0.64081   0.69231   0.35141   0.00000  Uiso   1.00
N547   N     0.99794   0.88920   0.33629   0.00000  Uiso   1.00
N548   N     0.82502   0.90113   0.90441   0.00000  Uiso   1.00
N549   N     0.71562   0.70998   0.28514   0.00000  Uiso   1.00
N550   N     0.95363   0.95344   0.38021   0.00000  Uiso   1.00
N551   N     0.78071   0.96537   0.94833   0.00000  Uiso   1.00
N552   N     0.67131   0.77422   0.32906   0.00000  Uiso   1.00
C553   C     0.32777   0.14989   0.92146   0.00000  Uiso   1.00
C554   C     0.36040   0.11998   0.97763   0.00000  Uiso   1.00
C555   C     0.35205   0.07015   0.00039   0.00000  Uiso   1.00
C556   C     0.38622   0.04959   0.05225   0.00000  Uiso   1.00
C557   C     0.43065   0.99883   0.13517   0.00000  Uiso   1.00
C558   C     0.36369   0.16763   0.85860   0.00000  Uiso   1.00
C559   C     0.35810   0.15787   0.78128   0.00000  Uiso   1.00
C560   C     0.39505   0.17743   0.73294   0.00000  Uiso   1.00
C561   C     0.44457   0.20068   0.63105   0.00000  Uiso   1.00
C562   C     0.31101   0.19778   0.96354   0.00000  Uiso   1.00
C563   C     0.26113   0.21337   0.97443   0.00000  Uiso   1.00
C564   C     0.25372   0.25832   0.01443   0.00000  Uiso   1.00
C565   C     0.22145   0.32837   0.07548   0.00000  Uiso   1.00
C566   C     0.40332   0.20201   0.97310   0.00000  Uiso   1.00
C567   C     0.40143   0.14829   0.00567   0.00000  Uiso   1.00
C568   C     0.43563   0.12781   0.05752   0.00000  Uiso   1.00
C569   C     0.42733   0.07795   0.08035   0.00000  Uiso   1.00
C570   C     0.40472   0.19594   0.88664   0.00000  Uiso   1.00
C571   C     0.44168   0.21553   0.83841   0.00000  Uiso   1.00
C572   C     0.43616   0.20579   0.76104   0.00000  Uiso   1.00
C573   C     0.35204   0.22609   0.99159   0.00000  Uiso   1.00
C574   C     0.34471   0.27102   0.03157   0.00000  Uiso   1.00
C575   C     0.29483   0.28668   0.04253   0.00000  Uiso   1.00
H576   H     0.29583   0.12786   0.89962   0.00000  Uiso   1.00
H577   H     0.32029   0.04825   0.97866   0.00000  Uiso   1.00
H578   H     0.32634   0.13596   0.75959   0.00000  Uiso   1.00
H579   H     0.22939   0.19145   0.95272   0.00000  Uiso   1.00
H580   H     0.36551   0.97247   0.07864   0.00000  Uiso   1.00
H581   H     0.37827   0.15743   0.61671   0.00000  Uiso   1.00
H582   H     0.17381   0.27444   0.02396   0.00000  Uiso   1.00
H583   H     0.43527   0.22405   0.99494   0.00000  Uiso   1.00
H584   H     0.46738   0.14972   0.07921   0.00000  Uiso   1.00
H585   H     0.47343   0.23743   0.86013   0.00000  Uiso   1.00
H586   H     0.37647   0.29292   0.05327   0.00000  Uiso   1.00
H587   H     0.48490   0.05483   0.16025   0.00000  Uiso   1.00
H588   H     0.49765   0.23979   0.69831   0.00000  Uiso   1.00
H589   H     0.29320   0.35680   0.10557   0.00000  Uiso   1.00
O590   O     0.44382   0.96301   0.17315   0.00000  Uiso   1.00
O591   O     0.46055   0.20568   0.56711   0.00000  Uiso   1.00
O592   O     0.19231   0.35919   0.10141   0.00000  Uiso   1.00
N593   N     0.38920   0.00206   0.08629   0.00000  Uiso   1.00
N594   N     0.40113   0.17498   0.65441   0.00000  Uiso   1.00
N595   N     0.20998   0.28438   0.03514   0.00000  Uiso   1.00
N596   N     0.45344   0.04637   0.13021   0.00000  Uiso   1.00
N597   N     0.46537   0.21929   0.69833   0.00000  Uiso   1.00
N598   N     0.27422   0.32869   0.07906   0.00000  Uiso   1.00
C599   C     0.82777   0.64989   0.42146   0.00000  Uiso   1.00
C600   C     0.86040   0.61998   0.47763   0.00000  Uiso   1.00
C601   C     0.85205   0.57015   0.50039   0.00000  Uiso   1.00
C602   C     0.88622   0.54959   0.55225   0.00000  Uiso   1.00
C603   C     0.93065   0.49883   0.63517   0.00000  Uiso   1.00
C604   C     0.86369   0.66763   0.35860   0.00000  Uiso   1.00
C605   C     0.85810   0.65787   0.28128   0.00000  Uiso   1.00
C606   C     0.89505   0.67743   0.23294   0.00000  Uiso   1.00
C607   C     0.94457   0.70068   0.13105   0.00000  Uiso   1.00
C608   C     0.81101   0.69778   0.46354   0.00000  Uiso   1.00
C609   C     0.76113   0.71337   0.47443   0.00000  Uiso   1.00
C610   C     0.75372   0.75832   0.51443   0.00000  Uiso   1.00
C611   C     0.72145   0.82837   0.57548   0.00000  Uiso   1.00
C612   C     0.90332   0.70201   0.47310   0.00000  Uiso   1.00
C613   C     0.90143   0.64829   0.50567   0.00000  Uiso   1.00
C614   C     0.93563   0.62781   0.55752   0.00000  Uiso   1.00
C615   C     0.92733   0.57795   0.58035   0.00000  Uiso   1.00
C616   C     0.90472   0.69594   0.38664   0.00000  Uiso   1.00
C617   C     0.94168   0.71553   0.33841   0.00000  Uiso   1.00
C618   C     0.93616   0.70579   0.26104   0.00000  Uiso   1.00
C619   C     0.85204   0.72609   0.49159   0.00000  Uiso   1.00
C620   C     0.84471   0.77102   0.53157   0.00000  Uiso   1.00
C621   C     0.79483   0.78668   0.54253   0.00000  Uiso   1.00
H622   H     0.79583   0.62786   0.39962   0.00000  Uiso   1.00
H623   H     0.82029   0.54825   0.47866   0.00000  Uiso   1.00
H624   H     0.82634   0.63596   0.25959   0.00000  Uiso   1.00
H625   H     0.72939   0.69145   0.45272   0.00000  Uiso   1.00
H626   H     0.86551   0.47247   0.57864   0.00000  Uiso   1.00
H627   H     0.87827   0.65743   0.11671   0.00000  Uiso   1.00
H628   H     0.67381   0.77444   0.52396   0.00000  Uiso   1.00
H629   H     0.93527   0.72405   0.49494   0.00000  Uiso   1.00
H630   H     0.96738   0.64972   0.57921   0.00000  Uiso   1.00
H631   H     0.97343   0.73743   0.36013   0.00000  Uiso   1.00
H632   H     0.87647   0.79292   0.55327   0.00000  Uiso   1.00
H633   H     0.98490   0.55483   0.66025   0.00000  Uiso   1.00
H634   H     0.99765   0.73979   0.19831   0.00000  Uiso   1.00
H635   H     0.79320   0.85680   0.60557   0.00000  Uiso   1.00
O636   O     0.94382   0.46301   0.67315   0.00000  Uiso   1.00
O637   O     0.96055   0.70568   0.06711   0.00000  Uiso   1.00
O638   O     0.69231   0.85919   0.60141   0.00000  Uiso   1.00
N639   N     0.88920   0.50206   0.58629   0.00000  Uiso   1.00
N640   N     0.90113   0.67498   0.15441   0.00000  Uiso   1.00
N641   N     0.70998   0.78438   0.53514   0.00000  Uiso   1.00
N642   N     0.95344   0.54637   0.63021   0.00000  Uiso   1.00
N643   N     0.96537   0.71929   0.19833   0.00000  Uiso   1.00
N644   N     0.77422   0.82869   0.57906   0.00000  Uiso   1.00
C645   C     0.17223   0.35011   0.42146   0.00000  Uiso   1.00
C646   C     0.13960   0.38002   0.47763   0.00000  Uiso   1.00
C647   C     0.14795   0.42985   0.50039   0.00000  Uiso   1.00
C648   C     0.11378   0.45041   0.55225   0.00000  Uiso   1.00
C649   C     0.06935   0.50117   0.63517   0.00000  Uiso   1.00
C650   C     0.13631   0.33237   0.35860   0.00000  Uiso   1.00
C651   C     0.14190   0.34213   0.28128   0.00000  Uiso   1.00
C652   C     0.10495   0.32257   0.23294   0.00000  Uiso   1.00
C653   C     0.05543   0.29932   0.13105   0.00000  Uiso   1.00
C654   C     0.18899   0.30222   0.46354   0.00000  Uiso   1.00
C655   C     0.23887   0.28663   0.47443   0.00000  Uiso   1.00
C656   C     0.24628   0.24168   0.51443   0.00000  Uiso   1.00
C657   C     0.27855   0.17163   0.57548   0.00000  Uiso   1.00
C658   C     0.09668   0.29799   0.47310   0.00000  Uiso   1.00
C659   C     0.09857   0.35171   0.50567   0.00000  Uiso   1.00
C660   C     0.06437   0.37219   0.55752   0.00000  Uiso   1.00
C661   C     0.07267   0.42205   0.58035   0.00000  Uiso   1.00
C662   C     0.09528   0.30406   0.38664   0.00000  Uiso   1.00
C663   C     0.05832   0.28447   0.33841   0.00000  Uiso   1.00
C664   C     0.06384   0.29421   0.26104   0.00000  Uiso   1.00
C665   C     0.14796   0.27391   0.49159   0.00000  Uiso   1.00
C666   C     0.15529   0.22898   0.53157   0.00000  Uiso   1.00
C667   C     0.20517   0.21332   0.54253   0.00000  Uiso   1.00
H668   H     0.20417   0.37214   0.39962   0.00000  Uiso   1.00
H669   H     0.17971   0.45175   0.47866   0.00000  Uiso   1.00
H670   H     0.17366   0.36404   0.25959   0.00000  Uiso   1.00
H671   H     0.27061   0.30855   0.45272   0.00000  Uiso   1.00
H672   H     0.13449   0.52753   0.57864   0.00000  Uiso   1.00
H673   H     0.12173   0.34257   0.11671   0.00000  Uiso   1.00
H674   H     0.32619   0.22556   0.52396   0.00000  Uiso   1.00
H675   H     0.06473   0.27595   0.49494   0.00000  Uiso   1.00
H676   H     0.03262   0.35028   0.57921   0.00000  Uiso   1.00
H677   H     0.02657   0.26257   0.36013   0.00000  Uiso   1.00
H678   H     0.12353   0.20708   0.55327   0.00000  Uiso   1.00
H679   H     0.01510   0.44517   0.66025   0.00000  Uiso   1.00
H680   H     0.00235   0.26021   0.19831   0.00000  Uiso   1.00
H681   H     0.20680   0.14320   0.60557   0.00000  Uiso   1.00
O682   O     0.05618   0.53699   0.67315   0.00000  Uiso   1.00
O683   O     0.03945   0.29432   0.06711   0.00000  Uiso   1.00
O684   O     0.30769   0.14081   0.60141   0.00000  Uiso   1.00
N685   N     0.11080   0.49794   0.58629   0.00000  Uiso   1.00
N686   N     0.09887   0.32502   0.15441   0.00000  Uiso   1.00
N687   N     0.29002   0.21562   0.53514   0.00000  Uiso   1.00
N688   N     0.04656   0.45363   0.63021   0.00000  Uiso   1.00
N689   N     0.03463   0.28071   0.19833   0.00000  Uiso   1.00
N690   N     0.22578   0.17131   0.57906   0.00000  Uiso   1.00
C691   C     0.67223   0.85011   0.92146   0.00000  Uiso   1.00
C692   C     0.63960   0.88002   0.97763   0.00000  Uiso   1.00
C693   C     0.64795   0.92985   0.00039   0.00000  Uiso   1.00
C694   C     0.61378   0.95041   0.05225   0.00000  Uiso   1.00
C695   C     0.56935   0.00117   0.13517   0.00000  Uiso   1.00
C696   C     0.63631   0.83237   0.85860   0.00000  Uiso   1.00
C697   C     0.64190   0.84213   0.78128   0.00000  Uiso   1.00
C698   C     0.60495   0.82257   0.73294   0.00000  Uiso   1.00
C699   C     0.55543   0.79932   0.63105   0.00000  Uiso   1.00
C700   C     0.68899   0.80222   0.96354   0.00000  Uiso   1.00
C701   C     0.73887   0.78663   0.97443   0.00000  Uiso   1.00
C702   C     0.74628   0.74168   0.01443   0.00000  Uiso   1.00
C703   C     0.77855   0.67163   0.07548   0.00000  Uiso   1.00
C704   C     0.59668   0.79799   0.97310   0.00000  Uiso   1.00
C705   C     0.59857   0.85171   0.00567   0.00000  Uiso   1.00
C706   C     0.56437   0.87219   0.05752   0.00000  Uiso   1.00
C707   C     0.57267   0.92205   0.08035   0.00000  Uiso   1.00
C708   C     0.59528   0.80406   0.88664   0.00000  Uiso   1.00
C709   C     0.55832   0.78447   0.83841   0.00000  Uiso   1.00
C710   C     0.56384   0.79421   0.76104   0.00000  Uiso   1.00
C711   C     0.64796   0.77391   0.99159   0.00000  Uiso   1.00
C712   C     0.65529   0.72898   0.03157   0.00000  Uiso   1.00
C713   C     0.70517   0.71332   0.04253   0.00000  Uiso   1.00
H714   H     0.70417   0.87214   0.89962   0.00000  Uiso   1.00
H715   H     0.67971   0.95175   0.97866   0.00000  Uiso   1.00
H716   H     0.67366   0.86404   0.75959   0.00000  Uiso   1.00
H717   H     0.77061   0.80855   0.95272   0.00000  Uiso   1.00
H718   H     0.63449   0.02753   0.07864   0.00000  Uiso   1.00
H719   H     0.62173   0.84257   0.61671   0.00000  Uiso   1.00
H720   H     0.82619   0.72556   0.02396   0.00000  Uiso   1.00
H721   H     0.56473   0.77595   0.99494   0.00000  Uiso   1.00
H722   H     0.53262   0.85028   0.07921   0.00000  Uiso   1.00
H723   H     0.52657   0.76257   0.86013   0.00000  Uiso   1.00
H724   H     0.62353   0.70708   0.05327   0.00000  Uiso   1.00
H725   H     0.51510   0.94517   0.16025   0.00000  Uiso   1.00
H726   H     0.50235   0.76021   0.69831   0.00000  Uiso   1.00
H727   H     0.70680   0.64320   0.10557   0.00000  Uiso   1.00
O728   O     0.55618   0.03699   0.17315   0.00000  Uiso   1.00
O729   O     0.53945   0.79432   0.56711   0.00000  Uiso   1.00
O730   O     0.80769   0.64081   0.10141   0.00000  Uiso   1.00
N731   N     0.61080   0.99794   0.08629   0.00000  Uiso   1.00
N732   N     0.59887   0.82502   0.65441   0.00000  Uiso   1.00
N733   N     0.79002   0.71562   0.03514   0.00000  Uiso   1.00
N734   N     0.54656   0.95363   0.13021   0.00000  Uiso   1.00
N735   N     0.53463   0.78071   0.69833   0.00000  Uiso   1.00
N736   N     0.72578   0.67131   0.07906   0.00000  Uiso   1.00
