data_job_04958
_audit_creation_date              2018-12-19
_audit_creation_method            'Materials Studio'
_symmetry_space_group_name_H-M    'P1'
_symmetry_Int_Tables_number       1
_symmetry_cell_setting            triclinic
loop_
_symmetry_equiv_pos_as_xyz
  x,y,z
_cell_length_a                    33.4064
_cell_length_b                    30.9625
_cell_length_c                    9.6462
_cell_angle_alpha                 90.0000
_cell_angle_beta                  90.0000
_cell_angle_gamma                 90.0000
loop_
_atom_site_label
_atom_site_type_symbol
_atom_site_fract_x
_atom_site_fract_y
_atom_site_fract_z
_atom_site_U_iso_or_equiv
_atom_site_adp_type
_atom_site_occupancy
C1     C     0.10459   0.10116   0.40495   0.00000  Uiso   1.00
C2     C     0.10353   0.09985   0.24696   0.00000  Uiso   1.00
C3     C     0.08008   0.07247   0.16710   0.00000  Uiso   1.00
C4     C     0.08343   0.07629   0.02416   0.00000  Uiso   1.00
C5     C     0.07787   0.06966   0.78809   0.00000  Uiso   1.00
C6     C     0.14820   0.09410   0.44575   0.00000  Uiso   1.00
C7     C     0.16230   0.06188   0.53305   0.00000  Uiso   1.00
C8     C     0.20325   0.06086   0.55747   0.00000  Uiso   1.00
C9     C     0.26703   0.04531   0.63011   0.00000  Uiso   1.00
C10    C     0.09469   0.14755   0.44549   0.00000  Uiso   1.00
C11    C     0.06380   0.16028   0.53260   0.00000  Uiso   1.00
C12    C     0.05970   0.20426   0.55682   0.00000  Uiso   1.00
C13    C     0.04039   0.27170   0.62905   0.00000  Uiso   1.00
C14    C     0.15223   0.15664   0.29311   0.00000  Uiso   1.00
C15    C     0.12942   0.12998   0.18621   0.00000  Uiso   1.00
C16    C     0.13280   0.13385   0.04336   0.00000  Uiso   1.00
C17    C     0.10936   0.10648   0.96330   0.00000  Uiso   1.00
C18    C     0.17408   0.12423   0.38501   0.00000  Uiso   1.00
C19    C     0.21502   0.12326   0.40931   0.00000  Uiso   1.00
C20    C     0.22918   0.09104   0.49661   0.00000  Uiso   1.00
C21    C     0.12056   0.17768   0.38474   0.00000  Uiso   1.00
C22    C     0.11651   0.22165   0.40884   0.00000  Uiso   1.00
C23    C     0.08562   0.23444   0.49596   0.00000  Uiso   1.00
H24    H     0.08444   0.07770   0.45224   0.00000  Uiso   1.00
H25    H     0.06006   0.04915   0.21415   0.00000  Uiso   1.00
H26    H     0.14227   0.03857   0.58005   0.00000  Uiso   1.00
H27    H     0.04378   0.13695   0.57959   0.00000  Uiso   1.00
H28    H     0.04446   0.03078   0.92339   0.00000  Uiso   1.00
H29    H     0.21779   0.00847   0.69495   0.00000  Uiso   1.00
H30    H     0.01010   0.21593   0.69398   0.00000  Uiso   1.00
H31    H     0.17239   0.18010   0.24581   0.00000  Uiso   1.00
H32    H     0.15283   0.15717   0.99638   0.00000  Uiso   1.00
H33    H     0.23503   0.14658   0.36229   0.00000  Uiso   1.00
H34    H     0.13654   0.24496   0.36182   0.00000  Uiso   1.00
H35    H     0.11975   0.11844   0.74664   0.00000  Uiso   1.00
H36    H     0.29308   0.09613   0.51821   0.00000  Uiso   1.00
H37    H     0.08540   0.30359   0.51723   0.00000  Uiso   1.00
O38    O     0.06766   0.05767   0.67465   0.00000  Uiso   1.00
O39    O     0.29506   0.02841   0.68694   0.00000  Uiso   1.00
O40    O     0.02259   0.30058   0.68565   0.00000  Uiso   1.00
N41    N     0.06485   0.05456   0.91602   0.00000  Uiso   1.00
N42    N     0.22691   0.03370   0.63737   0.00000  Uiso   1.00
N43    N     0.03275   0.22765   0.63649   0.00000  Uiso   1.00
N44    N     0.10537   0.10174   0.82091   0.00000  Uiso   1.00
N45    N     0.26743   0.08087   0.54226   0.00000  Uiso   1.00
N46    N     0.07326   0.27483   0.54138   0.00000  Uiso   1.00
C47    C     0.60459   0.60116   0.40495   0.00000  Uiso   1.00
C48    C     0.60353   0.59985   0.24696   0.00000  Uiso   1.00
C49    C     0.58008   0.57247   0.16710   0.00000  Uiso   1.00
C50    C     0.58343   0.57629   0.02416   0.00000  Uiso   1.00
C51    C     0.57787   0.56966   0.78809   0.00000  Uiso   1.00
C52    C     0.64820   0.59410   0.44575   0.00000  Uiso   1.00
C53    C     0.66230   0.56188   0.53305   0.00000  Uiso   1.00
C54    C     0.70325   0.56086   0.55747   0.00000  Uiso   1.00
C55    C     0.76703   0.54531   0.63011   0.00000  Uiso   1.00
C56    C     0.59469   0.64755   0.44549   0.00000  Uiso   1.00
C57    C     0.56380   0.66028   0.53260   0.00000  Uiso   1.00
C58    C     0.55970   0.70426   0.55682   0.00000  Uiso   1.00
C59    C     0.54039   0.77170   0.62905   0.00000  Uiso   1.00
C60    C     0.65223   0.65664   0.29311   0.00000  Uiso   1.00
C61    C     0.62942   0.62998   0.18621   0.00000  Uiso   1.00
C62    C     0.63280   0.63385   0.04336   0.00000  Uiso   1.00
C63    C     0.60936   0.60648   0.96330   0.00000  Uiso   1.00
C64    C     0.67408   0.62423   0.38501   0.00000  Uiso   1.00
C65    C     0.71502   0.62326   0.40931   0.00000  Uiso   1.00
C66    C     0.72918   0.59104   0.49661   0.00000  Uiso   1.00
C67    C     0.62056   0.67768   0.38474   0.00000  Uiso   1.00
C68    C     0.61651   0.72165   0.40884   0.00000  Uiso   1.00
C69    C     0.58562   0.73444   0.49596   0.00000  Uiso   1.00
H70    H     0.58444   0.57770   0.45224   0.00000  Uiso   1.00
H71    H     0.56006   0.54915   0.21415   0.00000  Uiso   1.00
H72    H     0.64227   0.53857   0.58005   0.00000  Uiso   1.00
H73    H     0.54378   0.63695   0.57959   0.00000  Uiso   1.00
H74    H     0.54446   0.53078   0.92339   0.00000  Uiso   1.00
H75    H     0.71779   0.50847   0.69495   0.00000  Uiso   1.00
H76    H     0.51010   0.71593   0.69398   0.00000  Uiso   1.00
H77    H     0.67239   0.68010   0.24581   0.00000  Uiso   1.00
H78    H     0.65283   0.65717   0.99638   0.00000  Uiso   1.00
H79    H     0.73503   0.64658   0.36229   0.00000  Uiso   1.00
H80    H     0.63654   0.74496   0.36182   0.00000  Uiso   1.00
H81    H     0.61975   0.61844   0.74664   0.00000  Uiso   1.00
H82    H     0.79308   0.59613   0.51821   0.00000  Uiso   1.00
H83    H     0.58540   0.80359   0.51723   0.00000  Uiso   1.00
O84    O     0.56766   0.55767   0.67465   0.00000  Uiso   1.00
O85    O     0.79506   0.52841   0.68694   0.00000  Uiso   1.00
O86    O     0.52259   0.80058   0.68565   0.00000  Uiso   1.00
N87    N     0.56485   0.55456   0.91602   0.00000  Uiso   1.00
N88    N     0.72691   0.53370   0.63737   0.00000  Uiso   1.00
N89    N     0.53275   0.72765   0.63649   0.00000  Uiso   1.00
N90    N     0.60537   0.60174   0.82091   0.00000  Uiso   1.00
N91    N     0.76743   0.58087   0.54226   0.00000  Uiso   1.00
N92    N     0.57326   0.77483   0.54138   0.00000  Uiso   1.00
C93    C     0.39541   0.39884   0.40495   0.00000  Uiso   1.00
C94    C     0.39647   0.40015   0.24696   0.00000  Uiso   1.00
C95    C     0.41992   0.42753   0.16710   0.00000  Uiso   1.00
C96    C     0.41657   0.42371   0.02416   0.00000  Uiso   1.00
C97    C     0.42213   0.43034   0.78809   0.00000  Uiso   1.00
C98    C     0.35180   0.40590   0.44575   0.00000  Uiso   1.00
C99    C     0.33770   0.43812   0.53305   0.00000  Uiso   1.00
C100   C     0.29675   0.43914   0.55747   0.00000  Uiso   1.00
C101   C     0.23297   0.45469   0.63011   0.00000  Uiso   1.00
C102   C     0.40531   0.35245   0.44549   0.00000  Uiso   1.00
C103   C     0.43620   0.33972   0.53260   0.00000  Uiso   1.00
C104   C     0.44030   0.29574   0.55682   0.00000  Uiso   1.00
C105   C     0.45961   0.22830   0.62905   0.00000  Uiso   1.00
C106   C     0.34777   0.34336   0.29311   0.00000  Uiso   1.00
C107   C     0.37058   0.37002   0.18621   0.00000  Uiso   1.00
C108   C     0.36720   0.36615   0.04336   0.00000  Uiso   1.00
C109   C     0.39064   0.39352   0.96330   0.00000  Uiso   1.00
C110   C     0.32592   0.37577   0.38501   0.00000  Uiso   1.00
C111   C     0.28498   0.37675   0.40931   0.00000  Uiso   1.00
C112   C     0.27082   0.40896   0.49661   0.00000  Uiso   1.00
C113   C     0.37944   0.32232   0.38474   0.00000  Uiso   1.00
C114   C     0.38349   0.27835   0.40884   0.00000  Uiso   1.00
C115   C     0.41438   0.26556   0.49596   0.00000  Uiso   1.00
H116   H     0.41556   0.42230   0.45224   0.00000  Uiso   1.00
H117   H     0.43994   0.45085   0.21415   0.00000  Uiso   1.00
H118   H     0.35773   0.46143   0.58005   0.00000  Uiso   1.00
H119   H     0.45622   0.36305   0.57959   0.00000  Uiso   1.00
H120   H     0.45554   0.46922   0.92339   0.00000  Uiso   1.00
H121   H     0.28221   0.49153   0.69495   0.00000  Uiso   1.00
H122   H     0.48990   0.28407   0.69398   0.00000  Uiso   1.00
H123   H     0.32761   0.31990   0.24581   0.00000  Uiso   1.00
H124   H     0.34717   0.34283   0.99638   0.00000  Uiso   1.00
H125   H     0.26497   0.35342   0.36229   0.00000  Uiso   1.00
H126   H     0.36346   0.25504   0.36182   0.00000  Uiso   1.00
H127   H     0.38025   0.38156   0.74664   0.00000  Uiso   1.00
H128   H     0.20692   0.40387   0.51821   0.00000  Uiso   1.00
H129   H     0.41460   0.19641   0.51723   0.00000  Uiso   1.00
O130   O     0.43234   0.44233   0.67465   0.00000  Uiso   1.00
O131   O     0.20494   0.47159   0.68694   0.00000  Uiso   1.00
O132   O     0.47741   0.19942   0.68565   0.00000  Uiso   1.00
N133   N     0.43515   0.44544   0.91602   0.00000  Uiso   1.00
N134   N     0.27309   0.46630   0.63737   0.00000  Uiso   1.00
N135   N     0.46725   0.27235   0.63649   0.00000  Uiso   1.00
N136   N     0.39463   0.39826   0.82091   0.00000  Uiso   1.00
N137   N     0.23257   0.41913   0.54226   0.00000  Uiso   1.00
N138   N     0.42674   0.22517   0.54138   0.00000  Uiso   1.00
C139   C     0.89541   0.89884   0.40495   0.00000  Uiso   1.00
C140   C     0.89647   0.90015   0.24696   0.00000  Uiso   1.00
C141   C     0.91992   0.92753   0.16710   0.00000  Uiso   1.00
C142   C     0.91657   0.92371   0.02416   0.00000  Uiso   1.00
C143   C     0.92213   0.93034   0.78809   0.00000  Uiso   1.00
C144   C     0.85180   0.90590   0.44575   0.00000  Uiso   1.00
C145   C     0.83770   0.93812   0.53305   0.00000  Uiso   1.00
C146   C     0.79675   0.93914   0.55747   0.00000  Uiso   1.00
C147   C     0.73297   0.95469   0.63011   0.00000  Uiso   1.00
C148   C     0.90531   0.85245   0.44549   0.00000  Uiso   1.00
C149   C     0.93620   0.83972   0.53260   0.00000  Uiso   1.00
C150   C     0.94030   0.79574   0.55682   0.00000  Uiso   1.00
C151   C     0.95961   0.72830   0.62905   0.00000  Uiso   1.00
C152   C     0.84777   0.84336   0.29311   0.00000  Uiso   1.00
C153   C     0.87058   0.87002   0.18621   0.00000  Uiso   1.00
C154   C     0.86720   0.86615   0.04336   0.00000  Uiso   1.00
C155   C     0.89064   0.89352   0.96330   0.00000  Uiso   1.00
C156   C     0.82592   0.87577   0.38501   0.00000  Uiso   1.00
C157   C     0.78498   0.87674   0.40931   0.00000  Uiso   1.00
C158   C     0.77082   0.90896   0.49661   0.00000  Uiso   1.00
C159   C     0.87944   0.82232   0.38474   0.00000  Uiso   1.00
C160   C     0.88349   0.77835   0.40884   0.00000  Uiso   1.00
C161   C     0.91438   0.76556   0.49596   0.00000  Uiso   1.00
H162   H     0.91556   0.92230   0.45224   0.00000  Uiso   1.00
H163   H     0.93994   0.95085   0.21415   0.00000  Uiso   1.00
H164   H     0.85773   0.96143   0.58005   0.00000  Uiso   1.00
H165   H     0.95622   0.86305   0.57959   0.00000  Uiso   1.00
H166   H     0.95554   0.96922   0.92339   0.00000  Uiso   1.00
H167   H     0.78221   0.99153   0.69495   0.00000  Uiso   1.00
H168   H     0.98990   0.78407   0.69398   0.00000  Uiso   1.00
H169   H     0.82761   0.81990   0.24581   0.00000  Uiso   1.00
H170   H     0.84717   0.84283   0.99638   0.00000  Uiso   1.00
H171   H     0.76497   0.85342   0.36229   0.00000  Uiso   1.00
H172   H     0.86346   0.75504   0.36182   0.00000  Uiso   1.00
H173   H     0.88025   0.88156   0.74664   0.00000  Uiso   1.00
H174   H     0.70692   0.90387   0.51821   0.00000  Uiso   1.00
H175   H     0.91460   0.69641   0.51723   0.00000  Uiso   1.00
O176   O     0.93234   0.94233   0.67465   0.00000  Uiso   1.00
O177   O     0.70494   0.97159   0.68694   0.00000  Uiso   1.00
O178   O     0.97741   0.69942   0.68565   0.00000  Uiso   1.00
N179   N     0.93515   0.94544   0.91602   0.00000  Uiso   1.00
N180   N     0.77309   0.96630   0.63737   0.00000  Uiso   1.00
N181   N     0.96725   0.77235   0.63649   0.00000  Uiso   1.00
N182   N     0.89463   0.89826   0.82091   0.00000  Uiso   1.00
N183   N     0.73257   0.91913   0.54226   0.00000  Uiso   1.00
N184   N     0.92674   0.72517   0.54138   0.00000  Uiso   1.00
C185   C     0.89541   0.10116   0.59505   0.00000  Uiso   1.00
C186   C     0.89647   0.09985   0.75304   0.00000  Uiso   1.00
C187   C     0.91992   0.07247   0.83290   0.00000  Uiso   1.00
C188   C     0.91657   0.07629   0.97584   0.00000  Uiso   1.00
C189   C     0.92213   0.06966   0.21191   0.00000  Uiso   1.00
C190   C     0.85180   0.09410   0.55425   0.00000  Uiso   1.00
C191   C     0.83770   0.06188   0.46695   0.00000  Uiso   1.00
C192   C     0.79675   0.06086   0.44253   0.00000  Uiso   1.00
C193   C     0.73297   0.04531   0.36989   0.00000  Uiso   1.00
C194   C     0.90531   0.14755   0.55451   0.00000  Uiso   1.00
C195   C     0.93620   0.16028   0.46740   0.00000  Uiso   1.00
C196   C     0.94030   0.20426   0.44318   0.00000  Uiso   1.00
C197   C     0.95961   0.27170   0.37095   0.00000  Uiso   1.00
C198   C     0.84777   0.15664   0.70689   0.00000  Uiso   1.00
C199   C     0.87058   0.12998   0.81379   0.00000  Uiso   1.00
C200   C     0.86720   0.13385   0.95664   0.00000  Uiso   1.00
C201   C     0.89064   0.10648   0.03670   0.00000  Uiso   1.00
C202   C     0.82592   0.12423   0.61499   0.00000  Uiso   1.00
C203   C     0.78498   0.12326   0.59069   0.00000  Uiso   1.00
C204   C     0.77082   0.09104   0.50339   0.00000  Uiso   1.00
C205   C     0.87944   0.17768   0.61526   0.00000  Uiso   1.00
C206   C     0.88349   0.22165   0.59116   0.00000  Uiso   1.00
C207   C     0.91438   0.23444   0.50404   0.00000  Uiso   1.00
H208   H     0.91556   0.07770   0.54776   0.00000  Uiso   1.00
H209   H     0.93994   0.04915   0.78585   0.00000  Uiso   1.00
H210   H     0.85773   0.03857   0.41995   0.00000  Uiso   1.00
H211   H     0.95622   0.13695   0.42041   0.00000  Uiso   1.00
H212   H     0.95554   0.03078   0.07661   0.00000  Uiso   1.00
H213   H     0.78221   0.00847   0.30505   0.00000  Uiso   1.00
H214   H     0.98990   0.21593   0.30602   0.00000  Uiso   1.00
H215   H     0.82761   0.18010   0.75419   0.00000  Uiso   1.00
H216   H     0.84717   0.15717   0.00362   0.00000  Uiso   1.00
H217   H     0.76497   0.14658   0.63771   0.00000  Uiso   1.00
H218   H     0.86346   0.24496   0.63818   0.00000  Uiso   1.00
H219   H     0.88025   0.11844   0.25336   0.00000  Uiso   1.00
H220   H     0.70692   0.09613   0.48179   0.00000  Uiso   1.00
H221   H     0.91460   0.30359   0.48277   0.00000  Uiso   1.00
O222   O     0.93234   0.05767   0.32535   0.00000  Uiso   1.00
O223   O     0.70494   0.02841   0.31306   0.00000  Uiso   1.00
O224   O     0.97741   0.30058   0.31435   0.00000  Uiso   1.00
N225   N     0.93515   0.05456   0.08398   0.00000  Uiso   1.00
N226   N     0.77309   0.03370   0.36263   0.00000  Uiso   1.00
N227   N     0.96725   0.22765   0.36351   0.00000  Uiso   1.00
N228   N     0.89463   0.10174   0.17909   0.00000  Uiso   1.00
N229   N     0.73257   0.08087   0.45774   0.00000  Uiso   1.00
N230   N     0.92674   0.27483   0.45862   0.00000  Uiso   1.00
C231   C     0.39541   0.60116   0.59505   0.00000  Uiso   1.00
C232   C     0.39647   0.59985   0.75304   0.00000  Uiso   1.00
C233   C     0.41992   0.57247   0.83290   0.00000  Uiso   1.00
C234   C     0.41657   0.57629   0.97584   0.00000  Uiso   1.00
C235   C     0.42213   0.56966   0.21191   0.00000  Uiso   1.00
C236   C     0.35180   0.59410   0.55425   0.00000  Uiso   1.00
C237   C     0.33770   0.56188   0.46695   0.00000  Uiso   1.00
C238   C     0.29675   0.56086   0.44253   0.00000  Uiso   1.00
C239   C     0.23297   0.54531   0.36989   0.00000  Uiso   1.00
C240   C     0.40531   0.64755   0.55451   0.00000  Uiso   1.00
C241   C     0.43620   0.66028   0.46740   0.00000  Uiso   1.00
C242   C     0.44030   0.70426   0.44318   0.00000  Uiso   1.00
C243   C     0.45961   0.77170   0.37095   0.00000  Uiso   1.00
C244   C     0.34777   0.65664   0.70689   0.00000  Uiso   1.00
C245   C     0.37058   0.62998   0.81379   0.00000  Uiso   1.00
C246   C     0.36720   0.63385   0.95664   0.00000  Uiso   1.00
C247   C     0.39064   0.60648   0.03670   0.00000  Uiso   1.00
C248   C     0.32592   0.62423   0.61499   0.00000  Uiso   1.00
C249   C     0.28498   0.62326   0.59069   0.00000  Uiso   1.00
C250   C     0.27082   0.59104   0.50339   0.00000  Uiso   1.00
C251   C     0.37944   0.67768   0.61526   0.00000  Uiso   1.00
C252   C     0.38349   0.72165   0.59116   0.00000  Uiso   1.00
C253   C     0.41438   0.73444   0.50404   0.00000  Uiso   1.00
H254   H     0.41556   0.57770   0.54776   0.00000  Uiso   1.00
H255   H     0.43994   0.54915   0.78585   0.00000  Uiso   1.00
H256   H     0.35773   0.53857   0.41995   0.00000  Uiso   1.00
H257   H     0.45622   0.63695   0.42041   0.00000  Uiso   1.00
H258   H     0.45554   0.53078   0.07661   0.00000  Uiso   1.00
H259   H     0.28221   0.50847   0.30505   0.00000  Uiso   1.00
H260   H     0.48990   0.71593   0.30602   0.00000  Uiso   1.00
H261   H     0.32761   0.68010   0.75419   0.00000  Uiso   1.00
H262   H     0.34717   0.65717   0.00362   0.00000  Uiso   1.00
H263   H     0.26497   0.64658   0.63771   0.00000  Uiso   1.00
H264   H     0.36346   0.74496   0.63818   0.00000  Uiso   1.00
H265   H     0.38025   0.61844   0.25336   0.00000  Uiso   1.00
H266   H     0.20692   0.59613   0.48179   0.00000  Uiso   1.00
H267   H     0.41460   0.80359   0.48277   0.00000  Uiso   1.00
O268   O     0.43234   0.55767   0.32535   0.00000  Uiso   1.00
O269   O     0.20494   0.52841   0.31306   0.00000  Uiso   1.00
O270   O     0.47741   0.80058   0.31435   0.00000  Uiso   1.00
N271   N     0.43515   0.55456   0.08398   0.00000  Uiso   1.00
N272   N     0.27309   0.53370   0.36263   0.00000  Uiso   1.00
N273   N     0.46725   0.72765   0.36351   0.00000  Uiso   1.00
N274   N     0.39463   0.60174   0.17909   0.00000  Uiso   1.00
N275   N     0.23257   0.58087   0.45774   0.00000  Uiso   1.00
N276   N     0.42674   0.77483   0.45862   0.00000  Uiso   1.00
C277   C     0.60459   0.39884   0.59505   0.00000  Uiso   1.00
C278   C     0.60353   0.40015   0.75304   0.00000  Uiso   1.00
C279   C     0.58008   0.42753   0.83290   0.00000  Uiso   1.00
C280   C     0.58343   0.42371   0.97584   0.00000  Uiso   1.00
C281   C     0.57787   0.43034   0.21191   0.00000  Uiso   1.00
C282   C     0.64820   0.40590   0.55425   0.00000  Uiso   1.00
C283   C     0.66230   0.43812   0.46695   0.00000  Uiso   1.00
C284   C     0.70325   0.43914   0.44253   0.00000  Uiso   1.00
C285   C     0.76703   0.45469   0.36989   0.00000  Uiso   1.00
C286   C     0.59469   0.35245   0.55451   0.00000  Uiso   1.00
C287   C     0.56380   0.33972   0.46740   0.00000  Uiso   1.00
C288   C     0.55970   0.29574   0.44318   0.00000  Uiso   1.00
C289   C     0.54039   0.22830   0.37095   0.00000  Uiso   1.00
C290   C     0.65223   0.34336   0.70689   0.00000  Uiso   1.00
C291   C     0.62942   0.37002   0.81379   0.00000  Uiso   1.00
C292   C     0.63280   0.36615   0.95664   0.00000  Uiso   1.00
C293   C     0.60936   0.39352   0.03670   0.00000  Uiso   1.00
C294   C     0.67408   0.37577   0.61499   0.00000  Uiso   1.00
C295   C     0.71502   0.37674   0.59069   0.00000  Uiso   1.00
C296   C     0.72918   0.40896   0.50339   0.00000  Uiso   1.00
C297   C     0.62056   0.32232   0.61526   0.00000  Uiso   1.00
C298   C     0.61651   0.27835   0.59116   0.00000  Uiso   1.00
C299   C     0.58562   0.26556   0.50404   0.00000  Uiso   1.00
H300   H     0.58444   0.42230   0.54776   0.00000  Uiso   1.00
H301   H     0.56006   0.45085   0.78585   0.00000  Uiso   1.00
H302   H     0.64227   0.46143   0.41995   0.00000  Uiso   1.00
H303   H     0.54378   0.36305   0.42041   0.00000  Uiso   1.00
H304   H     0.54446   0.46922   0.07661   0.00000  Uiso   1.00
H305   H     0.71779   0.49153   0.30505   0.00000  Uiso   1.00
H306   H     0.51010   0.28407   0.30602   0.00000  Uiso   1.00
H307   H     0.67239   0.31990   0.75419   0.00000  Uiso   1.00
H308   H     0.65283   0.34283   0.00362   0.00000  Uiso   1.00
H309   H     0.73503   0.35342   0.63771   0.00000  Uiso   1.00
H310   H     0.63654   0.25504   0.63818   0.00000  Uiso   1.00
H311   H     0.61975   0.38156   0.25336   0.00000  Uiso   1.00
H312   H     0.79308   0.40387   0.48179   0.00000  Uiso   1.00
H313   H     0.58540   0.19641   0.48277   0.00000  Uiso   1.00
O314   O     0.56766   0.44233   0.32535   0.00000  Uiso   1.00
O315   O     0.79506   0.47159   0.31306   0.00000  Uiso   1.00
O316   O     0.52259   0.19942   0.31435   0.00000  Uiso   1.00
N317   N     0.56485   0.44544   0.08398   0.00000  Uiso   1.00
N318   N     0.72691   0.46630   0.36263   0.00000  Uiso   1.00
N319   N     0.53275   0.27235   0.36351   0.00000  Uiso   1.00
N320   N     0.60537   0.39826   0.17909   0.00000  Uiso   1.00
N321   N     0.76743   0.41913   0.45774   0.00000  Uiso   1.00
N322   N     0.57326   0.22517   0.45862   0.00000  Uiso   1.00
C323   C     0.10459   0.89884   0.59505   0.00000  Uiso   1.00
C324   C     0.10353   0.90015   0.75304   0.00000  Uiso   1.00
C325   C     0.08008   0.92753   0.83290   0.00000  Uiso   1.00
C326   C     0.08343   0.92371   0.97584   0.00000  Uiso   1.00
C327   C     0.07787   0.93034   0.21191   0.00000  Uiso   1.00
C328   C     0.14820   0.90590   0.55425   0.00000  Uiso   1.00
C329   C     0.16230   0.93812   0.46695   0.00000  Uiso   1.00
C330   C     0.20325   0.93914   0.44253   0.00000  Uiso   1.00
C331   C     0.26703   0.95469   0.36989   0.00000  Uiso   1.00
C332   C     0.09469   0.85245   0.55451   0.00000  Uiso   1.00
C333   C     0.06380   0.83972   0.46740   0.00000  Uiso   1.00
C334   C     0.05970   0.79574   0.44318   0.00000  Uiso   1.00
C335   C     0.04039   0.72830   0.37095   0.00000  Uiso   1.00
C336   C     0.15223   0.84336   0.70689   0.00000  Uiso   1.00
C337   C     0.12942   0.87002   0.81379   0.00000  Uiso   1.00
C338   C     0.13280   0.86615   0.95664   0.00000  Uiso   1.00
C339   C     0.10936   0.89352   0.03670   0.00000  Uiso   1.00
C340   C     0.17408   0.87577   0.61499   0.00000  Uiso   1.00
C341   C     0.21502   0.87674   0.59069   0.00000  Uiso   1.00
C342   C     0.22918   0.90896   0.50339   0.00000  Uiso   1.00
C343   C     0.12056   0.82232   0.61526   0.00000  Uiso   1.00
C344   C     0.11651   0.77835   0.59116   0.00000  Uiso   1.00
C345   C     0.08562   0.76556   0.50404   0.00000  Uiso   1.00
H346   H     0.08444   0.92230   0.54776   0.00000  Uiso   1.00
H347   H     0.06006   0.95085   0.78585   0.00000  Uiso   1.00
H348   H     0.14227   0.96143   0.41995   0.00000  Uiso   1.00
H349   H     0.04378   0.86305   0.42041   0.00000  Uiso   1.00
H350   H     0.04446   0.96922   0.07661   0.00000  Uiso   1.00
H351   H     0.21779   0.99153   0.30505   0.00000  Uiso   1.00
H352   H     0.01010   0.78407   0.30602   0.00000  Uiso   1.00
H353   H     0.17239   0.81990   0.75419   0.00000  Uiso   1.00
H354   H     0.15283   0.84283   0.00362   0.00000  Uiso   1.00
H355   H     0.23503   0.85342   0.63771   0.00000  Uiso   1.00
H356   H     0.13654   0.75504   0.63818   0.00000  Uiso   1.00
H357   H     0.11975   0.88156   0.25336   0.00000  Uiso   1.00
H358   H     0.29308   0.90387   0.48179   0.00000  Uiso   1.00
H359   H     0.08540   0.69641   0.48277   0.00000  Uiso   1.00
O360   O     0.06766   0.94233   0.32535   0.00000  Uiso   1.00
O361   O     0.29506   0.97159   0.31306   0.00000  Uiso   1.00
O362   O     0.02259   0.69942   0.31435   0.00000  Uiso   1.00
N363   N     0.06485   0.94544   0.08398   0.00000  Uiso   1.00
N364   N     0.22691   0.96630   0.36263   0.00000  Uiso   1.00
N365   N     0.03275   0.77235   0.36351   0.00000  Uiso   1.00
N366   N     0.10537   0.89826   0.17909   0.00000  Uiso   1.00
N367   N     0.26743   0.91913   0.45774   0.00000  Uiso   1.00
N368   N     0.07326   0.72517   0.45862   0.00000  Uiso   1.00
C369   C     0.89541   0.39884   0.09505   0.00000  Uiso   1.00
C370   C     0.89647   0.40015   0.25304   0.00000  Uiso   1.00
C371   C     0.91992   0.42753   0.33290   0.00000  Uiso   1.00
C372   C     0.91657   0.42371   0.47584   0.00000  Uiso   1.00
C373   C     0.92213   0.43034   0.71191   0.00000  Uiso   1.00
C374   C     0.85180   0.40590   0.05425   0.00000  Uiso   1.00
C375   C     0.83770   0.43812   0.96695   0.00000  Uiso   1.00
C376   C     0.79675   0.43914   0.94253   0.00000  Uiso   1.00
C377   C     0.73297   0.45469   0.86989   0.00000  Uiso   1.00
C378   C     0.90531   0.35245   0.05451   0.00000  Uiso   1.00
C379   C     0.93620   0.33972   0.96740   0.00000  Uiso   1.00
C380   C     0.94030   0.29574   0.94318   0.00000  Uiso   1.00
C381   C     0.95961   0.22830   0.87095   0.00000  Uiso   1.00
C382   C     0.84777   0.34336   0.20689   0.00000  Uiso   1.00
C383   C     0.87058   0.37002   0.31379   0.00000  Uiso   1.00
C384   C     0.86720   0.36615   0.45664   0.00000  Uiso   1.00
C385   C     0.89064   0.39352   0.53670   0.00000  Uiso   1.00
C386   C     0.82592   0.37577   0.11499   0.00000  Uiso   1.00
C387   C     0.78498   0.37674   0.09069   0.00000  Uiso   1.00
C388   C     0.77082   0.40896   0.00339   0.00000  Uiso   1.00
C389   C     0.87944   0.32232   0.11526   0.00000  Uiso   1.00
C390   C     0.88349   0.27835   0.09116   0.00000  Uiso   1.00
C391   C     0.91438   0.26556   0.00404   0.00000  Uiso   1.00
H392   H     0.91556   0.42230   0.04776   0.00000  Uiso   1.00
H393   H     0.93994   0.45085   0.28585   0.00000  Uiso   1.00
H394   H     0.85773   0.46143   0.91995   0.00000  Uiso   1.00
H395   H     0.95622   0.36305   0.92041   0.00000  Uiso   1.00
H396   H     0.95554   0.46922   0.57661   0.00000  Uiso   1.00
H397   H     0.78221   0.49153   0.80505   0.00000  Uiso   1.00
H398   H     0.98990   0.28407   0.80602   0.00000  Uiso   1.00
H399   H     0.82761   0.31990   0.25419   0.00000  Uiso   1.00
H400   H     0.84717   0.34283   0.50362   0.00000  Uiso   1.00
H401   H     0.76497   0.35342   0.13771   0.00000  Uiso   1.00
H402   H     0.86346   0.25504   0.13818   0.00000  Uiso   1.00
H403   H     0.88025   0.38156   0.75336   0.00000  Uiso   1.00
H404   H     0.70692   0.40387   0.98179   0.00000  Uiso   1.00
H405   H     0.91460   0.19641   0.98277   0.00000  Uiso   1.00
O406   O     0.93234   0.44233   0.82535   0.00000  Uiso   1.00
O407   O     0.70494   0.47159   0.81306   0.00000  Uiso   1.00
O408   O     0.97741   0.19942   0.81435   0.00000  Uiso   1.00
N409   N     0.93515   0.44544   0.58398   0.00000  Uiso   1.00
N410   N     0.77309   0.46630   0.86263   0.00000  Uiso   1.00
N411   N     0.96725   0.27235   0.86351   0.00000  Uiso   1.00
N412   N     0.89463   0.39826   0.67909   0.00000  Uiso   1.00
N413   N     0.73257   0.41913   0.95774   0.00000  Uiso   1.00
N414   N     0.92674   0.22517   0.95862   0.00000  Uiso   1.00
C415   C     0.39541   0.89884   0.09505   0.00000  Uiso   1.00
C416   C     0.39647   0.90015   0.25304   0.00000  Uiso   1.00
C417   C     0.41992   0.92753   0.33290   0.00000  Uiso   1.00
C418   C     0.41657   0.92371   0.47584   0.00000  Uiso   1.00
C419   C     0.42213   0.93034   0.71191   0.00000  Uiso   1.00
C420   C     0.35180   0.90590   0.05425   0.00000  Uiso   1.00
C421   C     0.33770   0.93812   0.96695   0.00000  Uiso   1.00
C422   C     0.29675   0.93914   0.94253   0.00000  Uiso   1.00
C423   C     0.23297   0.95469   0.86989   0.00000  Uiso   1.00
C424   C     0.40531   0.85245   0.05451   0.00000  Uiso   1.00
C425   C     0.43620   0.83972   0.96740   0.00000  Uiso   1.00
C426   C     0.44030   0.79574   0.94318   0.00000  Uiso   1.00
C427   C     0.45961   0.72830   0.87095   0.00000  Uiso   1.00
C428   C     0.34777   0.84336   0.20689   0.00000  Uiso   1.00
C429   C     0.37058   0.87002   0.31379   0.00000  Uiso   1.00
C430   C     0.36720   0.86615   0.45664   0.00000  Uiso   1.00
C431   C     0.39064   0.89352   0.53670   0.00000  Uiso   1.00
C432   C     0.32592   0.87577   0.11499   0.00000  Uiso   1.00
C433   C     0.28498   0.87674   0.09069   0.00000  Uiso   1.00
C434   C     0.27082   0.90896   0.00339   0.00000  Uiso   1.00
C435   C     0.37944   0.82232   0.11526   0.00000  Uiso   1.00
C436   C     0.38349   0.77835   0.09116   0.00000  Uiso   1.00
C437   C     0.41438   0.76556   0.00404   0.00000  Uiso   1.00
H438   H     0.41556   0.92230   0.04776   0.00000  Uiso   1.00
H439   H     0.43994   0.95085   0.28585   0.00000  Uiso   1.00
H440   H     0.35773   0.96143   0.91995   0.00000  Uiso   1.00
H441   H     0.45622   0.86305   0.92041   0.00000  Uiso   1.00
H442   H     0.45554   0.96922   0.57661   0.00000  Uiso   1.00
H443   H     0.28221   0.99153   0.80505   0.00000  Uiso   1.00
H444   H     0.48990   0.78407   0.80602   0.00000  Uiso   1.00
H445   H     0.32761   0.81990   0.25419   0.00000  Uiso   1.00
H446   H     0.34717   0.84283   0.50362   0.00000  Uiso   1.00
H447   H     0.26497   0.85342   0.13771   0.00000  Uiso   1.00
H448   H     0.36346   0.75504   0.13818   0.00000  Uiso   1.00
H449   H     0.38025   0.88156   0.75336   0.00000  Uiso   1.00
H450   H     0.20692   0.90387   0.98179   0.00000  Uiso   1.00
H451   H     0.41460   0.69641   0.98277   0.00000  Uiso   1.00
O452   O     0.43234   0.94233   0.82535   0.00000  Uiso   1.00
O453   O     0.20494   0.97159   0.81306   0.00000  Uiso   1.00
O454   O     0.47741   0.69942   0.81435   0.00000  Uiso   1.00
N455   N     0.43515   0.94544   0.58398   0.00000  Uiso   1.00
N456   N     0.27309   0.96630   0.86263   0.00000  Uiso   1.00
N457   N     0.46725   0.77235   0.86351   0.00000  Uiso   1.00
N458   N     0.39463   0.89826   0.67909   0.00000  Uiso   1.00
N459   N     0.23257   0.91913   0.95774   0.00000  Uiso   1.00
N460   N     0.42674   0.72517   0.95862   0.00000  Uiso   1.00
C461   C     0.60459   0.10116   0.09505   0.00000  Uiso   1.00
C462   C     0.60353   0.09985   0.25304   0.00000  Uiso   1.00
C463   C     0.58008   0.07247   0.33290   0.00000  Uiso   1.00
C464   C     0.58343   0.07629   0.47584   0.00000  Uiso   1.00
C465   C     0.57787   0.06966   0.71191   0.00000  Uiso   1.00
C466   C     0.64820   0.09410   0.05425   0.00000  Uiso   1.00
C467   C     0.66230   0.06188   0.96695   0.00000  Uiso   1.00
C468   C     0.70325   0.06086   0.94253   0.00000  Uiso   1.00
C469   C     0.76703   0.04531   0.86989   0.00000  Uiso   1.00
C470   C     0.59469   0.14755   0.05451   0.00000  Uiso   1.00
C471   C     0.56380   0.16028   0.96740   0.00000  Uiso   1.00
C472   C     0.55970   0.20426   0.94318   0.00000  Uiso   1.00
C473   C     0.54039   0.27170   0.87095   0.00000  Uiso   1.00
C474   C     0.65223   0.15664   0.20689   0.00000  Uiso   1.00
C475   C     0.62942   0.12998   0.31379   0.00000  Uiso   1.00
C476   C     0.63280   0.13385   0.45664   0.00000  Uiso   1.00
C477   C     0.60936   0.10648   0.53670   0.00000  Uiso   1.00
C478   C     0.67408   0.12423   0.11499   0.00000  Uiso   1.00
C479   C     0.71502   0.12326   0.09069   0.00000  Uiso   1.00
C480   C     0.72918   0.09104   0.00339   0.00000  Uiso   1.00
C481   C     0.62056   0.17768   0.11526   0.00000  Uiso   1.00
C482   C     0.61651   0.22165   0.09116   0.00000  Uiso   1.00
C483   C     0.58562   0.23444   0.00404   0.00000  Uiso   1.00
H484   H     0.58444   0.07770   0.04776   0.00000  Uiso   1.00
H485   H     0.56006   0.04915   0.28585   0.00000  Uiso   1.00
H486   H     0.64227   0.03857   0.91995   0.00000  Uiso   1.00
H487   H     0.54378   0.13695   0.92041   0.00000  Uiso   1.00
H488   H     0.54446   0.03078   0.57661   0.00000  Uiso   1.00
H489   H     0.71779   0.00847   0.80505   0.00000  Uiso   1.00
H490   H     0.51010   0.21593   0.80602   0.00000  Uiso   1.00
H491   H     0.67239   0.18010   0.25419   0.00000  Uiso   1.00
H492   H     0.65283   0.15717   0.50362   0.00000  Uiso   1.00
H493   H     0.73503   0.14658   0.13771   0.00000  Uiso   1.00
H494   H     0.63654   0.24496   0.13818   0.00000  Uiso   1.00
H495   H     0.61975   0.11844   0.75336   0.00000  Uiso   1.00
H496   H     0.79308   0.09613   0.98179   0.00000  Uiso   1.00
H497   H     0.58540   0.30359   0.98277   0.00000  Uiso   1.00
O498   O     0.56766   0.05767   0.82535   0.00000  Uiso   1.00
O499   O     0.79506   0.02841   0.81306   0.00000  Uiso   1.00
O500   O     0.52259   0.30058   0.81435   0.00000  Uiso   1.00
N501   N     0.56485   0.05456   0.58398   0.00000  Uiso   1.00
N502   N     0.72691   0.03370   0.86263   0.00000  Uiso   1.00
N503   N     0.53275   0.22765   0.86351   0.00000  Uiso   1.00
N504   N     0.60537   0.10174   0.67909   0.00000  Uiso   1.00
N505   N     0.76743   0.08087   0.95774   0.00000  Uiso   1.00
N506   N     0.57326   0.27483   0.95862   0.00000  Uiso   1.00
C507   C     0.10459   0.60116   0.09505   0.00000  Uiso   1.00
C508   C     0.10353   0.59985   0.25304   0.00000  Uiso   1.00
C509   C     0.08008   0.57247   0.33290   0.00000  Uiso   1.00
C510   C     0.08343   0.57629   0.47584   0.00000  Uiso   1.00
C511   C     0.07787   0.56966   0.71191   0.00000  Uiso   1.00
C512   C     0.14820   0.59410   0.05425   0.00000  Uiso   1.00
C513   C     0.16230   0.56188   0.96695   0.00000  Uiso   1.00
C514   C     0.20325   0.56086   0.94253   0.00000  Uiso   1.00
C515   C     0.26703   0.54531   0.86989   0.00000  Uiso   1.00
C516   C     0.09469   0.64755   0.05451   0.00000  Uiso   1.00
C517   C     0.06380   0.66028   0.96740   0.00000  Uiso   1.00
C518   C     0.05970   0.70426   0.94318   0.00000  Uiso   1.00
C519   C     0.04039   0.77170   0.87095   0.00000  Uiso   1.00
C520   C     0.15223   0.65664   0.20689   0.00000  Uiso   1.00
C521   C     0.12942   0.62998   0.31379   0.00000  Uiso   1.00
C522   C     0.13280   0.63385   0.45664   0.00000  Uiso   1.00
C523   C     0.10936   0.60648   0.53670   0.00000  Uiso   1.00
C524   C     0.17408   0.62423   0.11499   0.00000  Uiso   1.00
C525   C     0.21502   0.62326   0.09069   0.00000  Uiso   1.00
C526   C     0.22918   0.59104   0.00339   0.00000  Uiso   1.00
C527   C     0.12056   0.67768   0.11526   0.00000  Uiso   1.00
C528   C     0.11651   0.72165   0.09116   0.00000  Uiso   1.00
C529   C     0.08562   0.73444   0.00404   0.00000  Uiso   1.00
H530   H     0.08444   0.57770   0.04776   0.00000  Uiso   1.00
H531   H     0.06006   0.54915   0.28585   0.00000  Uiso   1.00
H532   H     0.14227   0.53857   0.91995   0.00000  Uiso   1.00
H533   H     0.04378   0.63695   0.92041   0.00000  Uiso   1.00
H534   H     0.04446   0.53078   0.57661   0.00000  Uiso   1.00
H535   H     0.21779   0.50847   0.80505   0.00000  Uiso   1.00
H536   H     0.01010   0.71593   0.80602   0.00000  Uiso   1.00
H537   H     0.17239   0.68010   0.25419   0.00000  Uiso   1.00
H538   H     0.15283   0.65717   0.50362   0.00000  Uiso   1.00
H539   H     0.23503   0.64658   0.13771   0.00000  Uiso   1.00
H540   H     0.13654   0.74496   0.13818   0.00000  Uiso   1.00
H541   H     0.11975   0.61844   0.75336   0.00000  Uiso   1.00
H542   H     0.29308   0.59613   0.98179   0.00000  Uiso   1.00
H543   H     0.08540   0.80359   0.98277   0.00000  Uiso   1.00
O544   O     0.06766   0.55767   0.82535   0.00000  Uiso   1.00
O545   O     0.29506   0.52841   0.81306   0.00000  Uiso   1.00
O546   O     0.02259   0.80058   0.81435   0.00000  Uiso   1.00
N547   N     0.06485   0.55456   0.58398   0.00000  Uiso   1.00
N548   N     0.22691   0.53370   0.86263   0.00000  Uiso   1.00
N549   N     0.03275   0.72765   0.86351   0.00000  Uiso   1.00
N550   N     0.10537   0.60174   0.67909   0.00000  Uiso   1.00
N551   N     0.26743   0.58087   0.95774   0.00000  Uiso   1.00
N552   N     0.07326   0.77483   0.95862   0.00000  Uiso   1.00
C553   C     0.10459   0.39884   0.90495   0.00000  Uiso   1.00
C554   C     0.10353   0.40015   0.74696   0.00000  Uiso   1.00
C555   C     0.08008   0.42753   0.66710   0.00000  Uiso   1.00
C556   C     0.08343   0.42371   0.52416   0.00000  Uiso   1.00
C557   C     0.07787   0.43034   0.28809   0.00000  Uiso   1.00
C558   C     0.14820   0.40590   0.94575   0.00000  Uiso   1.00
C559   C     0.16230   0.43812   0.03305   0.00000  Uiso   1.00
C560   C     0.20325   0.43914   0.05747   0.00000  Uiso   1.00
C561   C     0.26703   0.45469   0.13011   0.00000  Uiso   1.00
C562   C     0.09469   0.35245   0.94549   0.00000  Uiso   1.00
C563   C     0.06380   0.33972   0.03260   0.00000  Uiso   1.00
C564   C     0.05970   0.29574   0.05682   0.00000  Uiso   1.00
C565   C     0.04039   0.22830   0.12905   0.00000  Uiso   1.00
C566   C     0.15223   0.34336   0.79311   0.00000  Uiso   1.00
C567   C     0.12942   0.37002   0.68621   0.00000  Uiso   1.00
C568   C     0.13280   0.36615   0.54336   0.00000  Uiso   1.00
C569   C     0.10936   0.39352   0.46330   0.00000  Uiso   1.00
C570   C     0.17408   0.37577   0.88501   0.00000  Uiso   1.00
C571   C     0.21502   0.37674   0.90931   0.00000  Uiso   1.00
C572   C     0.22918   0.40896   0.99661   0.00000  Uiso   1.00
C573   C     0.12056   0.32232   0.88474   0.00000  Uiso   1.00
C574   C     0.11651   0.27835   0.90884   0.00000  Uiso   1.00
C575   C     0.08562   0.26556   0.99596   0.00000  Uiso   1.00
H576   H     0.08444   0.42230   0.95224   0.00000  Uiso   1.00
H577   H     0.06006   0.45085   0.71415   0.00000  Uiso   1.00
H578   H     0.14227   0.46143   0.08005   0.00000  Uiso   1.00
H579   H     0.04378   0.36305   0.07959   0.00000  Uiso   1.00
H580   H     0.04446   0.46922   0.42339   0.00000  Uiso   1.00
H581   H     0.21779   0.49153   0.19495   0.00000  Uiso   1.00
H582   H     0.01010   0.28407   0.19398   0.00000  Uiso   1.00
H583   H     0.17239   0.31990   0.74581   0.00000  Uiso   1.00
H584   H     0.15283   0.34283   0.49638   0.00000  Uiso   1.00
H585   H     0.23503   0.35342   0.86229   0.00000  Uiso   1.00
H586   H     0.13654   0.25504   0.86182   0.00000  Uiso   1.00
H587   H     0.11975   0.38156   0.24664   0.00000  Uiso   1.00
H588   H     0.29308   0.40387   0.01821   0.00000  Uiso   1.00
H589   H     0.08540   0.19641   0.01723   0.00000  Uiso   1.00
O590   O     0.06766   0.44233   0.17465   0.00000  Uiso   1.00
O591   O     0.29506   0.47159   0.18694   0.00000  Uiso   1.00
O592   O     0.02259   0.19942   0.18565   0.00000  Uiso   1.00
N593   N     0.06485   0.44544   0.41602   0.00000  Uiso   1.00
N594   N     0.22691   0.46630   0.13737   0.00000  Uiso   1.00
N595   N     0.03275   0.27235   0.13649   0.00000  Uiso   1.00
N596   N     0.10537   0.39826   0.32091   0.00000  Uiso   1.00
N597   N     0.26743   0.41913   0.04226   0.00000  Uiso   1.00
N598   N     0.07326   0.22517   0.04138   0.00000  Uiso   1.00
C599   C     0.60459   0.89884   0.90495   0.00000  Uiso   1.00
C600   C     0.60353   0.90015   0.74696   0.00000  Uiso   1.00
C601   C     0.58008   0.92753   0.66710   0.00000  Uiso   1.00
C602   C     0.58343   0.92371   0.52416   0.00000  Uiso   1.00
C603   C     0.57787   0.93034   0.28809   0.00000  Uiso   1.00
C604   C     0.64820   0.90590   0.94575   0.00000  Uiso   1.00
C605   C     0.66230   0.93812   0.03305   0.00000  Uiso   1.00
C606   C     0.70325   0.93914   0.05747   0.00000  Uiso   1.00
C607   C     0.76703   0.95469   0.13011   0.00000  Uiso   1.00
C608   C     0.59469   0.85245   0.94549   0.00000  Uiso   1.00
C609   C     0.56380   0.83972   0.03260   0.00000  Uiso   1.00
C610   C     0.55970   0.79574   0.05682   0.00000  Uiso   1.00
C611   C     0.54039   0.72830   0.12905   0.00000  Uiso   1.00
C612   C     0.65223   0.84336   0.79311   0.00000  Uiso   1.00
C613   C     0.62942   0.87002   0.68621   0.00000  Uiso   1.00
C614   C     0.63280   0.86615   0.54336   0.00000  Uiso   1.00
C615   C     0.60936   0.89352   0.46330   0.00000  Uiso   1.00
C616   C     0.67408   0.87577   0.88501   0.00000  Uiso   1.00
C617   C     0.71502   0.87674   0.90931   0.00000  Uiso   1.00
C618   C     0.72918   0.90896   0.99661   0.00000  Uiso   1.00
C619   C     0.62056   0.82232   0.88474   0.00000  Uiso   1.00
C620   C     0.61651   0.77835   0.90884   0.00000  Uiso   1.00
C621   C     0.58562   0.76556   0.99596   0.00000  Uiso   1.00
H622   H     0.58444   0.92230   0.95224   0.00000  Uiso   1.00
H623   H     0.56006   0.95085   0.71415   0.00000  Uiso   1.00
H624   H     0.64227   0.96143   0.08005   0.00000  Uiso   1.00
H625   H     0.54378   0.86305   0.07959   0.00000  Uiso   1.00
H626   H     0.54446   0.96922   0.42339   0.00000  Uiso   1.00
H627   H     0.71779   0.99153   0.19495   0.00000  Uiso   1.00
H628   H     0.51010   0.78407   0.19398   0.00000  Uiso   1.00
H629   H     0.67239   0.81990   0.74581   0.00000  Uiso   1.00
H630   H     0.65283   0.84283   0.49638   0.00000  Uiso   1.00
H631   H     0.73503   0.85342   0.86229   0.00000  Uiso   1.00
H632   H     0.63654   0.75504   0.86182   0.00000  Uiso   1.00
H633   H     0.61975   0.88156   0.24664   0.00000  Uiso   1.00
H634   H     0.79308   0.90387   0.01821   0.00000  Uiso   1.00
H635   H     0.58540   0.69641   0.01723   0.00000  Uiso   1.00
O636   O     0.56766   0.94233   0.17465   0.00000  Uiso   1.00
O637   O     0.79506   0.97159   0.18694   0.00000  Uiso   1.00
O638   O     0.52259   0.69942   0.18565   0.00000  Uiso   1.00
N639   N     0.56485   0.94544   0.41602   0.00000  Uiso   1.00
N640   N     0.72691   0.96630   0.13737   0.00000  Uiso   1.00
N641   N     0.53275   0.77235   0.13649   0.00000  Uiso   1.00
N642   N     0.60537   0.89826   0.32091   0.00000  Uiso   1.00
N643   N     0.76743   0.91913   0.04226   0.00000  Uiso   1.00
N644   N     0.57326   0.72517   0.04138   0.00000  Uiso   1.00
C645   C     0.39541   0.10116   0.90495   0.00000  Uiso   1.00
C646   C     0.39647   0.09985   0.74696   0.00000  Uiso   1.00
C647   C     0.41992   0.07247   0.66710   0.00000  Uiso   1.00
C648   C     0.41657   0.07629   0.52416   0.00000  Uiso   1.00
C649   C     0.42213   0.06966   0.28809   0.00000  Uiso   1.00
C650   C     0.35180   0.09410   0.94575   0.00000  Uiso   1.00
C651   C     0.33770   0.06188   0.03305   0.00000  Uiso   1.00
C652   C     0.29675   0.06086   0.05747   0.00000  Uiso   1.00
C653   C     0.23297   0.04531   0.13011   0.00000  Uiso   1.00
C654   C     0.40531   0.14755   0.94549   0.00000  Uiso   1.00
C655   C     0.43620   0.16028   0.03260   0.00000  Uiso   1.00
C656   C     0.44030   0.20426   0.05682   0.00000  Uiso   1.00
C657   C     0.45961   0.27170   0.12905   0.00000  Uiso   1.00
C658   C     0.34777   0.15664   0.79311   0.00000  Uiso   1.00
C659   C     0.37058   0.12998   0.68621   0.00000  Uiso   1.00
C660   C     0.36720   0.13385   0.54336   0.00000  Uiso   1.00
C661   C     0.39064   0.10648   0.46330   0.00000  Uiso   1.00
C662   C     0.32592   0.12423   0.88501   0.00000  Uiso   1.00
C663   C     0.28498   0.12326   0.90931   0.00000  Uiso   1.00
C664   C     0.27082   0.09104   0.99661   0.00000  Uiso   1.00
C665   C     0.37944   0.17768   0.88474   0.00000  Uiso   1.00
C666   C     0.38349   0.22165   0.90884   0.00000  Uiso   1.00
C667   C     0.41438   0.23444   0.99596   0.00000  Uiso   1.00
H668   H     0.41556   0.07770   0.95224   0.00000  Uiso   1.00
H669   H     0.43994   0.04915   0.71415   0.00000  Uiso   1.00
H670   H     0.35773   0.03857   0.08005   0.00000  Uiso   1.00
H671   H     0.45622   0.13695   0.07959   0.00000  Uiso   1.00
H672   H     0.45554   0.03078   0.42339   0.00000  Uiso   1.00
H673   H     0.28221   0.00847   0.19495   0.00000  Uiso   1.00
H674   H     0.48990   0.21593   0.19398   0.00000  Uiso   1.00
H675   H     0.32761   0.18010   0.74581   0.00000  Uiso   1.00
H676   H     0.34717   0.15717   0.49638   0.00000  Uiso   1.00
H677   H     0.26497   0.14658   0.86229   0.00000  Uiso   1.00
H678   H     0.36346   0.24496   0.86182   0.00000  Uiso   1.00
H679   H     0.38025   0.11844   0.24664   0.00000  Uiso   1.00
H680   H     0.20692   0.09613   0.01821   0.00000  Uiso   1.00
H681   H     0.41460   0.30359   0.01723   0.00000  Uiso   1.00
O682   O     0.43234   0.05767   0.17465   0.00000  Uiso   1.00
O683   O     0.20494   0.02841   0.18694   0.00000  Uiso   1.00
O684   O     0.47741   0.30058   0.18565   0.00000  Uiso   1.00
N685   N     0.43515   0.05456   0.41602   0.00000  Uiso   1.00
N686   N     0.27309   0.03370   0.13737   0.00000  Uiso   1.00
N687   N     0.46725   0.22765   0.13649   0.00000  Uiso   1.00
N688   N     0.39463   0.10174   0.32091   0.00000  Uiso   1.00
N689   N     0.23257   0.08087   0.04226   0.00000  Uiso   1.00
N690   N     0.42674   0.27483   0.04138   0.00000  Uiso   1.00
C691   C     0.89541   0.60116   0.90495   0.00000  Uiso   1.00
C692   C     0.89647   0.59985   0.74696   0.00000  Uiso   1.00
C693   C     0.91992   0.57247   0.66710   0.00000  Uiso   1.00
C694   C     0.91657   0.57629   0.52416   0.00000  Uiso   1.00
C695   C     0.92213   0.56966   0.28809   0.00000  Uiso   1.00
C696   C     0.85180   0.59410   0.94575   0.00000  Uiso   1.00
C697   C     0.83770   0.56188   0.03305   0.00000  Uiso   1.00
C698   C     0.79675   0.56086   0.05747   0.00000  Uiso   1.00
C699   C     0.73297   0.54531   0.13011   0.00000  Uiso   1.00
C700   C     0.90531   0.64755   0.94549   0.00000  Uiso   1.00
C701   C     0.93620   0.66028   0.03260   0.00000  Uiso   1.00
C702   C     0.94030   0.70426   0.05682   0.00000  Uiso   1.00
C703   C     0.95961   0.77170   0.12905   0.00000  Uiso   1.00
C704   C     0.84777   0.65664   0.79311   0.00000  Uiso   1.00
C705   C     0.87058   0.62998   0.68621   0.00000  Uiso   1.00
C706   C     0.86720   0.63385   0.54336   0.00000  Uiso   1.00
C707   C     0.89064   0.60648   0.46330   0.00000  Uiso   1.00
C708   C     0.82592   0.62423   0.88501   0.00000  Uiso   1.00
C709   C     0.78498   0.62326   0.90931   0.00000  Uiso   1.00
C710   C     0.77082   0.59104   0.99661   0.00000  Uiso   1.00
C711   C     0.87944   0.67768   0.88474   0.00000  Uiso   1.00
C712   C     0.88349   0.72165   0.90884   0.00000  Uiso   1.00
C713   C     0.91438   0.73444   0.99596   0.00000  Uiso   1.00
H714   H     0.91556   0.57770   0.95224   0.00000  Uiso   1.00
H715   H     0.93994   0.54915   0.71415   0.00000  Uiso   1.00
H716   H     0.85773   0.53857   0.08005   0.00000  Uiso   1.00
H717   H     0.95622   0.63695   0.07959   0.00000  Uiso   1.00
H718   H     0.95554   0.53078   0.42339   0.00000  Uiso   1.00
H719   H     0.78221   0.50847   0.19495   0.00000  Uiso   1.00
H720   H     0.98990   0.71593   0.19398   0.00000  Uiso   1.00
H721   H     0.82761   0.68010   0.74581   0.00000  Uiso   1.00
H722   H     0.84717   0.65717   0.49638   0.00000  Uiso   1.00
H723   H     0.76497   0.64658   0.86229   0.00000  Uiso   1.00
H724   H     0.86346   0.74496   0.86182   0.00000  Uiso   1.00
H725   H     0.88025   0.61844   0.24664   0.00000  Uiso   1.00
H726   H     0.70692   0.59613   0.01821   0.00000  Uiso   1.00
H727   H     0.91460   0.80359   0.01723   0.00000  Uiso   1.00
O728   O     0.93234   0.55767   0.17465   0.00000  Uiso   1.00
O729   O     0.70494   0.52841   0.18694   0.00000  Uiso   1.00
O730   O     0.97741   0.80058   0.18565   0.00000  Uiso   1.00
N731   N     0.93515   0.55456   0.41602   0.00000  Uiso   1.00
N732   N     0.77309   0.53370   0.13737   0.00000  Uiso   1.00
N733   N     0.96725   0.72765   0.13649   0.00000  Uiso   1.00
N734   N     0.89463   0.60174   0.32091   0.00000  Uiso   1.00
N735   N     0.73257   0.58087   0.04226   0.00000  Uiso   1.00
N736   N     0.92674   0.77483   0.04138   0.00000  Uiso   1.00
