data_job_05035
_audit_creation_date              2018-12-19
_audit_creation_method            'Materials Studio'
_symmetry_space_group_name_H-M    'P1'
_symmetry_Int_Tables_number       1
_symmetry_cell_setting            triclinic
loop_
_symmetry_equiv_pos_as_xyz
  x,y,z
_cell_length_a                    17.7644
_cell_length_b                    37.3184
_cell_length_c                    15.8219
_cell_angle_alpha                 90.0000
_cell_angle_beta                  90.0000
_cell_angle_gamma                 90.0000
loop_
_atom_site_label
_atom_site_type_symbol
_atom_site_fract_x
_atom_site_fract_y
_atom_site_fract_z
_atom_site_U_iso_or_equiv
_atom_site_adp_type
_atom_site_occupancy
C1     C     0.81142   0.50147   0.65558   0.00000  Uiso   1.00
C2     C     0.80534   0.46097   0.66649   0.00000  Uiso   1.00
C3     C     0.82587   0.43548   0.60694   0.00000  Uiso   1.00
C4     C     0.81594   0.39978   0.62900   0.00000  Uiso   1.00
C5     C     0.81095   0.33839   0.63393   0.00000  Uiso   1.00
C6     C     0.73251   0.51626   0.67052   0.00000  Uiso   1.00
C7     C     0.69181   0.53726   0.61436   0.00000  Uiso   1.00
C8     C     0.62057   0.54811   0.63982   0.00000  Uiso   1.00
C9     C     0.50253   0.57258   0.65104   0.00000  Uiso   1.00
C10    C     0.85928   0.51480   0.72915   0.00000  Uiso   1.00
C11    C     0.92516   0.53457   0.72229   0.00000  Uiso   1.00
C12    C     0.96065   0.54420   0.79712   0.00000  Uiso   1.00
C13    C     0.03944   0.56639   0.89936   0.00000  Uiso   1.00
C14    C     0.75727   0.48341   0.80065   0.00000  Uiso   1.00
C15    C     0.77593   0.45116   0.74528   0.00000  Uiso   1.00
C16    C     0.76597   0.41549   0.76744   0.00000  Uiso   1.00
C17    C     0.78648   0.38995   0.70793   0.00000  Uiso   1.00
C18    C     0.70310   0.50645   0.74931   0.00000  Uiso   1.00
C19    C     0.63191   0.51727   0.77486   0.00000  Uiso   1.00
C20    C     0.59111   0.53828   0.71876   0.00000  Uiso   1.00
C21    C     0.82987   0.50499   0.80794   0.00000  Uiso   1.00
C22    C     0.86526   0.51459   0.88279   0.00000  Uiso   1.00
C23    C     0.93119   0.53437   0.87605   0.00000  Uiso   1.00
H24    H     0.83431   0.50911   0.59424   0.00000  Uiso   1.00
H25    H     0.84862   0.44308   0.54596   0.00000  Uiso   1.00
H26    H     0.71459   0.54485   0.55339   0.00000  Uiso   1.00
H27    H     0.94790   0.54216   0.66131   0.00000  Uiso   1.00
H28    H     0.85150   0.36555   0.52718   0.00000  Uiso   1.00
H29    H     0.56888   0.58014   0.54286   0.00000  Uiso   1.00
H30    H     0.06088   0.57447   0.77041   0.00000  Uiso   1.00
H31    H     0.73437   0.47577   0.86200   0.00000  Uiso   1.00
H32    H     0.74321   0.40791   0.82842   0.00000  Uiso   1.00
H33    H     0.60917   0.50968   0.83584   0.00000  Uiso   1.00
H34    H     0.84249   0.50699   0.94376   0.00000  Uiso   1.00
H35    H     0.76594   0.33701   0.75643   0.00000  Uiso   1.00
H36    H     0.48332   0.55160   0.77211   0.00000  Uiso   1.00
H37    H     0.97532   0.54593   0.99966   0.00000  Uiso   1.00
O38    O     0.81631   0.30724   0.61488   0.00000  Uiso   1.00
O39    O     0.44554   0.58878   0.63545   0.00000  Uiso   1.00
O40    O     0.09103   0.58134   0.93399   0.00000  Uiso   1.00
N41    N     0.83017   0.36814   0.58575   0.00000  Uiso   1.00
N42    N     0.56593   0.56877   0.60040   0.00000  Uiso   1.00
N43    N     0.02590   0.56348   0.81314   0.00000  Uiso   1.00
N44    N     0.78413   0.35278   0.70911   0.00000  Uiso   1.00
N45    N     0.51989   0.55341   0.72376   0.00000  Uiso   1.00
N46    N     0.97986   0.54812   0.93650   0.00000  Uiso   1.00
C47    C     0.81142   0.00147   0.15558   0.00000  Uiso   1.00
C48    C     0.80534   0.96097   0.16649   0.00000  Uiso   1.00
C49    C     0.82587   0.93548   0.10694   0.00000  Uiso   1.00
C50    C     0.81594   0.89978   0.12900   0.00000  Uiso   1.00
C51    C     0.81095   0.83839   0.13393   0.00000  Uiso   1.00
C52    C     0.73251   0.01626   0.17052   0.00000  Uiso   1.00
C53    C     0.69181   0.03726   0.11436   0.00000  Uiso   1.00
C54    C     0.62057   0.04811   0.13982   0.00000  Uiso   1.00
C55    C     0.50253   0.07258   0.15104   0.00000  Uiso   1.00
C56    C     0.85928   0.01480   0.22915   0.00000  Uiso   1.00
C57    C     0.92516   0.03457   0.22229   0.00000  Uiso   1.00
C58    C     0.96065   0.04420   0.29712   0.00000  Uiso   1.00
C59    C     0.03944   0.06639   0.39936   0.00000  Uiso   1.00
C60    C     0.75727   0.98341   0.30065   0.00000  Uiso   1.00
C61    C     0.77593   0.95116   0.24528   0.00000  Uiso   1.00
C62    C     0.76597   0.91549   0.26744   0.00000  Uiso   1.00
C63    C     0.78648   0.88995   0.20793   0.00000  Uiso   1.00
C64    C     0.70310   0.00645   0.24931   0.00000  Uiso   1.00
C65    C     0.63191   0.01727   0.27486   0.00000  Uiso   1.00
C66    C     0.59111   0.03828   0.21876   0.00000  Uiso   1.00
C67    C     0.82987   0.00499   0.30794   0.00000  Uiso   1.00
C68    C     0.86526   0.01459   0.38279   0.00000  Uiso   1.00
C69    C     0.93119   0.03437   0.37605   0.00000  Uiso   1.00
H70    H     0.83431   0.00911   0.09424   0.00000  Uiso   1.00
H71    H     0.84862   0.94308   0.04596   0.00000  Uiso   1.00
H72    H     0.71459   0.04485   0.05339   0.00000  Uiso   1.00
H73    H     0.94790   0.04216   0.16131   0.00000  Uiso   1.00
H74    H     0.85150   0.86555   0.02718   0.00000  Uiso   1.00
H75    H     0.56888   0.08014   0.04286   0.00000  Uiso   1.00
H76    H     0.06088   0.07447   0.27041   0.00000  Uiso   1.00
H77    H     0.73437   0.97577   0.36200   0.00000  Uiso   1.00
H78    H     0.74321   0.90791   0.32842   0.00000  Uiso   1.00
H79    H     0.60917   0.00968   0.33584   0.00000  Uiso   1.00
H80    H     0.84249   0.00699   0.44376   0.00000  Uiso   1.00
H81    H     0.76594   0.83701   0.25643   0.00000  Uiso   1.00
H82    H     0.48332   0.05160   0.27211   0.00000  Uiso   1.00
H83    H     0.97532   0.04593   0.49966   0.00000  Uiso   1.00
O84    O     0.81631   0.80724   0.11488   0.00000  Uiso   1.00
O85    O     0.44554   0.08878   0.13545   0.00000  Uiso   1.00
O86    O     0.09103   0.08134   0.43399   0.00000  Uiso   1.00
N87    N     0.83017   0.86814   0.08575   0.00000  Uiso   1.00
N88    N     0.56593   0.06877   0.10040   0.00000  Uiso   1.00
N89    N     0.02590   0.06348   0.31314   0.00000  Uiso   1.00
N90    N     0.78413   0.85278   0.20911   0.00000  Uiso   1.00
N91    N     0.51989   0.05341   0.22376   0.00000  Uiso   1.00
N92    N     0.97986   0.04812   0.43650   0.00000  Uiso   1.00
C93    C     0.31142   0.50147   0.15558   0.00000  Uiso   1.00
C94    C     0.30534   0.46097   0.16649   0.00000  Uiso   1.00
C95    C     0.32587   0.43548   0.10694   0.00000  Uiso   1.00
C96    C     0.31594   0.39978   0.12900   0.00000  Uiso   1.00
C97    C     0.31095   0.33839   0.13393   0.00000  Uiso   1.00
C98    C     0.23251   0.51626   0.17052   0.00000  Uiso   1.00
C99    C     0.19181   0.53726   0.11436   0.00000  Uiso   1.00
C100   C     0.12057   0.54811   0.13982   0.00000  Uiso   1.00
C101   C     0.00253   0.57258   0.15104   0.00000  Uiso   1.00
C102   C     0.35928   0.51480   0.22915   0.00000  Uiso   1.00
C103   C     0.42516   0.53457   0.22229   0.00000  Uiso   1.00
C104   C     0.46065   0.54420   0.29712   0.00000  Uiso   1.00
C105   C     0.53944   0.56639   0.39936   0.00000  Uiso   1.00
C106   C     0.25727   0.48341   0.30065   0.00000  Uiso   1.00
C107   C     0.27593   0.45116   0.24528   0.00000  Uiso   1.00
C108   C     0.26597   0.41549   0.26744   0.00000  Uiso   1.00
C109   C     0.28648   0.38995   0.20793   0.00000  Uiso   1.00
C110   C     0.20310   0.50645   0.24931   0.00000  Uiso   1.00
C111   C     0.13191   0.51727   0.27486   0.00000  Uiso   1.00
C112   C     0.09111   0.53828   0.21876   0.00000  Uiso   1.00
C113   C     0.32987   0.50499   0.30794   0.00000  Uiso   1.00
C114   C     0.36526   0.51459   0.38279   0.00000  Uiso   1.00
C115   C     0.43119   0.53437   0.37605   0.00000  Uiso   1.00
H116   H     0.33431   0.50911   0.09424   0.00000  Uiso   1.00
H117   H     0.34862   0.44308   0.04596   0.00000  Uiso   1.00
H118   H     0.21459   0.54485   0.05339   0.00000  Uiso   1.00
H119   H     0.44790   0.54216   0.16131   0.00000  Uiso   1.00
H120   H     0.35150   0.36555   0.02718   0.00000  Uiso   1.00
H121   H     0.06888   0.58014   0.04286   0.00000  Uiso   1.00
H122   H     0.56088   0.57447   0.27041   0.00000  Uiso   1.00
H123   H     0.23437   0.47577   0.36200   0.00000  Uiso   1.00
H124   H     0.24321   0.40791   0.32842   0.00000  Uiso   1.00
H125   H     0.10917   0.50968   0.33584   0.00000  Uiso   1.00
H126   H     0.34249   0.50699   0.44376   0.00000  Uiso   1.00
H127   H     0.26594   0.33701   0.25643   0.00000  Uiso   1.00
H128   H     0.98332   0.55160   0.27211   0.00000  Uiso   1.00
H129   H     0.47532   0.54593   0.49966   0.00000  Uiso   1.00
O130   O     0.31631   0.30724   0.11488   0.00000  Uiso   1.00
O131   O     0.94554   0.58878   0.13545   0.00000  Uiso   1.00
O132   O     0.59103   0.58134   0.43399   0.00000  Uiso   1.00
N133   N     0.33017   0.36814   0.08575   0.00000  Uiso   1.00
N134   N     0.06593   0.56877   0.10040   0.00000  Uiso   1.00
N135   N     0.52590   0.56348   0.31314   0.00000  Uiso   1.00
N136   N     0.28413   0.35278   0.20911   0.00000  Uiso   1.00
N137   N     0.01989   0.55341   0.22376   0.00000  Uiso   1.00
N138   N     0.47986   0.54812   0.43650   0.00000  Uiso   1.00
C139   C     0.31142   0.00147   0.65558   0.00000  Uiso   1.00
C140   C     0.30534   0.96097   0.66649   0.00000  Uiso   1.00
C141   C     0.32587   0.93548   0.60694   0.00000  Uiso   1.00
C142   C     0.31594   0.89978   0.62900   0.00000  Uiso   1.00
C143   C     0.31095   0.83839   0.63393   0.00000  Uiso   1.00
C144   C     0.23251   0.01626   0.67052   0.00000  Uiso   1.00
C145   C     0.19181   0.03726   0.61436   0.00000  Uiso   1.00
C146   C     0.12057   0.04811   0.63982   0.00000  Uiso   1.00
C147   C     0.00253   0.07258   0.65104   0.00000  Uiso   1.00
C148   C     0.35928   0.01480   0.72915   0.00000  Uiso   1.00
C149   C     0.42516   0.03457   0.72229   0.00000  Uiso   1.00
C150   C     0.46065   0.04420   0.79712   0.00000  Uiso   1.00
C151   C     0.53944   0.06639   0.89936   0.00000  Uiso   1.00
C152   C     0.25727   0.98341   0.80065   0.00000  Uiso   1.00
C153   C     0.27593   0.95116   0.74528   0.00000  Uiso   1.00
C154   C     0.26597   0.91549   0.76744   0.00000  Uiso   1.00
C155   C     0.28648   0.88995   0.70793   0.00000  Uiso   1.00
C156   C     0.20310   0.00645   0.74931   0.00000  Uiso   1.00
C157   C     0.13191   0.01727   0.77486   0.00000  Uiso   1.00
C158   C     0.09111   0.03828   0.71876   0.00000  Uiso   1.00
C159   C     0.32987   0.00499   0.80794   0.00000  Uiso   1.00
C160   C     0.36526   0.01459   0.88279   0.00000  Uiso   1.00
C161   C     0.43119   0.03437   0.87605   0.00000  Uiso   1.00
H162   H     0.33431   0.00911   0.59424   0.00000  Uiso   1.00
H163   H     0.34862   0.94308   0.54596   0.00000  Uiso   1.00
H164   H     0.21459   0.04485   0.55339   0.00000  Uiso   1.00
H165   H     0.44790   0.04216   0.66131   0.00000  Uiso   1.00
H166   H     0.35150   0.86555   0.52718   0.00000  Uiso   1.00
H167   H     0.06888   0.08014   0.54286   0.00000  Uiso   1.00
H168   H     0.56088   0.07447   0.77041   0.00000  Uiso   1.00
H169   H     0.23437   0.97577   0.86200   0.00000  Uiso   1.00
H170   H     0.24321   0.90791   0.82842   0.00000  Uiso   1.00
H171   H     0.10917   0.00968   0.83584   0.00000  Uiso   1.00
H172   H     0.34249   0.00699   0.94376   0.00000  Uiso   1.00
H173   H     0.26594   0.83701   0.75643   0.00000  Uiso   1.00
H174   H     0.98332   0.05160   0.77211   0.00000  Uiso   1.00
H175   H     0.47532   0.04593   0.99966   0.00000  Uiso   1.00
O176   O     0.31631   0.80724   0.61488   0.00000  Uiso   1.00
O177   O     0.94554   0.08878   0.63545   0.00000  Uiso   1.00
O178   O     0.59103   0.08134   0.93399   0.00000  Uiso   1.00
N179   N     0.33017   0.86814   0.58575   0.00000  Uiso   1.00
N180   N     0.06593   0.06877   0.60040   0.00000  Uiso   1.00
N181   N     0.52590   0.06348   0.81314   0.00000  Uiso   1.00
N182   N     0.28413   0.85278   0.70911   0.00000  Uiso   1.00
N183   N     0.01989   0.05341   0.72376   0.00000  Uiso   1.00
N184   N     0.47986   0.04812   0.93650   0.00000  Uiso   1.00
C185   C     0.18858   0.49853   0.65558   0.00000  Uiso   1.00
C186   C     0.19466   0.53903   0.66649   0.00000  Uiso   1.00
C187   C     0.17413   0.56452   0.60694   0.00000  Uiso   1.00
C188   C     0.18406   0.60022   0.62900   0.00000  Uiso   1.00
C189   C     0.18905   0.66161   0.63393   0.00000  Uiso   1.00
C190   C     0.26749   0.48374   0.67052   0.00000  Uiso   1.00
C191   C     0.30819   0.46274   0.61436   0.00000  Uiso   1.00
C192   C     0.37943   0.45189   0.63982   0.00000  Uiso   1.00
C193   C     0.49747   0.42742   0.65104   0.00000  Uiso   1.00
C194   C     0.14072   0.48520   0.72915   0.00000  Uiso   1.00
C195   C     0.07484   0.46543   0.72229   0.00000  Uiso   1.00
C196   C     0.03935   0.45580   0.79712   0.00000  Uiso   1.00
C197   C     0.96056   0.43361   0.89936   0.00000  Uiso   1.00
C198   C     0.24273   0.51659   0.80065   0.00000  Uiso   1.00
C199   C     0.22407   0.54884   0.74528   0.00000  Uiso   1.00
C200   C     0.23403   0.58451   0.76744   0.00000  Uiso   1.00
C201   C     0.21352   0.61005   0.70793   0.00000  Uiso   1.00
C202   C     0.29690   0.49355   0.74931   0.00000  Uiso   1.00
C203   C     0.36809   0.48273   0.77486   0.00000  Uiso   1.00
C204   C     0.40889   0.46172   0.71876   0.00000  Uiso   1.00
C205   C     0.17013   0.49501   0.80794   0.00000  Uiso   1.00
C206   C     0.13474   0.48541   0.88279   0.00000  Uiso   1.00
C207   C     0.06881   0.46563   0.87605   0.00000  Uiso   1.00
H208   H     0.16569   0.49089   0.59424   0.00000  Uiso   1.00
H209   H     0.15138   0.55692   0.54596   0.00000  Uiso   1.00
H210   H     0.28541   0.45515   0.55339   0.00000  Uiso   1.00
H211   H     0.05210   0.45784   0.66131   0.00000  Uiso   1.00
H212   H     0.14850   0.63445   0.52718   0.00000  Uiso   1.00
H213   H     0.43112   0.41986   0.54286   0.00000  Uiso   1.00
H214   H     0.93912   0.42553   0.77041   0.00000  Uiso   1.00
H215   H     0.26563   0.52423   0.86200   0.00000  Uiso   1.00
H216   H     0.25679   0.59209   0.82842   0.00000  Uiso   1.00
H217   H     0.39083   0.49032   0.83584   0.00000  Uiso   1.00
H218   H     0.15751   0.49301   0.94376   0.00000  Uiso   1.00
H219   H     0.23406   0.66299   0.75643   0.00000  Uiso   1.00
H220   H     0.51668   0.44840   0.77211   0.00000  Uiso   1.00
H221   H     0.02468   0.45407   0.99966   0.00000  Uiso   1.00
O222   O     0.18369   0.69276   0.61488   0.00000  Uiso   1.00
O223   O     0.55446   0.41122   0.63545   0.00000  Uiso   1.00
O224   O     0.90897   0.41866   0.93399   0.00000  Uiso   1.00
N225   N     0.16983   0.63186   0.58575   0.00000  Uiso   1.00
N226   N     0.43407   0.43123   0.60040   0.00000  Uiso   1.00
N227   N     0.97410   0.43652   0.81314   0.00000  Uiso   1.00
N228   N     0.21587   0.64722   0.70911   0.00000  Uiso   1.00
N229   N     0.48011   0.44659   0.72376   0.00000  Uiso   1.00
N230   N     0.02014   0.45188   0.93650   0.00000  Uiso   1.00
C231   C     0.18858   0.99853   0.15558   0.00000  Uiso   1.00
C232   C     0.19466   0.03903   0.16649   0.00000  Uiso   1.00
C233   C     0.17413   0.06452   0.10694   0.00000  Uiso   1.00
C234   C     0.18406   0.10022   0.12900   0.00000  Uiso   1.00
C235   C     0.18905   0.16161   0.13393   0.00000  Uiso   1.00
C236   C     0.26749   0.98374   0.17052   0.00000  Uiso   1.00
C237   C     0.30819   0.96274   0.11436   0.00000  Uiso   1.00
C238   C     0.37943   0.95189   0.13982   0.00000  Uiso   1.00
C239   C     0.49747   0.92742   0.15104   0.00000  Uiso   1.00
C240   C     0.14072   0.98520   0.22915   0.00000  Uiso   1.00
C241   C     0.07484   0.96543   0.22229   0.00000  Uiso   1.00
C242   C     0.03935   0.95580   0.29712   0.00000  Uiso   1.00
C243   C     0.96056   0.93361   0.39936   0.00000  Uiso   1.00
C244   C     0.24273   0.01659   0.30065   0.00000  Uiso   1.00
C245   C     0.22407   0.04884   0.24528   0.00000  Uiso   1.00
C246   C     0.23403   0.08451   0.26744   0.00000  Uiso   1.00
C247   C     0.21352   0.11005   0.20793   0.00000  Uiso   1.00
C248   C     0.29690   0.99355   0.24931   0.00000  Uiso   1.00
C249   C     0.36809   0.98273   0.27486   0.00000  Uiso   1.00
C250   C     0.40889   0.96172   0.21876   0.00000  Uiso   1.00
C251   C     0.17013   0.99501   0.30794   0.00000  Uiso   1.00
C252   C     0.13474   0.98541   0.38279   0.00000  Uiso   1.00
C253   C     0.06881   0.96563   0.37605   0.00000  Uiso   1.00
H254   H     0.16569   0.99089   0.09424   0.00000  Uiso   1.00
H255   H     0.15138   0.05692   0.04596   0.00000  Uiso   1.00
H256   H     0.28541   0.95515   0.05339   0.00000  Uiso   1.00
H257   H     0.05210   0.95784   0.16131   0.00000  Uiso   1.00
H258   H     0.14850   0.13445   0.02718   0.00000  Uiso   1.00
H259   H     0.43112   0.91986   0.04286   0.00000  Uiso   1.00
H260   H     0.93912   0.92553   0.27041   0.00000  Uiso   1.00
H261   H     0.26563   0.02423   0.36200   0.00000  Uiso   1.00
H262   H     0.25679   0.09209   0.32842   0.00000  Uiso   1.00
H263   H     0.39083   0.99032   0.33584   0.00000  Uiso   1.00
H264   H     0.15751   0.99301   0.44376   0.00000  Uiso   1.00
H265   H     0.23406   0.16299   0.25643   0.00000  Uiso   1.00
H266   H     0.51668   0.94840   0.27211   0.00000  Uiso   1.00
H267   H     0.02468   0.95407   0.49966   0.00000  Uiso   1.00
O268   O     0.18369   0.19276   0.11488   0.00000  Uiso   1.00
O269   O     0.55446   0.91122   0.13545   0.00000  Uiso   1.00
O270   O     0.90897   0.91866   0.43399   0.00000  Uiso   1.00
N271   N     0.16983   0.13186   0.08575   0.00000  Uiso   1.00
N272   N     0.43407   0.93123   0.10040   0.00000  Uiso   1.00
N273   N     0.97410   0.93652   0.31314   0.00000  Uiso   1.00
N274   N     0.21587   0.14722   0.20911   0.00000  Uiso   1.00
N275   N     0.48011   0.94659   0.22376   0.00000  Uiso   1.00
N276   N     0.02014   0.95188   0.43650   0.00000  Uiso   1.00
C277   C     0.68858   0.49853   0.15558   0.00000  Uiso   1.00
C278   C     0.69466   0.53903   0.16649   0.00000  Uiso   1.00
C279   C     0.67413   0.56452   0.10694   0.00000  Uiso   1.00
C280   C     0.68406   0.60022   0.12900   0.00000  Uiso   1.00
C281   C     0.68905   0.66161   0.13393   0.00000  Uiso   1.00
C282   C     0.76749   0.48374   0.17052   0.00000  Uiso   1.00
C283   C     0.80819   0.46274   0.11436   0.00000  Uiso   1.00
C284   C     0.87943   0.45189   0.13982   0.00000  Uiso   1.00
C285   C     0.99747   0.42742   0.15104   0.00000  Uiso   1.00
C286   C     0.64072   0.48520   0.22915   0.00000  Uiso   1.00
C287   C     0.57484   0.46543   0.22229   0.00000  Uiso   1.00
C288   C     0.53935   0.45580   0.29712   0.00000  Uiso   1.00
C289   C     0.46056   0.43361   0.39936   0.00000  Uiso   1.00
C290   C     0.74273   0.51659   0.30065   0.00000  Uiso   1.00
C291   C     0.72407   0.54884   0.24528   0.00000  Uiso   1.00
C292   C     0.73403   0.58451   0.26744   0.00000  Uiso   1.00
C293   C     0.71352   0.61005   0.20793   0.00000  Uiso   1.00
C294   C     0.79690   0.49355   0.24931   0.00000  Uiso   1.00
C295   C     0.86809   0.48273   0.27486   0.00000  Uiso   1.00
C296   C     0.90889   0.46172   0.21876   0.00000  Uiso   1.00
C297   C     0.67013   0.49501   0.30794   0.00000  Uiso   1.00
C298   C     0.63474   0.48541   0.38279   0.00000  Uiso   1.00
C299   C     0.56881   0.46563   0.37605   0.00000  Uiso   1.00
H300   H     0.66569   0.49089   0.09424   0.00000  Uiso   1.00
H301   H     0.65138   0.55692   0.04596   0.00000  Uiso   1.00
H302   H     0.78541   0.45515   0.05339   0.00000  Uiso   1.00
H303   H     0.55210   0.45784   0.16131   0.00000  Uiso   1.00
H304   H     0.64850   0.63445   0.02718   0.00000  Uiso   1.00
H305   H     0.93112   0.41986   0.04286   0.00000  Uiso   1.00
H306   H     0.43912   0.42553   0.27041   0.00000  Uiso   1.00
H307   H     0.76563   0.52423   0.36200   0.00000  Uiso   1.00
H308   H     0.75679   0.59209   0.32842   0.00000  Uiso   1.00
H309   H     0.89083   0.49032   0.33584   0.00000  Uiso   1.00
H310   H     0.65751   0.49301   0.44376   0.00000  Uiso   1.00
H311   H     0.73406   0.66299   0.25643   0.00000  Uiso   1.00
H312   H     0.01668   0.44840   0.27211   0.00000  Uiso   1.00
H313   H     0.52468   0.45407   0.49966   0.00000  Uiso   1.00
O314   O     0.68369   0.69276   0.11488   0.00000  Uiso   1.00
O315   O     0.05446   0.41122   0.13545   0.00000  Uiso   1.00
O316   O     0.40897   0.41866   0.43399   0.00000  Uiso   1.00
N317   N     0.66983   0.63186   0.08575   0.00000  Uiso   1.00
N318   N     0.93407   0.43123   0.10040   0.00000  Uiso   1.00
N319   N     0.47410   0.43652   0.31314   0.00000  Uiso   1.00
N320   N     0.71587   0.64722   0.20911   0.00000  Uiso   1.00
N321   N     0.98011   0.44659   0.22376   0.00000  Uiso   1.00
N322   N     0.52014   0.45188   0.43650   0.00000  Uiso   1.00
C323   C     0.68858   0.99853   0.65558   0.00000  Uiso   1.00
C324   C     0.69466   0.03903   0.66649   0.00000  Uiso   1.00
C325   C     0.67413   0.06452   0.60694   0.00000  Uiso   1.00
C326   C     0.68406   0.10022   0.62900   0.00000  Uiso   1.00
C327   C     0.68905   0.16161   0.63393   0.00000  Uiso   1.00
C328   C     0.76749   0.98374   0.67052   0.00000  Uiso   1.00
C329   C     0.80819   0.96274   0.61436   0.00000  Uiso   1.00
C330   C     0.87943   0.95189   0.63982   0.00000  Uiso   1.00
C331   C     0.99747   0.92742   0.65104   0.00000  Uiso   1.00
C332   C     0.64072   0.98520   0.72915   0.00000  Uiso   1.00
C333   C     0.57484   0.96543   0.72229   0.00000  Uiso   1.00
C334   C     0.53935   0.95580   0.79712   0.00000  Uiso   1.00
C335   C     0.46056   0.93361   0.89936   0.00000  Uiso   1.00
C336   C     0.74273   0.01659   0.80065   0.00000  Uiso   1.00
C337   C     0.72407   0.04884   0.74528   0.00000  Uiso   1.00
C338   C     0.73403   0.08451   0.76744   0.00000  Uiso   1.00
C339   C     0.71352   0.11005   0.70793   0.00000  Uiso   1.00
C340   C     0.79690   0.99355   0.74931   0.00000  Uiso   1.00
C341   C     0.86809   0.98273   0.77486   0.00000  Uiso   1.00
C342   C     0.90889   0.96172   0.71876   0.00000  Uiso   1.00
C343   C     0.67013   0.99501   0.80794   0.00000  Uiso   1.00
C344   C     0.63474   0.98541   0.88279   0.00000  Uiso   1.00
C345   C     0.56881   0.96563   0.87605   0.00000  Uiso   1.00
H346   H     0.66569   0.99089   0.59424   0.00000  Uiso   1.00
H347   H     0.65138   0.05692   0.54596   0.00000  Uiso   1.00
H348   H     0.78541   0.95515   0.55339   0.00000  Uiso   1.00
H349   H     0.55210   0.95784   0.66131   0.00000  Uiso   1.00
H350   H     0.64850   0.13445   0.52718   0.00000  Uiso   1.00
H351   H     0.93112   0.91986   0.54286   0.00000  Uiso   1.00
H352   H     0.43912   0.92553   0.77041   0.00000  Uiso   1.00
H353   H     0.76563   0.02423   0.86200   0.00000  Uiso   1.00
H354   H     0.75679   0.09209   0.82842   0.00000  Uiso   1.00
H355   H     0.89083   0.99032   0.83584   0.00000  Uiso   1.00
H356   H     0.65751   0.99301   0.94376   0.00000  Uiso   1.00
H357   H     0.73406   0.16299   0.75643   0.00000  Uiso   1.00
H358   H     0.01668   0.94840   0.77211   0.00000  Uiso   1.00
H359   H     0.52468   0.95407   0.99966   0.00000  Uiso   1.00
O360   O     0.68369   0.19276   0.61488   0.00000  Uiso   1.00
O361   O     0.05446   0.91122   0.63545   0.00000  Uiso   1.00
O362   O     0.40897   0.91866   0.93399   0.00000  Uiso   1.00
N363   N     0.66983   0.13186   0.58575   0.00000  Uiso   1.00
N364   N     0.93407   0.93123   0.60040   0.00000  Uiso   1.00
N365   N     0.47410   0.93652   0.81314   0.00000  Uiso   1.00
N366   N     0.71587   0.14722   0.70911   0.00000  Uiso   1.00
N367   N     0.98011   0.94659   0.72376   0.00000  Uiso   1.00
N368   N     0.52014   0.95188   0.93650   0.00000  Uiso   1.00
C369   C     0.06142   0.74853   0.90558   0.00000  Uiso   1.00
C370   C     0.05534   0.78903   0.91649   0.00000  Uiso   1.00
C371   C     0.07587   0.81452   0.85694   0.00000  Uiso   1.00
C372   C     0.06594   0.85022   0.87900   0.00000  Uiso   1.00
C373   C     0.06095   0.91161   0.88393   0.00000  Uiso   1.00
C374   C     0.98251   0.73374   0.92052   0.00000  Uiso   1.00
C375   C     0.94181   0.71274   0.86436   0.00000  Uiso   1.00
C376   C     0.87057   0.70189   0.88982   0.00000  Uiso   1.00
C377   C     0.75253   0.67742   0.90104   0.00000  Uiso   1.00
C378   C     0.10928   0.73520   0.97915   0.00000  Uiso   1.00
C379   C     0.17516   0.71543   0.97229   0.00000  Uiso   1.00
C380   C     0.21065   0.70580   0.04712   0.00000  Uiso   1.00
C381   C     0.28944   0.68361   0.14936   0.00000  Uiso   1.00
C382   C     0.00727   0.76659   0.05065   0.00000  Uiso   1.00
C383   C     0.02593   0.79884   0.99528   0.00000  Uiso   1.00
C384   C     0.01597   0.83451   0.01744   0.00000  Uiso   1.00
C385   C     0.03648   0.86005   0.95793   0.00000  Uiso   1.00
C386   C     0.95310   0.74355   0.99931   0.00000  Uiso   1.00
C387   C     0.88191   0.73273   0.02486   0.00000  Uiso   1.00
C388   C     0.84111   0.71172   0.96876   0.00000  Uiso   1.00
C389   C     0.07987   0.74501   0.05794   0.00000  Uiso   1.00
C390   C     0.11526   0.73541   0.13279   0.00000  Uiso   1.00
C391   C     0.18119   0.71563   0.12605   0.00000  Uiso   1.00
H392   H     0.08431   0.74089   0.84424   0.00000  Uiso   1.00
H393   H     0.09862   0.80692   0.79596   0.00000  Uiso   1.00
H394   H     0.96459   0.70515   0.80339   0.00000  Uiso   1.00
H395   H     0.19790   0.70784   0.91131   0.00000  Uiso   1.00
H396   H     0.10150   0.88445   0.77718   0.00000  Uiso   1.00
H397   H     0.81888   0.66986   0.79286   0.00000  Uiso   1.00
H398   H     0.31088   0.67553   0.02041   0.00000  Uiso   1.00
H399   H     0.98437   0.77423   0.11200   0.00000  Uiso   1.00
H400   H     0.99321   0.84209   0.07842   0.00000  Uiso   1.00
H401   H     0.85917   0.74032   0.08584   0.00000  Uiso   1.00
H402   H     0.09249   0.74301   0.19376   0.00000  Uiso   1.00
H403   H     0.01594   0.91299   0.00643   0.00000  Uiso   1.00
H404   H     0.73332   0.69840   0.02211   0.00000  Uiso   1.00
H405   H     0.22532   0.70407   0.24966   0.00000  Uiso   1.00
O406   O     0.06631   0.94276   0.86488   0.00000  Uiso   1.00
O407   O     0.69554   0.66122   0.88545   0.00000  Uiso   1.00
O408   O     0.34103   0.66866   0.18399   0.00000  Uiso   1.00
N409   N     0.08017   0.88186   0.83575   0.00000  Uiso   1.00
N410   N     0.81593   0.68123   0.85040   0.00000  Uiso   1.00
N411   N     0.27590   0.68652   0.06314   0.00000  Uiso   1.00
N412   N     0.03413   0.89722   0.95911   0.00000  Uiso   1.00
N413   N     0.76989   0.69659   0.97376   0.00000  Uiso   1.00
N414   N     0.22986   0.70188   0.18650   0.00000  Uiso   1.00
C415   C     0.06142   0.24853   0.40558   0.00000  Uiso   1.00
C416   C     0.05534   0.28903   0.41649   0.00000  Uiso   1.00
C417   C     0.07587   0.31452   0.35694   0.00000  Uiso   1.00
C418   C     0.06594   0.35022   0.37900   0.00000  Uiso   1.00
C419   C     0.06095   0.41161   0.38393   0.00000  Uiso   1.00
C420   C     0.98251   0.23374   0.42052   0.00000  Uiso   1.00
C421   C     0.94181   0.21274   0.36436   0.00000  Uiso   1.00
C422   C     0.87057   0.20189   0.38982   0.00000  Uiso   1.00
C423   C     0.75253   0.17742   0.40104   0.00000  Uiso   1.00
C424   C     0.10928   0.23520   0.47915   0.00000  Uiso   1.00
C425   C     0.17516   0.21543   0.47229   0.00000  Uiso   1.00
C426   C     0.21065   0.20580   0.54712   0.00000  Uiso   1.00
C427   C     0.28944   0.18361   0.64936   0.00000  Uiso   1.00
C428   C     0.00727   0.26659   0.55065   0.00000  Uiso   1.00
C429   C     0.02593   0.29884   0.49528   0.00000  Uiso   1.00
C430   C     0.01597   0.33451   0.51744   0.00000  Uiso   1.00
C431   C     0.03648   0.36005   0.45793   0.00000  Uiso   1.00
C432   C     0.95310   0.24355   0.49931   0.00000  Uiso   1.00
C433   C     0.88191   0.23273   0.52486   0.00000  Uiso   1.00
C434   C     0.84111   0.21172   0.46876   0.00000  Uiso   1.00
C435   C     0.07987   0.24501   0.55794   0.00000  Uiso   1.00
C436   C     0.11526   0.23541   0.63279   0.00000  Uiso   1.00
C437   C     0.18119   0.21563   0.62605   0.00000  Uiso   1.00
H438   H     0.08431   0.24089   0.34424   0.00000  Uiso   1.00
H439   H     0.09862   0.30692   0.29596   0.00000  Uiso   1.00
H440   H     0.96459   0.20515   0.30339   0.00000  Uiso   1.00
H441   H     0.19790   0.20784   0.41131   0.00000  Uiso   1.00
H442   H     0.10150   0.38445   0.27718   0.00000  Uiso   1.00
H443   H     0.81888   0.16986   0.29286   0.00000  Uiso   1.00
H444   H     0.31088   0.17553   0.52041   0.00000  Uiso   1.00
H445   H     0.98437   0.27423   0.61200   0.00000  Uiso   1.00
H446   H     0.99321   0.34209   0.57842   0.00000  Uiso   1.00
H447   H     0.85917   0.24032   0.58584   0.00000  Uiso   1.00
H448   H     0.09249   0.24301   0.69376   0.00000  Uiso   1.00
H449   H     0.01594   0.41299   0.50643   0.00000  Uiso   1.00
H450   H     0.73332   0.19840   0.52211   0.00000  Uiso   1.00
H451   H     0.22532   0.20407   0.74966   0.00000  Uiso   1.00
O452   O     0.06631   0.44276   0.36488   0.00000  Uiso   1.00
O453   O     0.69554   0.16122   0.38545   0.00000  Uiso   1.00
O454   O     0.34103   0.16866   0.68399   0.00000  Uiso   1.00
N455   N     0.08017   0.38186   0.33575   0.00000  Uiso   1.00
N456   N     0.81593   0.18123   0.35040   0.00000  Uiso   1.00
N457   N     0.27590   0.18652   0.56314   0.00000  Uiso   1.00
N458   N     0.03413   0.39722   0.45911   0.00000  Uiso   1.00
N459   N     0.76989   0.19659   0.47376   0.00000  Uiso   1.00
N460   N     0.22986   0.20188   0.68650   0.00000  Uiso   1.00
C461   C     0.56142   0.74853   0.40558   0.00000  Uiso   1.00
C462   C     0.55534   0.78903   0.41649   0.00000  Uiso   1.00
C463   C     0.57587   0.81452   0.35694   0.00000  Uiso   1.00
C464   C     0.56594   0.85022   0.37900   0.00000  Uiso   1.00
C465   C     0.56095   0.91161   0.38393   0.00000  Uiso   1.00
C466   C     0.48251   0.73374   0.42052   0.00000  Uiso   1.00
C467   C     0.44181   0.71274   0.36436   0.00000  Uiso   1.00
C468   C     0.37057   0.70189   0.38982   0.00000  Uiso   1.00
C469   C     0.25253   0.67742   0.40104   0.00000  Uiso   1.00
C470   C     0.60928   0.73520   0.47915   0.00000  Uiso   1.00
C471   C     0.67516   0.71543   0.47229   0.00000  Uiso   1.00
C472   C     0.71065   0.70580   0.54712   0.00000  Uiso   1.00
C473   C     0.78944   0.68361   0.64936   0.00000  Uiso   1.00
C474   C     0.50727   0.76659   0.55065   0.00000  Uiso   1.00
C475   C     0.52593   0.79884   0.49528   0.00000  Uiso   1.00
C476   C     0.51597   0.83451   0.51744   0.00000  Uiso   1.00
C477   C     0.53648   0.86005   0.45793   0.00000  Uiso   1.00
C478   C     0.45310   0.74355   0.49931   0.00000  Uiso   1.00
C479   C     0.38191   0.73273   0.52486   0.00000  Uiso   1.00
C480   C     0.34111   0.71172   0.46876   0.00000  Uiso   1.00
C481   C     0.57987   0.74501   0.55794   0.00000  Uiso   1.00
C482   C     0.61526   0.73541   0.63279   0.00000  Uiso   1.00
C483   C     0.68119   0.71563   0.62605   0.00000  Uiso   1.00
H484   H     0.58431   0.74089   0.34424   0.00000  Uiso   1.00
H485   H     0.59862   0.80692   0.29596   0.00000  Uiso   1.00
H486   H     0.46459   0.70515   0.30339   0.00000  Uiso   1.00
H487   H     0.69790   0.70784   0.41131   0.00000  Uiso   1.00
H488   H     0.60150   0.88445   0.27718   0.00000  Uiso   1.00
H489   H     0.31888   0.66986   0.29286   0.00000  Uiso   1.00
H490   H     0.81088   0.67553   0.52041   0.00000  Uiso   1.00
H491   H     0.48437   0.77423   0.61200   0.00000  Uiso   1.00
H492   H     0.49321   0.84209   0.57842   0.00000  Uiso   1.00
H493   H     0.35917   0.74032   0.58584   0.00000  Uiso   1.00
H494   H     0.59249   0.74301   0.69376   0.00000  Uiso   1.00
H495   H     0.51594   0.91299   0.50643   0.00000  Uiso   1.00
H496   H     0.23332   0.69840   0.52211   0.00000  Uiso   1.00
H497   H     0.72532   0.70407   0.74966   0.00000  Uiso   1.00
O498   O     0.56631   0.94276   0.36488   0.00000  Uiso   1.00
O499   O     0.19554   0.66122   0.38545   0.00000  Uiso   1.00
O500   O     0.84103   0.66866   0.68399   0.00000  Uiso   1.00
N501   N     0.58017   0.88186   0.33575   0.00000  Uiso   1.00
N502   N     0.31593   0.68123   0.35040   0.00000  Uiso   1.00
N503   N     0.77590   0.68652   0.56314   0.00000  Uiso   1.00
N504   N     0.53413   0.89722   0.45911   0.00000  Uiso   1.00
N505   N     0.26989   0.69659   0.47376   0.00000  Uiso   1.00
N506   N     0.72986   0.70188   0.68650   0.00000  Uiso   1.00
C507   C     0.56142   0.24853   0.90558   0.00000  Uiso   1.00
C508   C     0.55534   0.28903   0.91649   0.00000  Uiso   1.00
C509   C     0.57587   0.31452   0.85694   0.00000  Uiso   1.00
C510   C     0.56594   0.35022   0.87900   0.00000  Uiso   1.00
C511   C     0.56095   0.41161   0.88393   0.00000  Uiso   1.00
C512   C     0.48251   0.23374   0.92052   0.00000  Uiso   1.00
C513   C     0.44181   0.21274   0.86436   0.00000  Uiso   1.00
C514   C     0.37057   0.20189   0.88982   0.00000  Uiso   1.00
C515   C     0.25253   0.17742   0.90104   0.00000  Uiso   1.00
C516   C     0.60928   0.23520   0.97915   0.00000  Uiso   1.00
C517   C     0.67516   0.21543   0.97229   0.00000  Uiso   1.00
C518   C     0.71065   0.20580   0.04712   0.00000  Uiso   1.00
C519   C     0.78944   0.18361   0.14936   0.00000  Uiso   1.00
C520   C     0.50727   0.26659   0.05065   0.00000  Uiso   1.00
C521   C     0.52593   0.29884   0.99528   0.00000  Uiso   1.00
C522   C     0.51597   0.33451   0.01744   0.00000  Uiso   1.00
C523   C     0.53648   0.36005   0.95793   0.00000  Uiso   1.00
C524   C     0.45310   0.24355   0.99931   0.00000  Uiso   1.00
C525   C     0.38191   0.23273   0.02486   0.00000  Uiso   1.00
C526   C     0.34111   0.21172   0.96876   0.00000  Uiso   1.00
C527   C     0.57987   0.24501   0.05794   0.00000  Uiso   1.00
C528   C     0.61526   0.23541   0.13279   0.00000  Uiso   1.00
C529   C     0.68119   0.21563   0.12605   0.00000  Uiso   1.00
H530   H     0.58431   0.24089   0.84424   0.00000  Uiso   1.00
H531   H     0.59862   0.30692   0.79596   0.00000  Uiso   1.00
H532   H     0.46459   0.20515   0.80339   0.00000  Uiso   1.00
H533   H     0.69790   0.20784   0.91131   0.00000  Uiso   1.00
H534   H     0.60150   0.38445   0.77718   0.00000  Uiso   1.00
H535   H     0.31888   0.16986   0.79286   0.00000  Uiso   1.00
H536   H     0.81088   0.17553   0.02041   0.00000  Uiso   1.00
H537   H     0.48437   0.27423   0.11200   0.00000  Uiso   1.00
H538   H     0.49321   0.34209   0.07842   0.00000  Uiso   1.00
H539   H     0.35917   0.24032   0.08584   0.00000  Uiso   1.00
H540   H     0.59249   0.24301   0.19376   0.00000  Uiso   1.00
H541   H     0.51594   0.41299   0.00643   0.00000  Uiso   1.00
H542   H     0.23332   0.19840   0.02211   0.00000  Uiso   1.00
H543   H     0.72532   0.20407   0.24966   0.00000  Uiso   1.00
O544   O     0.56631   0.44276   0.86488   0.00000  Uiso   1.00
O545   O     0.19554   0.16122   0.88545   0.00000  Uiso   1.00
O546   O     0.84103   0.16866   0.18399   0.00000  Uiso   1.00
N547   N     0.58017   0.38186   0.83575   0.00000  Uiso   1.00
N548   N     0.31593   0.18123   0.85040   0.00000  Uiso   1.00
N549   N     0.77590   0.18652   0.06314   0.00000  Uiso   1.00
N550   N     0.53413   0.39722   0.95911   0.00000  Uiso   1.00
N551   N     0.26989   0.19659   0.97376   0.00000  Uiso   1.00
N552   N     0.72986   0.20188   0.18650   0.00000  Uiso   1.00
C553   C     0.43858   0.75147   0.90558   0.00000  Uiso   1.00
C554   C     0.44466   0.71097   0.91649   0.00000  Uiso   1.00
C555   C     0.42413   0.68548   0.85694   0.00000  Uiso   1.00
C556   C     0.43406   0.64978   0.87900   0.00000  Uiso   1.00
C557   C     0.43905   0.58839   0.88393   0.00000  Uiso   1.00
C558   C     0.51749   0.76626   0.92052   0.00000  Uiso   1.00
C559   C     0.55819   0.78726   0.86436   0.00000  Uiso   1.00
C560   C     0.62943   0.79811   0.88982   0.00000  Uiso   1.00
C561   C     0.74747   0.82258   0.90104   0.00000  Uiso   1.00
C562   C     0.39072   0.76480   0.97915   0.00000  Uiso   1.00
C563   C     0.32484   0.78457   0.97229   0.00000  Uiso   1.00
C564   C     0.28935   0.79420   0.04712   0.00000  Uiso   1.00
C565   C     0.21056   0.81639   0.14936   0.00000  Uiso   1.00
C566   C     0.49273   0.73341   0.05065   0.00000  Uiso   1.00
C567   C     0.47407   0.70116   0.99528   0.00000  Uiso   1.00
C568   C     0.48403   0.66549   0.01744   0.00000  Uiso   1.00
C569   C     0.46352   0.63995   0.95793   0.00000  Uiso   1.00
C570   C     0.54690   0.75645   0.99931   0.00000  Uiso   1.00
C571   C     0.61809   0.76727   0.02486   0.00000  Uiso   1.00
C572   C     0.65889   0.78828   0.96876   0.00000  Uiso   1.00
C573   C     0.42013   0.75499   0.05794   0.00000  Uiso   1.00
C574   C     0.38474   0.76459   0.13279   0.00000  Uiso   1.00
C575   C     0.31881   0.78437   0.12605   0.00000  Uiso   1.00
H576   H     0.41569   0.75911   0.84424   0.00000  Uiso   1.00
H577   H     0.40138   0.69308   0.79596   0.00000  Uiso   1.00
H578   H     0.53541   0.79485   0.80339   0.00000  Uiso   1.00
H579   H     0.30210   0.79216   0.91131   0.00000  Uiso   1.00
H580   H     0.39850   0.61555   0.77718   0.00000  Uiso   1.00
H581   H     0.68112   0.83014   0.79286   0.00000  Uiso   1.00
H582   H     0.18912   0.82447   0.02041   0.00000  Uiso   1.00
H583   H     0.51563   0.72577   0.11200   0.00000  Uiso   1.00
H584   H     0.50679   0.65791   0.07842   0.00000  Uiso   1.00
H585   H     0.64083   0.75968   0.08584   0.00000  Uiso   1.00
H586   H     0.40751   0.75699   0.19376   0.00000  Uiso   1.00
H587   H     0.48406   0.58701   0.00643   0.00000  Uiso   1.00
H588   H     0.76668   0.80160   0.02211   0.00000  Uiso   1.00
H589   H     0.27468   0.79593   0.24966   0.00000  Uiso   1.00
O590   O     0.43369   0.55724   0.86488   0.00000  Uiso   1.00
O591   O     0.80446   0.83878   0.88545   0.00000  Uiso   1.00
O592   O     0.15897   0.83134   0.18399   0.00000  Uiso   1.00
N593   N     0.41983   0.61814   0.83575   0.00000  Uiso   1.00
N594   N     0.68407   0.81877   0.85040   0.00000  Uiso   1.00
N595   N     0.22410   0.81348   0.06314   0.00000  Uiso   1.00
N596   N     0.46587   0.60278   0.95911   0.00000  Uiso   1.00
N597   N     0.73011   0.80341   0.97376   0.00000  Uiso   1.00
N598   N     0.27014   0.79812   0.18650   0.00000  Uiso   1.00
C599   C     0.43858   0.25147   0.40558   0.00000  Uiso   1.00
C600   C     0.44466   0.21097   0.41649   0.00000  Uiso   1.00
C601   C     0.42413   0.18548   0.35694   0.00000  Uiso   1.00
C602   C     0.43406   0.14978   0.37900   0.00000  Uiso   1.00
C603   C     0.43905   0.08839   0.38393   0.00000  Uiso   1.00
C604   C     0.51749   0.26626   0.42052   0.00000  Uiso   1.00
C605   C     0.55819   0.28726   0.36436   0.00000  Uiso   1.00
C606   C     0.62943   0.29811   0.38982   0.00000  Uiso   1.00
C607   C     0.74747   0.32258   0.40104   0.00000  Uiso   1.00
C608   C     0.39072   0.26480   0.47915   0.00000  Uiso   1.00
C609   C     0.32484   0.28457   0.47229   0.00000  Uiso   1.00
C610   C     0.28935   0.29420   0.54712   0.00000  Uiso   1.00
C611   C     0.21056   0.31639   0.64936   0.00000  Uiso   1.00
C612   C     0.49273   0.23341   0.55065   0.00000  Uiso   1.00
C613   C     0.47407   0.20116   0.49528   0.00000  Uiso   1.00
C614   C     0.48403   0.16549   0.51744   0.00000  Uiso   1.00
C615   C     0.46352   0.13995   0.45793   0.00000  Uiso   1.00
C616   C     0.54690   0.25645   0.49931   0.00000  Uiso   1.00
C617   C     0.61809   0.26727   0.52486   0.00000  Uiso   1.00
C618   C     0.65889   0.28828   0.46876   0.00000  Uiso   1.00
C619   C     0.42013   0.25499   0.55794   0.00000  Uiso   1.00
C620   C     0.38474   0.26459   0.63279   0.00000  Uiso   1.00
C621   C     0.31881   0.28437   0.62605   0.00000  Uiso   1.00
H622   H     0.41569   0.25911   0.34424   0.00000  Uiso   1.00
H623   H     0.40138   0.19308   0.29596   0.00000  Uiso   1.00
H624   H     0.53541   0.29485   0.30339   0.00000  Uiso   1.00
H625   H     0.30210   0.29216   0.41131   0.00000  Uiso   1.00
H626   H     0.39850   0.11555   0.27718   0.00000  Uiso   1.00
H627   H     0.68112   0.33014   0.29286   0.00000  Uiso   1.00
H628   H     0.18912   0.32447   0.52041   0.00000  Uiso   1.00
H629   H     0.51563   0.22577   0.61200   0.00000  Uiso   1.00
H630   H     0.50679   0.15791   0.57842   0.00000  Uiso   1.00
H631   H     0.64083   0.25968   0.58584   0.00000  Uiso   1.00
H632   H     0.40751   0.25699   0.69376   0.00000  Uiso   1.00
H633   H     0.48406   0.08701   0.50643   0.00000  Uiso   1.00
H634   H     0.76668   0.30160   0.52211   0.00000  Uiso   1.00
H635   H     0.27468   0.29593   0.74966   0.00000  Uiso   1.00
O636   O     0.43369   0.05724   0.36488   0.00000  Uiso   1.00
O637   O     0.80446   0.33878   0.38545   0.00000  Uiso   1.00
O638   O     0.15897   0.33134   0.68399   0.00000  Uiso   1.00
N639   N     0.41983   0.11814   0.33575   0.00000  Uiso   1.00
N640   N     0.68407   0.31877   0.35040   0.00000  Uiso   1.00
N641   N     0.22410   0.31348   0.56314   0.00000  Uiso   1.00
N642   N     0.46587   0.10278   0.45911   0.00000  Uiso   1.00
N643   N     0.73011   0.30341   0.47376   0.00000  Uiso   1.00
N644   N     0.27014   0.29812   0.68650   0.00000  Uiso   1.00
C645   C     0.93858   0.75147   0.40558   0.00000  Uiso   1.00
C646   C     0.94466   0.71097   0.41649   0.00000  Uiso   1.00
C647   C     0.92413   0.68548   0.35694   0.00000  Uiso   1.00
C648   C     0.93406   0.64978   0.37900   0.00000  Uiso   1.00
C649   C     0.93905   0.58839   0.38393   0.00000  Uiso   1.00
C650   C     0.01749   0.76626   0.42052   0.00000  Uiso   1.00
C651   C     0.05819   0.78726   0.36436   0.00000  Uiso   1.00
C652   C     0.12943   0.79811   0.38982   0.00000  Uiso   1.00
C653   C     0.24747   0.82258   0.40104   0.00000  Uiso   1.00
C654   C     0.89072   0.76480   0.47915   0.00000  Uiso   1.00
C655   C     0.82484   0.78457   0.47229   0.00000  Uiso   1.00
C656   C     0.78935   0.79420   0.54712   0.00000  Uiso   1.00
C657   C     0.71056   0.81639   0.64936   0.00000  Uiso   1.00
C658   C     0.99273   0.73341   0.55065   0.00000  Uiso   1.00
C659   C     0.97407   0.70116   0.49528   0.00000  Uiso   1.00
C660   C     0.98403   0.66549   0.51744   0.00000  Uiso   1.00
C661   C     0.96352   0.63995   0.45793   0.00000  Uiso   1.00
C662   C     0.04690   0.75645   0.49931   0.00000  Uiso   1.00
C663   C     0.11809   0.76727   0.52486   0.00000  Uiso   1.00
C664   C     0.15889   0.78828   0.46876   0.00000  Uiso   1.00
C665   C     0.92013   0.75499   0.55794   0.00000  Uiso   1.00
C666   C     0.88474   0.76459   0.63279   0.00000  Uiso   1.00
C667   C     0.81881   0.78437   0.62605   0.00000  Uiso   1.00
H668   H     0.91569   0.75911   0.34424   0.00000  Uiso   1.00
H669   H     0.90138   0.69308   0.29596   0.00000  Uiso   1.00
H670   H     0.03541   0.79485   0.30339   0.00000  Uiso   1.00
H671   H     0.80210   0.79216   0.41131   0.00000  Uiso   1.00
H672   H     0.89850   0.61555   0.27718   0.00000  Uiso   1.00
H673   H     0.18112   0.83014   0.29286   0.00000  Uiso   1.00
H674   H     0.68912   0.82447   0.52041   0.00000  Uiso   1.00
H675   H     0.01563   0.72577   0.61200   0.00000  Uiso   1.00
H676   H     0.00679   0.65791   0.57842   0.00000  Uiso   1.00
H677   H     0.14083   0.75968   0.58584   0.00000  Uiso   1.00
H678   H     0.90751   0.75699   0.69376   0.00000  Uiso   1.00
H679   H     0.98406   0.58701   0.50643   0.00000  Uiso   1.00
H680   H     0.26668   0.80160   0.52211   0.00000  Uiso   1.00
H681   H     0.77468   0.79593   0.74966   0.00000  Uiso   1.00
O682   O     0.93369   0.55724   0.36488   0.00000  Uiso   1.00
O683   O     0.30446   0.83878   0.38545   0.00000  Uiso   1.00
O684   O     0.65897   0.83134   0.68399   0.00000  Uiso   1.00
N685   N     0.91983   0.61814   0.33575   0.00000  Uiso   1.00
N686   N     0.18407   0.81877   0.35040   0.00000  Uiso   1.00
N687   N     0.72410   0.81348   0.56314   0.00000  Uiso   1.00
N688   N     0.96587   0.60278   0.45911   0.00000  Uiso   1.00
N689   N     0.23011   0.80341   0.47376   0.00000  Uiso   1.00
N690   N     0.77014   0.79812   0.68650   0.00000  Uiso   1.00
C691   C     0.93858   0.25147   0.90558   0.00000  Uiso   1.00
C692   C     0.94466   0.21097   0.91649   0.00000  Uiso   1.00
C693   C     0.92413   0.18548   0.85694   0.00000  Uiso   1.00
C694   C     0.93406   0.14978   0.87900   0.00000  Uiso   1.00
C695   C     0.93905   0.08839   0.88393   0.00000  Uiso   1.00
C696   C     0.01749   0.26626   0.92052   0.00000  Uiso   1.00
C697   C     0.05819   0.28726   0.86436   0.00000  Uiso   1.00
C698   C     0.12943   0.29811   0.88982   0.00000  Uiso   1.00
C699   C     0.24747   0.32258   0.90104   0.00000  Uiso   1.00
C700   C     0.89072   0.26480   0.97915   0.00000  Uiso   1.00
C701   C     0.82484   0.28457   0.97229   0.00000  Uiso   1.00
C702   C     0.78935   0.29420   0.04712   0.00000  Uiso   1.00
C703   C     0.71056   0.31639   0.14936   0.00000  Uiso   1.00
C704   C     0.99273   0.23341   0.05065   0.00000  Uiso   1.00
C705   C     0.97407   0.20116   0.99528   0.00000  Uiso   1.00
C706   C     0.98403   0.16549   0.01744   0.00000  Uiso   1.00
C707   C     0.96352   0.13995   0.95793   0.00000  Uiso   1.00
C708   C     0.04690   0.25645   0.99931   0.00000  Uiso   1.00
C709   C     0.11809   0.26727   0.02486   0.00000  Uiso   1.00
C710   C     0.15889   0.28828   0.96876   0.00000  Uiso   1.00
C711   C     0.92013   0.25499   0.05794   0.00000  Uiso   1.00
C712   C     0.88474   0.26459   0.13279   0.00000  Uiso   1.00
C713   C     0.81881   0.28437   0.12605   0.00000  Uiso   1.00
H714   H     0.91569   0.25911   0.84424   0.00000  Uiso   1.00
H715   H     0.90138   0.19308   0.79596   0.00000  Uiso   1.00
H716   H     0.03541   0.29485   0.80339   0.00000  Uiso   1.00
H717   H     0.80210   0.29216   0.91131   0.00000  Uiso   1.00
H718   H     0.89850   0.11555   0.77718   0.00000  Uiso   1.00
H719   H     0.18112   0.33014   0.79286   0.00000  Uiso   1.00
H720   H     0.68912   0.32447   0.02041   0.00000  Uiso   1.00
H721   H     0.01563   0.22577   0.11200   0.00000  Uiso   1.00
H722   H     0.00679   0.15791   0.07842   0.00000  Uiso   1.00
H723   H     0.14083   0.25968   0.08584   0.00000  Uiso   1.00
H724   H     0.90751   0.25699   0.19376   0.00000  Uiso   1.00
H725   H     0.98406   0.08701   0.00643   0.00000  Uiso   1.00
H726   H     0.26668   0.30160   0.02211   0.00000  Uiso   1.00
H727   H     0.77468   0.29593   0.24966   0.00000  Uiso   1.00
O728   O     0.93369   0.05724   0.86488   0.00000  Uiso   1.00
O729   O     0.30446   0.33878   0.88545   0.00000  Uiso   1.00
O730   O     0.65897   0.33134   0.18399   0.00000  Uiso   1.00
N731   N     0.91983   0.11814   0.83575   0.00000  Uiso   1.00
N732   N     0.18407   0.31877   0.85040   0.00000  Uiso   1.00
N733   N     0.72410   0.31348   0.06314   0.00000  Uiso   1.00
N734   N     0.96587   0.10278   0.95911   0.00000  Uiso   1.00
N735   N     0.23011   0.30341   0.97376   0.00000  Uiso   1.00
N736   N     0.77014   0.29812   0.18650   0.00000  Uiso   1.00
