data_job_01099
_audit_creation_date              2018-12-19
_audit_creation_method            'Materials Studio'
_symmetry_space_group_name_H-M    'P1'
_symmetry_Int_Tables_number       1
_symmetry_cell_setting            triclinic
loop_
_symmetry_equiv_pos_as_xyz
  x,y,z
_cell_length_a                    26.5509
_cell_length_b                    26.5509
_cell_length_c                    13.2557
_cell_angle_alpha                 90.0000
_cell_angle_beta                  90.0000
_cell_angle_gamma                 90.0000
loop_
_atom_site_label
_atom_site_type_symbol
_atom_site_fract_x
_atom_site_fract_y
_atom_site_fract_z
_atom_site_U_iso_or_equiv
_atom_site_adp_type
_atom_site_occupancy
C1     C     0.35678   0.40045   0.12401   0.00000  Uiso   1.00
C2     C     0.35145   0.44316   0.20017   0.00000  Uiso   1.00
C3     C     0.38142   0.45036   0.28473   0.00000  Uiso   1.00
C4     C     0.37048   0.49170   0.34501   0.00000  Uiso   1.00
C5     C     0.36820   0.55300   0.46688   0.00000  Uiso   1.00
C6     C     0.30573   0.37417   0.12082   0.00000  Uiso   1.00
C7     C     0.29726   0.32336   0.13864   0.00000  Uiso   1.00
C8     C     0.24783   0.30662   0.13212   0.00000  Uiso   1.00
C9     C     0.17457   0.26081   0.13072   0.00000  Uiso   1.00
C10    C     0.36330   0.42554   0.02136   0.00000  Uiso   1.00
C11    C     0.40323   0.41792   0.95554   0.00000  Uiso   1.00
C12    C     0.40227   0.44442   0.86527   0.00000  Uiso   1.00
C13    C     0.41840   0.47837   0.70945   0.00000  Uiso   1.00
C14    C     0.28405   0.46105   0.08071   0.00000  Uiso   1.00
C15    C     0.31195   0.47608   0.17665   0.00000  Uiso   1.00
C16    C     0.30096   0.51742   0.23682   0.00000  Uiso   1.00
C17    C     0.33090   0.52468   0.32145   0.00000  Uiso   1.00
C18    C     0.26623   0.40709   0.09730   0.00000  Uiso   1.00
C19    C     0.21680   0.39042   0.09074   0.00000  Uiso   1.00
C20    C     0.20825   0.33960   0.10855   0.00000  Uiso   1.00
C21    C     0.32380   0.45846   0.99784   0.00000  Uiso   1.00
C22    C     0.32277   0.48498   0.90765   0.00000  Uiso   1.00
C23    C     0.36269   0.47740   0.84171   0.00000  Uiso   1.00
H24    H     0.38753   0.37481   0.14231   0.00000  Uiso   1.00
H25    H     0.41199   0.42487   0.30291   0.00000  Uiso   1.00
H26    H     0.32784   0.29789   0.15683   0.00000  Uiso   1.00
H27    H     0.43380   0.39244   0.97377   0.00000  Uiso   1.00
H28    H     0.42167   0.49488   0.47060   0.00000  Uiso   1.00
H29    H     0.24424   0.22714   0.16256   0.00000  Uiso   1.00
H30    H     0.46767   0.42650   0.77653   0.00000  Uiso   1.00
H31    H     0.25329   0.48668   0.06240   0.00000  Uiso   1.00
H32    H     0.27039   0.54288   0.21860   0.00000  Uiso   1.00
H33    H     0.18624   0.41590   0.07253   0.00000  Uiso   1.00
H34    H     0.29220   0.51045   0.88947   0.00000  Uiso   1.00
H35    H     0.30674   0.59066   0.40218   0.00000  Uiso   1.00
H36    H     0.12931   0.32292   0.09414   0.00000  Uiso   1.00
H37    H     0.35274   0.52228   0.70812   0.00000  Uiso   1.00
O38    O     0.37786   0.57771   0.54061   0.00000  Uiso   1.00
O39    O     0.14508   0.22644   0.13646   0.00000  Uiso   1.00
O40    O     0.43822   0.48800   0.63001   0.00000  Uiso   1.00
N41    N     0.39228   0.50971   0.43305   0.00000  Uiso   1.00
N42    N     0.22639   0.25939   0.14507   0.00000  Uiso   1.00
N43    N     0.43528   0.44577   0.78415   0.00000  Uiso   1.00
N44    N     0.33044   0.56125   0.39623   0.00000  Uiso   1.00
N45    N     0.16455   0.31093   0.10825   0.00000  Uiso   1.00
N46    N     0.37344   0.49731   0.74734   0.00000  Uiso   1.00
C47    C     0.85678   0.90045   0.62401   0.00000  Uiso   1.00
C48    C     0.85145   0.94316   0.70017   0.00000  Uiso   1.00
C49    C     0.88142   0.95036   0.78473   0.00000  Uiso   1.00
C50    C     0.87048   0.99170   0.84501   0.00000  Uiso   1.00
C51    C     0.86820   0.05300   0.96688   0.00000  Uiso   1.00
C52    C     0.80573   0.87417   0.62082   0.00000  Uiso   1.00
C53    C     0.79726   0.82336   0.63864   0.00000  Uiso   1.00
C54    C     0.74783   0.80662   0.63212   0.00000  Uiso   1.00
C55    C     0.67457   0.76081   0.63072   0.00000  Uiso   1.00
C56    C     0.86330   0.92554   0.52136   0.00000  Uiso   1.00
C57    C     0.90323   0.91792   0.45554   0.00000  Uiso   1.00
C58    C     0.90227   0.94442   0.36527   0.00000  Uiso   1.00
C59    C     0.91840   0.97837   0.20945   0.00000  Uiso   1.00
C60    C     0.78405   0.96105   0.58071   0.00000  Uiso   1.00
C61    C     0.81195   0.97608   0.67665   0.00000  Uiso   1.00
C62    C     0.80096   0.01742   0.73682   0.00000  Uiso   1.00
C63    C     0.83090   0.02468   0.82145   0.00000  Uiso   1.00
C64    C     0.76623   0.90709   0.59730   0.00000  Uiso   1.00
C65    C     0.71680   0.89042   0.59074   0.00000  Uiso   1.00
C66    C     0.70825   0.83960   0.60855   0.00000  Uiso   1.00
C67    C     0.82380   0.95846   0.49784   0.00000  Uiso   1.00
C68    C     0.82277   0.98498   0.40765   0.00000  Uiso   1.00
C69    C     0.86269   0.97740   0.34171   0.00000  Uiso   1.00
H70    H     0.88753   0.87481   0.64231   0.00000  Uiso   1.00
H71    H     0.91199   0.92487   0.80291   0.00000  Uiso   1.00
H72    H     0.82784   0.79789   0.65683   0.00000  Uiso   1.00
H73    H     0.93380   0.89244   0.47377   0.00000  Uiso   1.00
H74    H     0.92167   0.99488   0.97060   0.00000  Uiso   1.00
H75    H     0.74424   0.72714   0.66256   0.00000  Uiso   1.00
H76    H     0.96767   0.92650   0.27653   0.00000  Uiso   1.00
H77    H     0.75329   0.98668   0.56240   0.00000  Uiso   1.00
H78    H     0.77039   0.04288   0.71860   0.00000  Uiso   1.00
H79    H     0.68624   0.91590   0.57253   0.00000  Uiso   1.00
H80    H     0.79220   0.01045   0.38947   0.00000  Uiso   1.00
H81    H     0.80674   0.09066   0.90218   0.00000  Uiso   1.00
H82    H     0.62931   0.82292   0.59414   0.00000  Uiso   1.00
H83    H     0.85274   0.02228   0.20812   0.00000  Uiso   1.00
O84    O     0.87786   0.07771   0.04061   0.00000  Uiso   1.00
O85    O     0.64508   0.72644   0.63646   0.00000  Uiso   1.00
O86    O     0.93822   0.98800   0.13001   0.00000  Uiso   1.00
N87    N     0.89228   0.00971   0.93305   0.00000  Uiso   1.00
N88    N     0.72639   0.75939   0.64507   0.00000  Uiso   1.00
N89    N     0.93528   0.94577   0.28415   0.00000  Uiso   1.00
N90    N     0.83044   0.06125   0.89623   0.00000  Uiso   1.00
N91    N     0.66455   0.81093   0.60825   0.00000  Uiso   1.00
N92    N     0.87344   0.99731   0.24734   0.00000  Uiso   1.00
C93    C     0.14322   0.09955   0.62401   0.00000  Uiso   1.00
C94    C     0.14855   0.05684   0.70017   0.00000  Uiso   1.00
C95    C     0.11858   0.04964   0.78473   0.00000  Uiso   1.00
C96    C     0.12952   0.00830   0.84501   0.00000  Uiso   1.00
C97    C     0.13180   0.94700   0.96688   0.00000  Uiso   1.00
C98    C     0.19427   0.12583   0.62082   0.00000  Uiso   1.00
C99    C     0.20274   0.17664   0.63864   0.00000  Uiso   1.00
C100   C     0.25217   0.19338   0.63212   0.00000  Uiso   1.00
C101   C     0.32543   0.23919   0.63072   0.00000  Uiso   1.00
C102   C     0.13670   0.07446   0.52136   0.00000  Uiso   1.00
C103   C     0.09677   0.08208   0.45554   0.00000  Uiso   1.00
C104   C     0.09773   0.05558   0.36527   0.00000  Uiso   1.00
C105   C     0.08160   0.02163   0.20945   0.00000  Uiso   1.00
C106   C     0.21595   0.03895   0.58071   0.00000  Uiso   1.00
C107   C     0.18805   0.02392   0.67665   0.00000  Uiso   1.00
C108   C     0.19904   0.98258   0.73682   0.00000  Uiso   1.00
C109   C     0.16910   0.97532   0.82145   0.00000  Uiso   1.00
C110   C     0.23377   0.09291   0.59730   0.00000  Uiso   1.00
C111   C     0.28320   0.10958   0.59074   0.00000  Uiso   1.00
C112   C     0.29175   0.16040   0.60855   0.00000  Uiso   1.00
C113   C     0.17620   0.04154   0.49784   0.00000  Uiso   1.00
C114   C     0.17723   0.01502   0.40765   0.00000  Uiso   1.00
C115   C     0.13731   0.02260   0.34171   0.00000  Uiso   1.00
H116   H     0.11247   0.12519   0.64231   0.00000  Uiso   1.00
H117   H     0.08801   0.07513   0.80291   0.00000  Uiso   1.00
H118   H     0.17216   0.20211   0.65683   0.00000  Uiso   1.00
H119   H     0.06620   0.10756   0.47377   0.00000  Uiso   1.00
H120   H     0.07833   0.00512   0.97060   0.00000  Uiso   1.00
H121   H     0.25576   0.27286   0.66256   0.00000  Uiso   1.00
H122   H     0.03233   0.07350   0.27653   0.00000  Uiso   1.00
H123   H     0.24671   0.01332   0.56240   0.00000  Uiso   1.00
H124   H     0.22961   0.95712   0.71860   0.00000  Uiso   1.00
H125   H     0.31376   0.08410   0.57253   0.00000  Uiso   1.00
H126   H     0.20780   0.98955   0.38947   0.00000  Uiso   1.00
H127   H     0.19326   0.90934   0.90218   0.00000  Uiso   1.00
H128   H     0.37069   0.17708   0.59414   0.00000  Uiso   1.00
H129   H     0.14726   0.97772   0.20812   0.00000  Uiso   1.00
O130   O     0.12214   0.92229   0.04061   0.00000  Uiso   1.00
O131   O     0.35492   0.27356   0.63646   0.00000  Uiso   1.00
O132   O     0.06178   0.01200   0.13001   0.00000  Uiso   1.00
N133   N     0.10772   0.99029   0.93305   0.00000  Uiso   1.00
N134   N     0.27361   0.24061   0.64507   0.00000  Uiso   1.00
N135   N     0.06472   0.05423   0.28415   0.00000  Uiso   1.00
N136   N     0.16956   0.93875   0.89623   0.00000  Uiso   1.00
N137   N     0.33545   0.18907   0.60825   0.00000  Uiso   1.00
N138   N     0.12656   0.00269   0.24734   0.00000  Uiso   1.00
C139   C     0.64322   0.59955   0.12401   0.00000  Uiso   1.00
C140   C     0.64855   0.55684   0.20017   0.00000  Uiso   1.00
C141   C     0.61858   0.54964   0.28473   0.00000  Uiso   1.00
C142   C     0.62952   0.50830   0.34501   0.00000  Uiso   1.00
C143   C     0.63180   0.44700   0.46688   0.00000  Uiso   1.00
C144   C     0.69427   0.62583   0.12082   0.00000  Uiso   1.00
C145   C     0.70274   0.67664   0.13864   0.00000  Uiso   1.00
C146   C     0.75217   0.69338   0.13212   0.00000  Uiso   1.00
C147   C     0.82543   0.73919   0.13072   0.00000  Uiso   1.00
C148   C     0.63670   0.57446   0.02136   0.00000  Uiso   1.00
C149   C     0.59677   0.58208   0.95554   0.00000  Uiso   1.00
C150   C     0.59773   0.55558   0.86527   0.00000  Uiso   1.00
C151   C     0.58160   0.52163   0.70945   0.00000  Uiso   1.00
C152   C     0.71595   0.53895   0.08071   0.00000  Uiso   1.00
C153   C     0.68805   0.52392   0.17665   0.00000  Uiso   1.00
C154   C     0.69904   0.48258   0.23682   0.00000  Uiso   1.00
C155   C     0.66910   0.47532   0.32145   0.00000  Uiso   1.00
C156   C     0.73377   0.59291   0.09730   0.00000  Uiso   1.00
C157   C     0.78320   0.60958   0.09074   0.00000  Uiso   1.00
C158   C     0.79175   0.66040   0.10855   0.00000  Uiso   1.00
C159   C     0.67620   0.54154   0.99784   0.00000  Uiso   1.00
C160   C     0.67723   0.51502   0.90765   0.00000  Uiso   1.00
C161   C     0.63731   0.52260   0.84171   0.00000  Uiso   1.00
H162   H     0.61247   0.62519   0.14231   0.00000  Uiso   1.00
H163   H     0.58801   0.57513   0.30291   0.00000  Uiso   1.00
H164   H     0.67216   0.70211   0.15683   0.00000  Uiso   1.00
H165   H     0.56620   0.60756   0.97377   0.00000  Uiso   1.00
H166   H     0.57833   0.50512   0.47060   0.00000  Uiso   1.00
H167   H     0.75576   0.77286   0.16256   0.00000  Uiso   1.00
H168   H     0.53233   0.57350   0.77653   0.00000  Uiso   1.00
H169   H     0.74671   0.51332   0.06240   0.00000  Uiso   1.00
H170   H     0.72961   0.45712   0.21860   0.00000  Uiso   1.00
H171   H     0.81376   0.58410   0.07253   0.00000  Uiso   1.00
H172   H     0.70780   0.48955   0.88947   0.00000  Uiso   1.00
H173   H     0.69326   0.40934   0.40218   0.00000  Uiso   1.00
H174   H     0.87069   0.67708   0.09414   0.00000  Uiso   1.00
H175   H     0.64726   0.47772   0.70812   0.00000  Uiso   1.00
O176   O     0.62214   0.42229   0.54061   0.00000  Uiso   1.00
O177   O     0.85492   0.77356   0.13646   0.00000  Uiso   1.00
O178   O     0.56178   0.51200   0.63001   0.00000  Uiso   1.00
N179   N     0.60772   0.49029   0.43305   0.00000  Uiso   1.00
N180   N     0.77361   0.74061   0.14507   0.00000  Uiso   1.00
N181   N     0.56472   0.55423   0.78415   0.00000  Uiso   1.00
N182   N     0.66956   0.43875   0.39623   0.00000  Uiso   1.00
N183   N     0.83545   0.68907   0.10825   0.00000  Uiso   1.00
N184   N     0.62656   0.50269   0.74734   0.00000  Uiso   1.00
C185   C     0.59955   0.85678   0.37401   0.00000  Uiso   1.00
C186   C     0.55684   0.85145   0.45017   0.00000  Uiso   1.00
C187   C     0.54964   0.88142   0.53473   0.00000  Uiso   1.00
C188   C     0.50830   0.87048   0.59501   0.00000  Uiso   1.00
C189   C     0.44700   0.86820   0.71688   0.00000  Uiso   1.00
C190   C     0.62583   0.80573   0.37082   0.00000  Uiso   1.00
C191   C     0.67664   0.79726   0.38864   0.00000  Uiso   1.00
C192   C     0.69338   0.74783   0.38212   0.00000  Uiso   1.00
C193   C     0.73919   0.67457   0.38072   0.00000  Uiso   1.00
C194   C     0.57446   0.86330   0.27136   0.00000  Uiso   1.00
C195   C     0.58208   0.90323   0.20554   0.00000  Uiso   1.00
C196   C     0.55558   0.90227   0.11527   0.00000  Uiso   1.00
C197   C     0.52163   0.91840   0.95945   0.00000  Uiso   1.00
C198   C     0.53895   0.78405   0.33071   0.00000  Uiso   1.00
C199   C     0.52392   0.81195   0.42665   0.00000  Uiso   1.00
C200   C     0.48258   0.80096   0.48682   0.00000  Uiso   1.00
C201   C     0.47532   0.83090   0.57145   0.00000  Uiso   1.00
C202   C     0.59291   0.76623   0.34730   0.00000  Uiso   1.00
C203   C     0.60958   0.71680   0.34074   0.00000  Uiso   1.00
C204   C     0.66040   0.70825   0.35855   0.00000  Uiso   1.00
C205   C     0.54154   0.82380   0.24784   0.00000  Uiso   1.00
C206   C     0.51502   0.82277   0.15765   0.00000  Uiso   1.00
C207   C     0.52260   0.86269   0.09171   0.00000  Uiso   1.00
H208   H     0.62519   0.88753   0.39231   0.00000  Uiso   1.00
H209   H     0.57513   0.91199   0.55291   0.00000  Uiso   1.00
H210   H     0.70211   0.82784   0.40683   0.00000  Uiso   1.00
H211   H     0.60756   0.93380   0.22377   0.00000  Uiso   1.00
H212   H     0.50512   0.92167   0.72060   0.00000  Uiso   1.00
H213   H     0.77286   0.74424   0.41256   0.00000  Uiso   1.00
H214   H     0.57350   0.96767   0.02653   0.00000  Uiso   1.00
H215   H     0.51332   0.75329   0.31240   0.00000  Uiso   1.00
H216   H     0.45712   0.77039   0.46860   0.00000  Uiso   1.00
H217   H     0.58410   0.68624   0.32253   0.00000  Uiso   1.00
H218   H     0.48955   0.79220   0.13947   0.00000  Uiso   1.00
H219   H     0.40934   0.80674   0.65218   0.00000  Uiso   1.00
H220   H     0.67708   0.62931   0.34414   0.00000  Uiso   1.00
H221   H     0.47772   0.85274   0.95812   0.00000  Uiso   1.00
O222   O     0.42229   0.87786   0.79061   0.00000  Uiso   1.00
O223   O     0.77356   0.64508   0.38646   0.00000  Uiso   1.00
O224   O     0.51200   0.93822   0.88001   0.00000  Uiso   1.00
N225   N     0.49029   0.89228   0.68305   0.00000  Uiso   1.00
N226   N     0.74061   0.72639   0.39507   0.00000  Uiso   1.00
N227   N     0.55423   0.93528   0.03415   0.00000  Uiso   1.00
N228   N     0.43875   0.83044   0.64623   0.00000  Uiso   1.00
N229   N     0.68907   0.66455   0.35825   0.00000  Uiso   1.00
N230   N     0.50269   0.87344   0.99734   0.00000  Uiso   1.00
C231   C     0.09955   0.35678   0.87401   0.00000  Uiso   1.00
C232   C     0.05684   0.35145   0.95017   0.00000  Uiso   1.00
C233   C     0.04964   0.38142   0.03473   0.00000  Uiso   1.00
C234   C     0.00830   0.37048   0.09501   0.00000  Uiso   1.00
C235   C     0.94700   0.36820   0.21688   0.00000  Uiso   1.00
C236   C     0.12583   0.30573   0.87082   0.00000  Uiso   1.00
C237   C     0.17664   0.29726   0.88864   0.00000  Uiso   1.00
C238   C     0.19338   0.24783   0.88212   0.00000  Uiso   1.00
C239   C     0.23919   0.17457   0.88072   0.00000  Uiso   1.00
C240   C     0.07446   0.36330   0.77136   0.00000  Uiso   1.00
C241   C     0.08208   0.40323   0.70554   0.00000  Uiso   1.00
C242   C     0.05558   0.40227   0.61527   0.00000  Uiso   1.00
C243   C     0.02163   0.41840   0.45945   0.00000  Uiso   1.00
C244   C     0.03895   0.28405   0.83071   0.00000  Uiso   1.00
C245   C     0.02392   0.31195   0.92665   0.00000  Uiso   1.00
C246   C     0.98258   0.30096   0.98682   0.00000  Uiso   1.00
C247   C     0.97532   0.33090   0.07145   0.00000  Uiso   1.00
C248   C     0.09291   0.26623   0.84730   0.00000  Uiso   1.00
C249   C     0.10958   0.21680   0.84074   0.00000  Uiso   1.00
C250   C     0.16040   0.20825   0.85855   0.00000  Uiso   1.00
C251   C     0.04154   0.32380   0.74784   0.00000  Uiso   1.00
C252   C     0.01502   0.32277   0.65765   0.00000  Uiso   1.00
C253   C     0.02260   0.36269   0.59171   0.00000  Uiso   1.00
H254   H     0.12519   0.38753   0.89231   0.00000  Uiso   1.00
H255   H     0.07513   0.41199   0.05291   0.00000  Uiso   1.00
H256   H     0.20211   0.32784   0.90683   0.00000  Uiso   1.00
H257   H     0.10756   0.43380   0.72377   0.00000  Uiso   1.00
H258   H     0.00512   0.42167   0.22060   0.00000  Uiso   1.00
H259   H     0.27286   0.24424   0.91256   0.00000  Uiso   1.00
H260   H     0.07350   0.46767   0.52653   0.00000  Uiso   1.00
H261   H     0.01332   0.25329   0.81240   0.00000  Uiso   1.00
H262   H     0.95712   0.27039   0.96860   0.00000  Uiso   1.00
H263   H     0.08410   0.18624   0.82253   0.00000  Uiso   1.00
H264   H     0.98955   0.29220   0.63947   0.00000  Uiso   1.00
H265   H     0.90934   0.30674   0.15218   0.00000  Uiso   1.00
H266   H     0.17708   0.12931   0.84414   0.00000  Uiso   1.00
H267   H     0.97772   0.35274   0.45812   0.00000  Uiso   1.00
O268   O     0.92229   0.37786   0.29061   0.00000  Uiso   1.00
O269   O     0.27356   0.14508   0.88646   0.00000  Uiso   1.00
O270   O     0.01200   0.43822   0.38001   0.00000  Uiso   1.00
N271   N     0.99029   0.39228   0.18305   0.00000  Uiso   1.00
N272   N     0.24061   0.22639   0.89507   0.00000  Uiso   1.00
N273   N     0.05423   0.43528   0.53415   0.00000  Uiso   1.00
N274   N     0.93875   0.33044   0.14623   0.00000  Uiso   1.00
N275   N     0.18907   0.16455   0.85825   0.00000  Uiso   1.00
N276   N     0.00269   0.37344   0.49734   0.00000  Uiso   1.00
C277   C     0.90045   0.64322   0.87401   0.00000  Uiso   1.00
C278   C     0.94316   0.64855   0.95017   0.00000  Uiso   1.00
C279   C     0.95036   0.61858   0.03473   0.00000  Uiso   1.00
C280   C     0.99170   0.62952   0.09501   0.00000  Uiso   1.00
C281   C     0.05300   0.63180   0.21688   0.00000  Uiso   1.00
C282   C     0.87417   0.69427   0.87082   0.00000  Uiso   1.00
C283   C     0.82336   0.70274   0.88864   0.00000  Uiso   1.00
C284   C     0.80662   0.75217   0.88212   0.00000  Uiso   1.00
C285   C     0.76081   0.82543   0.88072   0.00000  Uiso   1.00
C286   C     0.92554   0.63670   0.77136   0.00000  Uiso   1.00
C287   C     0.91792   0.59677   0.70554   0.00000  Uiso   1.00
C288   C     0.94442   0.59773   0.61527   0.00000  Uiso   1.00
C289   C     0.97837   0.58160   0.45945   0.00000  Uiso   1.00
C290   C     0.96105   0.71595   0.83071   0.00000  Uiso   1.00
C291   C     0.97608   0.68805   0.92665   0.00000  Uiso   1.00
C292   C     0.01742   0.69904   0.98682   0.00000  Uiso   1.00
C293   C     0.02468   0.66910   0.07145   0.00000  Uiso   1.00
C294   C     0.90709   0.73377   0.84730   0.00000  Uiso   1.00
C295   C     0.89042   0.78320   0.84074   0.00000  Uiso   1.00
C296   C     0.83960   0.79175   0.85855   0.00000  Uiso   1.00
C297   C     0.95846   0.67620   0.74784   0.00000  Uiso   1.00
C298   C     0.98498   0.67723   0.65765   0.00000  Uiso   1.00
C299   C     0.97740   0.63731   0.59171   0.00000  Uiso   1.00
H300   H     0.87481   0.61247   0.89231   0.00000  Uiso   1.00
H301   H     0.92487   0.58801   0.05291   0.00000  Uiso   1.00
H302   H     0.79789   0.67216   0.90683   0.00000  Uiso   1.00
H303   H     0.89244   0.56620   0.72377   0.00000  Uiso   1.00
H304   H     0.99488   0.57833   0.22060   0.00000  Uiso   1.00
H305   H     0.72714   0.75576   0.91256   0.00000  Uiso   1.00
H306   H     0.92650   0.53233   0.52653   0.00000  Uiso   1.00
H307   H     0.98668   0.74671   0.81240   0.00000  Uiso   1.00
H308   H     0.04288   0.72961   0.96860   0.00000  Uiso   1.00
H309   H     0.91590   0.81376   0.82253   0.00000  Uiso   1.00
H310   H     0.01045   0.70780   0.63947   0.00000  Uiso   1.00
H311   H     0.09066   0.69326   0.15218   0.00000  Uiso   1.00
H312   H     0.82292   0.87069   0.84414   0.00000  Uiso   1.00
H313   H     0.02228   0.64726   0.45812   0.00000  Uiso   1.00
O314   O     0.07771   0.62214   0.29061   0.00000  Uiso   1.00
O315   O     0.72644   0.85492   0.88646   0.00000  Uiso   1.00
O316   O     0.98800   0.56178   0.38001   0.00000  Uiso   1.00
N317   N     0.00971   0.60772   0.18305   0.00000  Uiso   1.00
N318   N     0.75939   0.77361   0.89507   0.00000  Uiso   1.00
N319   N     0.94577   0.56472   0.53415   0.00000  Uiso   1.00
N320   N     0.06125   0.66956   0.14623   0.00000  Uiso   1.00
N321   N     0.81093   0.83545   0.85825   0.00000  Uiso   1.00
N322   N     0.99731   0.62656   0.49734   0.00000  Uiso   1.00
C323   C     0.40045   0.14322   0.37401   0.00000  Uiso   1.00
C324   C     0.44316   0.14855   0.45017   0.00000  Uiso   1.00
C325   C     0.45036   0.11858   0.53473   0.00000  Uiso   1.00
C326   C     0.49170   0.12952   0.59501   0.00000  Uiso   1.00
C327   C     0.55300   0.13180   0.71688   0.00000  Uiso   1.00
C328   C     0.37417   0.19427   0.37082   0.00000  Uiso   1.00
C329   C     0.32336   0.20274   0.38864   0.00000  Uiso   1.00
C330   C     0.30662   0.25217   0.38212   0.00000  Uiso   1.00
C331   C     0.26081   0.32543   0.38072   0.00000  Uiso   1.00
C332   C     0.42554   0.13670   0.27136   0.00000  Uiso   1.00
C333   C     0.41792   0.09677   0.20554   0.00000  Uiso   1.00
C334   C     0.44442   0.09773   0.11527   0.00000  Uiso   1.00
C335   C     0.47837   0.08160   0.95945   0.00000  Uiso   1.00
C336   C     0.46105   0.21595   0.33071   0.00000  Uiso   1.00
C337   C     0.47608   0.18805   0.42665   0.00000  Uiso   1.00
C338   C     0.51742   0.19904   0.48682   0.00000  Uiso   1.00
C339   C     0.52468   0.16910   0.57145   0.00000  Uiso   1.00
C340   C     0.40709   0.23377   0.34730   0.00000  Uiso   1.00
C341   C     0.39042   0.28320   0.34074   0.00000  Uiso   1.00
C342   C     0.33960   0.29175   0.35855   0.00000  Uiso   1.00
C343   C     0.45846   0.17620   0.24784   0.00000  Uiso   1.00
C344   C     0.48498   0.17723   0.15765   0.00000  Uiso   1.00
C345   C     0.47740   0.13731   0.09171   0.00000  Uiso   1.00
H346   H     0.37481   0.11247   0.39231   0.00000  Uiso   1.00
H347   H     0.42487   0.08801   0.55291   0.00000  Uiso   1.00
H348   H     0.29789   0.17216   0.40683   0.00000  Uiso   1.00
H349   H     0.39244   0.06620   0.22377   0.00000  Uiso   1.00
H350   H     0.49488   0.07833   0.72060   0.00000  Uiso   1.00
H351   H     0.22714   0.25576   0.41256   0.00000  Uiso   1.00
H352   H     0.42650   0.03233   0.02653   0.00000  Uiso   1.00
H353   H     0.48668   0.24671   0.31240   0.00000  Uiso   1.00
H354   H     0.54288   0.22961   0.46860   0.00000  Uiso   1.00
H355   H     0.41590   0.31376   0.32253   0.00000  Uiso   1.00
H356   H     0.51045   0.20780   0.13947   0.00000  Uiso   1.00
H357   H     0.59066   0.19326   0.65218   0.00000  Uiso   1.00
H358   H     0.32292   0.37069   0.34414   0.00000  Uiso   1.00
H359   H     0.52228   0.14726   0.95812   0.00000  Uiso   1.00
O360   O     0.57771   0.12214   0.79061   0.00000  Uiso   1.00
O361   O     0.22644   0.35492   0.38646   0.00000  Uiso   1.00
O362   O     0.48800   0.06178   0.88001   0.00000  Uiso   1.00
N363   N     0.50971   0.10772   0.68305   0.00000  Uiso   1.00
N364   N     0.25939   0.27361   0.39507   0.00000  Uiso   1.00
N365   N     0.44577   0.06472   0.03415   0.00000  Uiso   1.00
N366   N     0.56125   0.16956   0.64623   0.00000  Uiso   1.00
N367   N     0.31093   0.33545   0.35825   0.00000  Uiso   1.00
N368   N     0.49731   0.12656   0.99734   0.00000  Uiso   1.00
C369   C     0.64322   0.09955   0.12599   0.00000  Uiso   1.00
C370   C     0.64855   0.05684   0.04983   0.00000  Uiso   1.00
C371   C     0.61858   0.04964   0.96527   0.00000  Uiso   1.00
C372   C     0.62952   0.00830   0.90499   0.00000  Uiso   1.00
C373   C     0.63180   0.94700   0.78312   0.00000  Uiso   1.00
C374   C     0.69427   0.12583   0.12918   0.00000  Uiso   1.00
C375   C     0.70274   0.17664   0.11136   0.00000  Uiso   1.00
C376   C     0.75217   0.19338   0.11788   0.00000  Uiso   1.00
C377   C     0.82543   0.23919   0.11928   0.00000  Uiso   1.00
C378   C     0.63670   0.07446   0.22864   0.00000  Uiso   1.00
C379   C     0.59677   0.08208   0.29446   0.00000  Uiso   1.00
C380   C     0.59773   0.05558   0.38473   0.00000  Uiso   1.00
C381   C     0.58160   0.02163   0.54055   0.00000  Uiso   1.00
C382   C     0.71595   0.03895   0.16929   0.00000  Uiso   1.00
C383   C     0.68805   0.02392   0.07335   0.00000  Uiso   1.00
C384   C     0.69904   0.98258   0.01318   0.00000  Uiso   1.00
C385   C     0.66910   0.97532   0.92855   0.00000  Uiso   1.00
C386   C     0.73377   0.09291   0.15270   0.00000  Uiso   1.00
C387   C     0.78320   0.10958   0.15926   0.00000  Uiso   1.00
C388   C     0.79175   0.16040   0.14145   0.00000  Uiso   1.00
C389   C     0.67620   0.04154   0.25216   0.00000  Uiso   1.00
C390   C     0.67723   0.01502   0.34235   0.00000  Uiso   1.00
C391   C     0.63731   0.02260   0.40829   0.00000  Uiso   1.00
H392   H     0.61247   0.12519   0.10769   0.00000  Uiso   1.00
H393   H     0.58801   0.07513   0.94709   0.00000  Uiso   1.00
H394   H     0.67216   0.20211   0.09317   0.00000  Uiso   1.00
H395   H     0.56620   0.10756   0.27623   0.00000  Uiso   1.00
H396   H     0.57833   0.00512   0.77940   0.00000  Uiso   1.00
H397   H     0.75576   0.27286   0.08744   0.00000  Uiso   1.00
H398   H     0.53233   0.07350   0.47347   0.00000  Uiso   1.00
H399   H     0.74671   0.01332   0.18760   0.00000  Uiso   1.00
H400   H     0.72961   0.95712   0.03140   0.00000  Uiso   1.00
H401   H     0.81376   0.08410   0.17747   0.00000  Uiso   1.00
H402   H     0.70780   0.98955   0.36053   0.00000  Uiso   1.00
H403   H     0.69326   0.90934   0.84782   0.00000  Uiso   1.00
H404   H     0.87069   0.17708   0.15586   0.00000  Uiso   1.00
H405   H     0.64726   0.97772   0.54188   0.00000  Uiso   1.00
O406   O     0.62214   0.92229   0.70939   0.00000  Uiso   1.00
O407   O     0.85492   0.27356   0.11354   0.00000  Uiso   1.00
O408   O     0.56178   0.01200   0.61999   0.00000  Uiso   1.00
N409   N     0.60772   0.99029   0.81695   0.00000  Uiso   1.00
N410   N     0.77361   0.24061   0.10493   0.00000  Uiso   1.00
N411   N     0.56472   0.05423   0.46585   0.00000  Uiso   1.00
N412   N     0.66956   0.93875   0.85377   0.00000  Uiso   1.00
N413   N     0.83545   0.18907   0.14175   0.00000  Uiso   1.00
N414   N     0.62656   0.00269   0.50266   0.00000  Uiso   1.00
C415   C     0.14322   0.59955   0.62599   0.00000  Uiso   1.00
C416   C     0.14855   0.55684   0.54983   0.00000  Uiso   1.00
C417   C     0.11858   0.54964   0.46527   0.00000  Uiso   1.00
C418   C     0.12952   0.50830   0.40499   0.00000  Uiso   1.00
C419   C     0.13180   0.44700   0.28312   0.00000  Uiso   1.00
C420   C     0.19427   0.62583   0.62918   0.00000  Uiso   1.00
C421   C     0.20274   0.67664   0.61136   0.00000  Uiso   1.00
C422   C     0.25217   0.69338   0.61788   0.00000  Uiso   1.00
C423   C     0.32543   0.73919   0.61928   0.00000  Uiso   1.00
C424   C     0.13670   0.57446   0.72864   0.00000  Uiso   1.00
C425   C     0.09677   0.58208   0.79446   0.00000  Uiso   1.00
C426   C     0.09773   0.55558   0.88473   0.00000  Uiso   1.00
C427   C     0.08160   0.52163   0.04055   0.00000  Uiso   1.00
C428   C     0.21595   0.53895   0.66929   0.00000  Uiso   1.00
C429   C     0.18805   0.52392   0.57335   0.00000  Uiso   1.00
C430   C     0.19904   0.48258   0.51318   0.00000  Uiso   1.00
C431   C     0.16910   0.47532   0.42855   0.00000  Uiso   1.00
C432   C     0.23377   0.59291   0.65270   0.00000  Uiso   1.00
C433   C     0.28320   0.60958   0.65926   0.00000  Uiso   1.00
C434   C     0.29175   0.66040   0.64145   0.00000  Uiso   1.00
C435   C     0.17620   0.54154   0.75216   0.00000  Uiso   1.00
C436   C     0.17723   0.51502   0.84235   0.00000  Uiso   1.00
C437   C     0.13731   0.52260   0.90829   0.00000  Uiso   1.00
H438   H     0.11247   0.62519   0.60769   0.00000  Uiso   1.00
H439   H     0.08801   0.57513   0.44709   0.00000  Uiso   1.00
H440   H     0.17216   0.70211   0.59317   0.00000  Uiso   1.00
H441   H     0.06620   0.60756   0.77623   0.00000  Uiso   1.00
H442   H     0.07833   0.50512   0.27940   0.00000  Uiso   1.00
H443   H     0.25576   0.77286   0.58744   0.00000  Uiso   1.00
H444   H     0.03233   0.57350   0.97347   0.00000  Uiso   1.00
H445   H     0.24671   0.51332   0.68760   0.00000  Uiso   1.00
H446   H     0.22961   0.45712   0.53140   0.00000  Uiso   1.00
H447   H     0.31376   0.58410   0.67747   0.00000  Uiso   1.00
H448   H     0.20780   0.48955   0.86053   0.00000  Uiso   1.00
H449   H     0.19326   0.40934   0.34782   0.00000  Uiso   1.00
H450   H     0.37069   0.67708   0.65586   0.00000  Uiso   1.00
H451   H     0.14726   0.47772   0.04188   0.00000  Uiso   1.00
O452   O     0.12214   0.42229   0.20939   0.00000  Uiso   1.00
O453   O     0.35492   0.77356   0.61354   0.00000  Uiso   1.00
O454   O     0.06178   0.51200   0.11999   0.00000  Uiso   1.00
N455   N     0.10772   0.49029   0.31695   0.00000  Uiso   1.00
N456   N     0.27361   0.74061   0.60493   0.00000  Uiso   1.00
N457   N     0.06472   0.55423   0.96585   0.00000  Uiso   1.00
N458   N     0.16956   0.43875   0.35377   0.00000  Uiso   1.00
N459   N     0.33545   0.68907   0.64175   0.00000  Uiso   1.00
N460   N     0.12656   0.50269   0.00266   0.00000  Uiso   1.00
C461   C     0.85678   0.40045   0.62599   0.00000  Uiso   1.00
C462   C     0.85145   0.44316   0.54983   0.00000  Uiso   1.00
C463   C     0.88142   0.45036   0.46527   0.00000  Uiso   1.00
C464   C     0.87048   0.49170   0.40499   0.00000  Uiso   1.00
C465   C     0.86820   0.55300   0.28312   0.00000  Uiso   1.00
C466   C     0.80573   0.37417   0.62918   0.00000  Uiso   1.00
C467   C     0.79726   0.32336   0.61136   0.00000  Uiso   1.00
C468   C     0.74783   0.30662   0.61788   0.00000  Uiso   1.00
C469   C     0.67457   0.26081   0.61928   0.00000  Uiso   1.00
C470   C     0.86330   0.42554   0.72864   0.00000  Uiso   1.00
C471   C     0.90323   0.41792   0.79446   0.00000  Uiso   1.00
C472   C     0.90227   0.44442   0.88473   0.00000  Uiso   1.00
C473   C     0.91840   0.47837   0.04055   0.00000  Uiso   1.00
C474   C     0.78405   0.46105   0.66929   0.00000  Uiso   1.00
C475   C     0.81195   0.47608   0.57335   0.00000  Uiso   1.00
C476   C     0.80096   0.51742   0.51318   0.00000  Uiso   1.00
C477   C     0.83090   0.52468   0.42855   0.00000  Uiso   1.00
C478   C     0.76623   0.40709   0.65270   0.00000  Uiso   1.00
C479   C     0.71680   0.39042   0.65926   0.00000  Uiso   1.00
C480   C     0.70825   0.33960   0.64145   0.00000  Uiso   1.00
C481   C     0.82380   0.45846   0.75216   0.00000  Uiso   1.00
C482   C     0.82277   0.48498   0.84235   0.00000  Uiso   1.00
C483   C     0.86269   0.47740   0.90829   0.00000  Uiso   1.00
H484   H     0.88753   0.37481   0.60769   0.00000  Uiso   1.00
H485   H     0.91199   0.42487   0.44709   0.00000  Uiso   1.00
H486   H     0.82784   0.29789   0.59317   0.00000  Uiso   1.00
H487   H     0.93380   0.39244   0.77623   0.00000  Uiso   1.00
H488   H     0.92167   0.49488   0.27940   0.00000  Uiso   1.00
H489   H     0.74424   0.22714   0.58744   0.00000  Uiso   1.00
H490   H     0.96767   0.42650   0.97347   0.00000  Uiso   1.00
H491   H     0.75329   0.48668   0.68760   0.00000  Uiso   1.00
H492   H     0.77039   0.54288   0.53140   0.00000  Uiso   1.00
H493   H     0.68624   0.41590   0.67747   0.00000  Uiso   1.00
H494   H     0.79220   0.51045   0.86053   0.00000  Uiso   1.00
H495   H     0.80674   0.59066   0.34782   0.00000  Uiso   1.00
H496   H     0.62931   0.32292   0.65586   0.00000  Uiso   1.00
H497   H     0.85274   0.52228   0.04188   0.00000  Uiso   1.00
O498   O     0.87786   0.57771   0.20939   0.00000  Uiso   1.00
O499   O     0.64508   0.22644   0.61354   0.00000  Uiso   1.00
O500   O     0.93822   0.48800   0.11999   0.00000  Uiso   1.00
N501   N     0.89228   0.50971   0.31695   0.00000  Uiso   1.00
N502   N     0.72639   0.25939   0.60493   0.00000  Uiso   1.00
N503   N     0.93528   0.44577   0.96585   0.00000  Uiso   1.00
N504   N     0.83044   0.56125   0.35377   0.00000  Uiso   1.00
N505   N     0.66455   0.31093   0.64175   0.00000  Uiso   1.00
N506   N     0.87344   0.49731   0.00266   0.00000  Uiso   1.00
C507   C     0.35678   0.90045   0.12599   0.00000  Uiso   1.00
C508   C     0.35145   0.94316   0.04983   0.00000  Uiso   1.00
C509   C     0.38142   0.95036   0.96527   0.00000  Uiso   1.00
C510   C     0.37048   0.99170   0.90499   0.00000  Uiso   1.00
C511   C     0.36820   0.05300   0.78312   0.00000  Uiso   1.00
C512   C     0.30573   0.87417   0.12918   0.00000  Uiso   1.00
C513   C     0.29726   0.82336   0.11136   0.00000  Uiso   1.00
C514   C     0.24783   0.80662   0.11788   0.00000  Uiso   1.00
C515   C     0.17457   0.76081   0.11928   0.00000  Uiso   1.00
C516   C     0.36330   0.92554   0.22864   0.00000  Uiso   1.00
C517   C     0.40323   0.91792   0.29446   0.00000  Uiso   1.00
C518   C     0.40227   0.94442   0.38473   0.00000  Uiso   1.00
C519   C     0.41840   0.97837   0.54055   0.00000  Uiso   1.00
C520   C     0.28405   0.96105   0.16929   0.00000  Uiso   1.00
C521   C     0.31195   0.97608   0.07335   0.00000  Uiso   1.00
C522   C     0.30096   0.01742   0.01318   0.00000  Uiso   1.00
C523   C     0.33090   0.02468   0.92855   0.00000  Uiso   1.00
C524   C     0.26623   0.90709   0.15270   0.00000  Uiso   1.00
C525   C     0.21680   0.89042   0.15926   0.00000  Uiso   1.00
C526   C     0.20825   0.83960   0.14145   0.00000  Uiso   1.00
C527   C     0.32380   0.95846   0.25216   0.00000  Uiso   1.00
C528   C     0.32277   0.98498   0.34235   0.00000  Uiso   1.00
C529   C     0.36269   0.97740   0.40829   0.00000  Uiso   1.00
H530   H     0.38753   0.87481   0.10769   0.00000  Uiso   1.00
H531   H     0.41199   0.92487   0.94709   0.00000  Uiso   1.00
H532   H     0.32784   0.79789   0.09317   0.00000  Uiso   1.00
H533   H     0.43380   0.89244   0.27623   0.00000  Uiso   1.00
H534   H     0.42167   0.99488   0.77940   0.00000  Uiso   1.00
H535   H     0.24424   0.72714   0.08744   0.00000  Uiso   1.00
H536   H     0.46767   0.92650   0.47347   0.00000  Uiso   1.00
H537   H     0.25329   0.98668   0.18760   0.00000  Uiso   1.00
H538   H     0.27039   0.04288   0.03140   0.00000  Uiso   1.00
H539   H     0.18624   0.91590   0.17747   0.00000  Uiso   1.00
H540   H     0.29220   0.01045   0.36053   0.00000  Uiso   1.00
H541   H     0.30674   0.09066   0.84782   0.00000  Uiso   1.00
H542   H     0.12931   0.82292   0.15586   0.00000  Uiso   1.00
H543   H     0.35274   0.02228   0.54188   0.00000  Uiso   1.00
O544   O     0.37786   0.07771   0.70939   0.00000  Uiso   1.00
O545   O     0.14508   0.72644   0.11354   0.00000  Uiso   1.00
O546   O     0.43822   0.98800   0.61999   0.00000  Uiso   1.00
N547   N     0.39228   0.00971   0.81695   0.00000  Uiso   1.00
N548   N     0.22639   0.75939   0.10493   0.00000  Uiso   1.00
N549   N     0.43528   0.94577   0.46585   0.00000  Uiso   1.00
N550   N     0.33044   0.06125   0.85377   0.00000  Uiso   1.00
N551   N     0.16455   0.81093   0.14175   0.00000  Uiso   1.00
N552   N     0.37344   0.99731   0.50266   0.00000  Uiso   1.00
C553   C     0.40045   0.64322   0.87599   0.00000  Uiso   1.00
C554   C     0.44316   0.64855   0.79983   0.00000  Uiso   1.00
C555   C     0.45036   0.61858   0.71527   0.00000  Uiso   1.00
C556   C     0.49170   0.62952   0.65499   0.00000  Uiso   1.00
C557   C     0.55300   0.63180   0.53312   0.00000  Uiso   1.00
C558   C     0.37417   0.69427   0.87918   0.00000  Uiso   1.00
C559   C     0.32336   0.70274   0.86136   0.00000  Uiso   1.00
C560   C     0.30662   0.75217   0.86788   0.00000  Uiso   1.00
C561   C     0.26081   0.82543   0.86928   0.00000  Uiso   1.00
C562   C     0.42554   0.63670   0.97864   0.00000  Uiso   1.00
C563   C     0.41792   0.59677   0.04446   0.00000  Uiso   1.00
C564   C     0.44442   0.59773   0.13473   0.00000  Uiso   1.00
C565   C     0.47837   0.58160   0.29055   0.00000  Uiso   1.00
C566   C     0.46105   0.71595   0.91929   0.00000  Uiso   1.00
C567   C     0.47608   0.68805   0.82335   0.00000  Uiso   1.00
C568   C     0.51742   0.69904   0.76318   0.00000  Uiso   1.00
C569   C     0.52468   0.66910   0.67855   0.00000  Uiso   1.00
C570   C     0.40709   0.73377   0.90270   0.00000  Uiso   1.00
C571   C     0.39042   0.78320   0.90926   0.00000  Uiso   1.00
C572   C     0.33960   0.79175   0.89145   0.00000  Uiso   1.00
C573   C     0.45846   0.67620   0.00216   0.00000  Uiso   1.00
C574   C     0.48498   0.67723   0.09235   0.00000  Uiso   1.00
C575   C     0.47740   0.63731   0.15829   0.00000  Uiso   1.00
H576   H     0.37481   0.61247   0.85769   0.00000  Uiso   1.00
H577   H     0.42487   0.58801   0.69709   0.00000  Uiso   1.00
H578   H     0.29789   0.67216   0.84317   0.00000  Uiso   1.00
H579   H     0.39244   0.56620   0.02623   0.00000  Uiso   1.00
H580   H     0.49488   0.57833   0.52940   0.00000  Uiso   1.00
H581   H     0.22714   0.75576   0.83744   0.00000  Uiso   1.00
H582   H     0.42650   0.53233   0.22347   0.00000  Uiso   1.00
H583   H     0.48668   0.74671   0.93760   0.00000  Uiso   1.00
H584   H     0.54288   0.72961   0.78140   0.00000  Uiso   1.00
H585   H     0.41590   0.81376   0.92747   0.00000  Uiso   1.00
H586   H     0.51045   0.70780   0.11053   0.00000  Uiso   1.00
H587   H     0.59066   0.69326   0.59782   0.00000  Uiso   1.00
H588   H     0.32292   0.87069   0.90586   0.00000  Uiso   1.00
H589   H     0.52228   0.64726   0.29188   0.00000  Uiso   1.00
O590   O     0.57771   0.62214   0.45939   0.00000  Uiso   1.00
O591   O     0.22644   0.85492   0.86354   0.00000  Uiso   1.00
O592   O     0.48800   0.56178   0.36999   0.00000  Uiso   1.00
N593   N     0.50971   0.60772   0.56695   0.00000  Uiso   1.00
N594   N     0.25939   0.77361   0.85493   0.00000  Uiso   1.00
N595   N     0.44577   0.56472   0.21585   0.00000  Uiso   1.00
N596   N     0.56125   0.66956   0.60377   0.00000  Uiso   1.00
N597   N     0.31093   0.83545   0.89175   0.00000  Uiso   1.00
N598   N     0.49731   0.62656   0.25266   0.00000  Uiso   1.00
C599   C     0.90045   0.14322   0.37599   0.00000  Uiso   1.00
C600   C     0.94316   0.14855   0.29983   0.00000  Uiso   1.00
C601   C     0.95036   0.11858   0.21527   0.00000  Uiso   1.00
C602   C     0.99170   0.12952   0.15499   0.00000  Uiso   1.00
C603   C     0.05300   0.13180   0.03312   0.00000  Uiso   1.00
C604   C     0.87417   0.19427   0.37918   0.00000  Uiso   1.00
C605   C     0.82336   0.20274   0.36136   0.00000  Uiso   1.00
C606   C     0.80662   0.25217   0.36788   0.00000  Uiso   1.00
C607   C     0.76081   0.32543   0.36928   0.00000  Uiso   1.00
C608   C     0.92554   0.13670   0.47864   0.00000  Uiso   1.00
C609   C     0.91792   0.09677   0.54446   0.00000  Uiso   1.00
C610   C     0.94442   0.09773   0.63473   0.00000  Uiso   1.00
C611   C     0.97837   0.08160   0.79055   0.00000  Uiso   1.00
C612   C     0.96105   0.21595   0.41929   0.00000  Uiso   1.00
C613   C     0.97608   0.18805   0.32335   0.00000  Uiso   1.00
C614   C     0.01742   0.19904   0.26318   0.00000  Uiso   1.00
C615   C     0.02468   0.16910   0.17855   0.00000  Uiso   1.00
C616   C     0.90709   0.23377   0.40270   0.00000  Uiso   1.00
C617   C     0.89042   0.28320   0.40926   0.00000  Uiso   1.00
C618   C     0.83960   0.29175   0.39145   0.00000  Uiso   1.00
C619   C     0.95846   0.17620   0.50216   0.00000  Uiso   1.00
C620   C     0.98498   0.17723   0.59235   0.00000  Uiso   1.00
C621   C     0.97740   0.13731   0.65829   0.00000  Uiso   1.00
H622   H     0.87481   0.11247   0.35769   0.00000  Uiso   1.00
H623   H     0.92487   0.08801   0.19709   0.00000  Uiso   1.00
H624   H     0.79789   0.17216   0.34317   0.00000  Uiso   1.00
H625   H     0.89244   0.06620   0.52623   0.00000  Uiso   1.00
H626   H     0.99488   0.07833   0.02940   0.00000  Uiso   1.00
H627   H     0.72714   0.25576   0.33744   0.00000  Uiso   1.00
H628   H     0.92650   0.03233   0.72347   0.00000  Uiso   1.00
H629   H     0.98668   0.24671   0.43760   0.00000  Uiso   1.00
H630   H     0.04288   0.22961   0.28140   0.00000  Uiso   1.00
H631   H     0.91590   0.31376   0.42747   0.00000  Uiso   1.00
H632   H     0.01045   0.20780   0.61053   0.00000  Uiso   1.00
H633   H     0.09066   0.19326   0.09782   0.00000  Uiso   1.00
H634   H     0.82292   0.37069   0.40586   0.00000  Uiso   1.00
H635   H     0.02228   0.14726   0.79188   0.00000  Uiso   1.00
O636   O     0.07771   0.12214   0.95939   0.00000  Uiso   1.00
O637   O     0.72644   0.35492   0.36354   0.00000  Uiso   1.00
O638   O     0.98800   0.06178   0.86999   0.00000  Uiso   1.00
N639   N     0.00971   0.10772   0.06695   0.00000  Uiso   1.00
N640   N     0.75939   0.27361   0.35493   0.00000  Uiso   1.00
N641   N     0.94577   0.06472   0.71585   0.00000  Uiso   1.00
N642   N     0.06125   0.16956   0.10377   0.00000  Uiso   1.00
N643   N     0.81093   0.33545   0.39175   0.00000  Uiso   1.00
N644   N     0.99731   0.12656   0.75266   0.00000  Uiso   1.00
C645   C     0.09955   0.85678   0.37599   0.00000  Uiso   1.00
C646   C     0.05684   0.85145   0.29983   0.00000  Uiso   1.00
C647   C     0.04964   0.88142   0.21527   0.00000  Uiso   1.00
C648   C     0.00830   0.87048   0.15499   0.00000  Uiso   1.00
C649   C     0.94700   0.86820   0.03312   0.00000  Uiso   1.00
C650   C     0.12583   0.80573   0.37918   0.00000  Uiso   1.00
C651   C     0.17664   0.79726   0.36136   0.00000  Uiso   1.00
C652   C     0.19338   0.74783   0.36788   0.00000  Uiso   1.00
C653   C     0.23919   0.67457   0.36928   0.00000  Uiso   1.00
C654   C     0.07446   0.86330   0.47864   0.00000  Uiso   1.00
C655   C     0.08208   0.90323   0.54446   0.00000  Uiso   1.00
C656   C     0.05558   0.90227   0.63473   0.00000  Uiso   1.00
C657   C     0.02163   0.91840   0.79055   0.00000  Uiso   1.00
C658   C     0.03895   0.78405   0.41929   0.00000  Uiso   1.00
C659   C     0.02392   0.81195   0.32335   0.00000  Uiso   1.00
C660   C     0.98258   0.80096   0.26318   0.00000  Uiso   1.00
C661   C     0.97532   0.83090   0.17855   0.00000  Uiso   1.00
C662   C     0.09291   0.76623   0.40270   0.00000  Uiso   1.00
C663   C     0.10958   0.71680   0.40926   0.00000  Uiso   1.00
C664   C     0.16040   0.70825   0.39145   0.00000  Uiso   1.00
C665   C     0.04154   0.82380   0.50216   0.00000  Uiso   1.00
C666   C     0.01502   0.82277   0.59235   0.00000  Uiso   1.00
C667   C     0.02260   0.86269   0.65829   0.00000  Uiso   1.00
H668   H     0.12519   0.88753   0.35769   0.00000  Uiso   1.00
H669   H     0.07513   0.91199   0.19709   0.00000  Uiso   1.00
H670   H     0.20211   0.82784   0.34317   0.00000  Uiso   1.00
H671   H     0.10756   0.93380   0.52623   0.00000  Uiso   1.00
H672   H     0.00512   0.92167   0.02940   0.00000  Uiso   1.00
H673   H     0.27286   0.74424   0.33744   0.00000  Uiso   1.00
H674   H     0.07350   0.96767   0.72347   0.00000  Uiso   1.00
H675   H     0.01332   0.75329   0.43760   0.00000  Uiso   1.00
H676   H     0.95712   0.77039   0.28140   0.00000  Uiso   1.00
H677   H     0.08410   0.68624   0.42747   0.00000  Uiso   1.00
H678   H     0.98955   0.79220   0.61053   0.00000  Uiso   1.00
H679   H     0.90934   0.80674   0.09782   0.00000  Uiso   1.00
H680   H     0.17708   0.62931   0.40586   0.00000  Uiso   1.00
H681   H     0.97772   0.85274   0.79188   0.00000  Uiso   1.00
O682   O     0.92229   0.87786   0.95939   0.00000  Uiso   1.00
O683   O     0.27356   0.64508   0.36354   0.00000  Uiso   1.00
O684   O     0.01200   0.93822   0.86999   0.00000  Uiso   1.00
N685   N     0.99029   0.89228   0.06695   0.00000  Uiso   1.00
N686   N     0.24061   0.72639   0.35493   0.00000  Uiso   1.00
N687   N     0.05423   0.93528   0.71585   0.00000  Uiso   1.00
N688   N     0.93875   0.83044   0.10377   0.00000  Uiso   1.00
N689   N     0.18907   0.66455   0.39175   0.00000  Uiso   1.00
N690   N     0.00269   0.87344   0.75266   0.00000  Uiso   1.00
C691   C     0.59955   0.35678   0.87599   0.00000  Uiso   1.00
C692   C     0.55684   0.35145   0.79983   0.00000  Uiso   1.00
C693   C     0.54964   0.38142   0.71527   0.00000  Uiso   1.00
C694   C     0.50830   0.37048   0.65499   0.00000  Uiso   1.00
C695   C     0.44700   0.36820   0.53312   0.00000  Uiso   1.00
C696   C     0.62583   0.30573   0.87918   0.00000  Uiso   1.00
C697   C     0.67664   0.29726   0.86136   0.00000  Uiso   1.00
C698   C     0.69338   0.24783   0.86788   0.00000  Uiso   1.00
C699   C     0.73919   0.17457   0.86928   0.00000  Uiso   1.00
C700   C     0.57446   0.36330   0.97864   0.00000  Uiso   1.00
C701   C     0.58208   0.40323   0.04446   0.00000  Uiso   1.00
C702   C     0.55558   0.40227   0.13473   0.00000  Uiso   1.00
C703   C     0.52163   0.41840   0.29055   0.00000  Uiso   1.00
C704   C     0.53895   0.28405   0.91929   0.00000  Uiso   1.00
C705   C     0.52392   0.31195   0.82335   0.00000  Uiso   1.00
C706   C     0.48258   0.30096   0.76318   0.00000  Uiso   1.00
C707   C     0.47532   0.33090   0.67855   0.00000  Uiso   1.00
C708   C     0.59291   0.26623   0.90270   0.00000  Uiso   1.00
C709   C     0.60958   0.21680   0.90926   0.00000  Uiso   1.00
C710   C     0.66040   0.20825   0.89145   0.00000  Uiso   1.00
C711   C     0.54154   0.32380   0.00216   0.00000  Uiso   1.00
C712   C     0.51502   0.32277   0.09235   0.00000  Uiso   1.00
C713   C     0.52260   0.36269   0.15829   0.00000  Uiso   1.00
H714   H     0.62519   0.38753   0.85769   0.00000  Uiso   1.00
H715   H     0.57513   0.41199   0.69709   0.00000  Uiso   1.00
H716   H     0.70211   0.32784   0.84317   0.00000  Uiso   1.00
H717   H     0.60756   0.43380   0.02623   0.00000  Uiso   1.00
H718   H     0.50512   0.42167   0.52940   0.00000  Uiso   1.00
H719   H     0.77286   0.24424   0.83744   0.00000  Uiso   1.00
H720   H     0.57350   0.46767   0.22347   0.00000  Uiso   1.00
H721   H     0.51332   0.25329   0.93760   0.00000  Uiso   1.00
H722   H     0.45712   0.27039   0.78140   0.00000  Uiso   1.00
H723   H     0.58410   0.18624   0.92747   0.00000  Uiso   1.00
H724   H     0.48955   0.29220   0.11053   0.00000  Uiso   1.00
H725   H     0.40934   0.30674   0.59782   0.00000  Uiso   1.00
H726   H     0.67708   0.12931   0.90586   0.00000  Uiso   1.00
H727   H     0.47772   0.35274   0.29188   0.00000  Uiso   1.00
O728   O     0.42229   0.37786   0.45939   0.00000  Uiso   1.00
O729   O     0.77356   0.14508   0.86354   0.00000  Uiso   1.00
O730   O     0.51200   0.43822   0.36999   0.00000  Uiso   1.00
N731   N     0.49029   0.39228   0.56695   0.00000  Uiso   1.00
N732   N     0.74061   0.22639   0.85493   0.00000  Uiso   1.00
N733   N     0.55423   0.43528   0.21585   0.00000  Uiso   1.00
N734   N     0.43875   0.33044   0.60377   0.00000  Uiso   1.00
N735   N     0.68907   0.16455   0.89175   0.00000  Uiso   1.00
N736   N     0.50269   0.37344   0.25266   0.00000  Uiso   1.00
