data_job_03786
_audit_creation_date              2018-12-19
_audit_creation_method            'Materials Studio'
_symmetry_space_group_name_H-M    'P1'
_symmetry_Int_Tables_number       1
_symmetry_cell_setting            triclinic
loop_
_symmetry_equiv_pos_as_xyz
  x,y,z
_cell_length_a                    26.9929
_cell_length_b                    20.8373
_cell_length_c                    24.7385
_cell_angle_alpha                 90.0000
_cell_angle_beta                  90.0000
_cell_angle_gamma                 90.0000
loop_
_atom_site_label
_atom_site_type_symbol
_atom_site_fract_x
_atom_site_fract_y
_atom_site_fract_z
_atom_site_U_iso_or_equiv
_atom_site_adp_type
_atom_site_occupancy
C1     C     0.16888   0.58603   0.40202   0.00000  Uiso   1.00
C2     C     0.18097   0.51715   0.38590   0.00000  Uiso   1.00
C3     C     0.16118   0.46229   0.40925   0.00000  Uiso   1.00
C4     C     0.17698   0.40373   0.38877   0.00000  Uiso   1.00
C5     C     0.19054   0.29732   0.37019   0.00000  Uiso   1.00
C6     C     0.21827   0.61742   0.41607   0.00000  Uiso   1.00
C7     C     0.22983   0.64687   0.46478   0.00000  Uiso   1.00
C8     C     0.27703   0.67272   0.46968   0.00000  Uiso   1.00
C9     C     0.34848   0.72201   0.49792   0.00000  Uiso   1.00
C10    C     0.15076   0.61911   0.35072   0.00000  Uiso   1.00
C11    C     0.10557   0.64999   0.34449   0.00000  Uiso   1.00
C12    C     0.09593   0.67728   0.29438   0.00000  Uiso   1.00
C13    C     0.06257   0.72919   0.22115   0.00000  Uiso   1.00
C14    C     0.23213   0.57959   0.32412   0.00000  Uiso   1.00
C15    C     0.21533   0.51366   0.34358   0.00000  Uiso   1.00
C16    C     0.23116   0.45517   0.32306   0.00000  Uiso   1.00
C17    C     0.21140   0.40023   0.34637   0.00000  Uiso   1.00
C18    C     0.25262   0.61392   0.37375   0.00000  Uiso   1.00
C19    C     0.29981   0.63974   0.37858   0.00000  Uiso   1.00
C20    C     0.31144   0.66922   0.42729   0.00000  Uiso   1.00
C21    C     0.18511   0.61561   0.30840   0.00000  Uiso   1.00
C22    C     0.17555   0.64286   0.25829   0.00000  Uiso   1.00
C23    C     0.13035   0.67378   0.25198   0.00000  Uiso   1.00
H24    H     0.14214   0.58876   0.43497   0.00000  Uiso   1.00
H25    H     0.13460   0.46502   0.44201   0.00000  Uiso   1.00
H26    H     0.20324   0.64957   0.49752   0.00000  Uiso   1.00
H27    H     0.07899   0.65269   0.37725   0.00000  Uiso   1.00
H28    H     0.14140   0.32629   0.43115   0.00000  Uiso   1.00
H29    H     0.28612   0.71545   0.54820   0.00000  Uiso   1.00
H30    H     0.02413   0.72203   0.29458   0.00000  Uiso   1.00
H31    H     0.25888   0.57687   0.29117   0.00000  Uiso   1.00
H32    H     0.25775   0.45247   0.29031   0.00000  Uiso   1.00
H33    H     0.32639   0.63703   0.34582   0.00000  Uiso   1.00
H34    H     0.20214   0.64014   0.22555   0.00000  Uiso   1.00
H35    H     0.24136   0.31611   0.30803   0.00000  Uiso   1.00
H36    H     0.38608   0.70527   0.42508   0.00000  Uiso   1.00
H37    H     0.12408   0.71184   0.17146   0.00000  Uiso   1.00
O38    O     0.18854   0.23958   0.37163   0.00000  Uiso   1.00
O39    O     0.37840   0.75015   0.52519   0.00000  Uiso   1.00
O40    O     0.03467   0.75878   0.19245   0.00000  Uiso   1.00
N41    N     0.16507   0.34097   0.40229   0.00000  Uiso   1.00
N42    N     0.30038   0.70480   0.51172   0.00000  Uiso   1.00
N43    N     0.05544   0.71096   0.27462   0.00000  Uiso   1.00
N44    N     0.21886   0.33549   0.33604   0.00000  Uiso   1.00
N45    N     0.35417   0.69932   0.44547   0.00000  Uiso   1.00
N46    N     0.10923   0.70548   0.20837   0.00000  Uiso   1.00
C47    C     0.66888   0.08603   0.40202   0.00000  Uiso   1.00
C48    C     0.68097   0.01715   0.38590   0.00000  Uiso   1.00
C49    C     0.66118   0.96229   0.40925   0.00000  Uiso   1.00
C50    C     0.67698   0.90373   0.38877   0.00000  Uiso   1.00
C51    C     0.69054   0.79732   0.37019   0.00000  Uiso   1.00
C52    C     0.71827   0.11742   0.41607   0.00000  Uiso   1.00
C53    C     0.72983   0.14687   0.46478   0.00000  Uiso   1.00
C54    C     0.77703   0.17272   0.46968   0.00000  Uiso   1.00
C55    C     0.84848   0.22201   0.49792   0.00000  Uiso   1.00
C56    C     0.65076   0.11911   0.35072   0.00000  Uiso   1.00
C57    C     0.60557   0.14999   0.34449   0.00000  Uiso   1.00
C58    C     0.59593   0.17728   0.29438   0.00000  Uiso   1.00
C59    C     0.56257   0.22919   0.22115   0.00000  Uiso   1.00
C60    C     0.73213   0.07959   0.32412   0.00000  Uiso   1.00
C61    C     0.71533   0.01366   0.34358   0.00000  Uiso   1.00
C62    C     0.73116   0.95517   0.32306   0.00000  Uiso   1.00
C63    C     0.71140   0.90023   0.34637   0.00000  Uiso   1.00
C64    C     0.75262   0.11392   0.37375   0.00000  Uiso   1.00
C65    C     0.79981   0.13974   0.37858   0.00000  Uiso   1.00
C66    C     0.81144   0.16922   0.42729   0.00000  Uiso   1.00
C67    C     0.68511   0.11561   0.30840   0.00000  Uiso   1.00
C68    C     0.67555   0.14286   0.25829   0.00000  Uiso   1.00
C69    C     0.63035   0.17378   0.25198   0.00000  Uiso   1.00
H70    H     0.64214   0.08876   0.43497   0.00000  Uiso   1.00
H71    H     0.63460   0.96502   0.44201   0.00000  Uiso   1.00
H72    H     0.70324   0.14957   0.49752   0.00000  Uiso   1.00
H73    H     0.57899   0.15269   0.37725   0.00000  Uiso   1.00
H74    H     0.64140   0.82629   0.43115   0.00000  Uiso   1.00
H75    H     0.78612   0.21545   0.54820   0.00000  Uiso   1.00
H76    H     0.52413   0.22203   0.29458   0.00000  Uiso   1.00
H77    H     0.75888   0.07687   0.29117   0.00000  Uiso   1.00
H78    H     0.75775   0.95247   0.29031   0.00000  Uiso   1.00
H79    H     0.82639   0.13703   0.34582   0.00000  Uiso   1.00
H80    H     0.70214   0.14014   0.22555   0.00000  Uiso   1.00
H81    H     0.74136   0.81611   0.30803   0.00000  Uiso   1.00
H82    H     0.88608   0.20527   0.42508   0.00000  Uiso   1.00
H83    H     0.62408   0.21184   0.17146   0.00000  Uiso   1.00
O84    O     0.68854   0.73958   0.37163   0.00000  Uiso   1.00
O85    O     0.87840   0.25015   0.52519   0.00000  Uiso   1.00
O86    O     0.53467   0.25878   0.19245   0.00000  Uiso   1.00
N87    N     0.66507   0.84097   0.40229   0.00000  Uiso   1.00
N88    N     0.80038   0.20480   0.51172   0.00000  Uiso   1.00
N89    N     0.55544   0.21096   0.27462   0.00000  Uiso   1.00
N90    N     0.71886   0.83549   0.33604   0.00000  Uiso   1.00
N91    N     0.85417   0.19932   0.44547   0.00000  Uiso   1.00
N92    N     0.60923   0.20548   0.20837   0.00000  Uiso   1.00
C93    C     0.33112   0.91397   0.40202   0.00000  Uiso   1.00
C94    C     0.31903   0.98285   0.38590   0.00000  Uiso   1.00
C95    C     0.33882   0.03771   0.40925   0.00000  Uiso   1.00
C96    C     0.32302   0.09627   0.38877   0.00000  Uiso   1.00
C97    C     0.30946   0.20268   0.37019   0.00000  Uiso   1.00
C98    C     0.28173   0.88258   0.41607   0.00000  Uiso   1.00
C99    C     0.27017   0.85313   0.46478   0.00000  Uiso   1.00
C100   C     0.22297   0.82728   0.46968   0.00000  Uiso   1.00
C101   C     0.15152   0.77799   0.49792   0.00000  Uiso   1.00
C102   C     0.34924   0.88089   0.35072   0.00000  Uiso   1.00
C103   C     0.39443   0.85001   0.34449   0.00000  Uiso   1.00
C104   C     0.40407   0.82272   0.29438   0.00000  Uiso   1.00
C105   C     0.43743   0.77081   0.22115   0.00000  Uiso   1.00
C106   C     0.26787   0.92041   0.32412   0.00000  Uiso   1.00
C107   C     0.28467   0.98634   0.34358   0.00000  Uiso   1.00
C108   C     0.26884   0.04483   0.32306   0.00000  Uiso   1.00
C109   C     0.28860   0.09977   0.34637   0.00000  Uiso   1.00
C110   C     0.24738   0.88608   0.37375   0.00000  Uiso   1.00
C111   C     0.20019   0.86026   0.37858   0.00000  Uiso   1.00
C112   C     0.18856   0.83078   0.42729   0.00000  Uiso   1.00
C113   C     0.31489   0.88439   0.30840   0.00000  Uiso   1.00
C114   C     0.32445   0.85714   0.25829   0.00000  Uiso   1.00
C115   C     0.36965   0.82622   0.25198   0.00000  Uiso   1.00
H116   H     0.35786   0.91124   0.43497   0.00000  Uiso   1.00
H117   H     0.36540   0.03498   0.44201   0.00000  Uiso   1.00
H118   H     0.29676   0.85043   0.49752   0.00000  Uiso   1.00
H119   H     0.42101   0.84731   0.37725   0.00000  Uiso   1.00
H120   H     0.35860   0.17371   0.43115   0.00000  Uiso   1.00
H121   H     0.21388   0.78455   0.54820   0.00000  Uiso   1.00
H122   H     0.47587   0.77797   0.29458   0.00000  Uiso   1.00
H123   H     0.24112   0.92313   0.29117   0.00000  Uiso   1.00
H124   H     0.24225   0.04753   0.29031   0.00000  Uiso   1.00
H125   H     0.17361   0.86297   0.34582   0.00000  Uiso   1.00
H126   H     0.29786   0.85986   0.22555   0.00000  Uiso   1.00
H127   H     0.25864   0.18389   0.30803   0.00000  Uiso   1.00
H128   H     0.11392   0.79473   0.42508   0.00000  Uiso   1.00
H129   H     0.37592   0.78816   0.17146   0.00000  Uiso   1.00
O130   O     0.31146   0.26042   0.37163   0.00000  Uiso   1.00
O131   O     0.12160   0.74985   0.52519   0.00000  Uiso   1.00
O132   O     0.46533   0.74122   0.19245   0.00000  Uiso   1.00
N133   N     0.33493   0.15903   0.40229   0.00000  Uiso   1.00
N134   N     0.19962   0.79520   0.51172   0.00000  Uiso   1.00
N135   N     0.44456   0.78904   0.27462   0.00000  Uiso   1.00
N136   N     0.28114   0.16451   0.33604   0.00000  Uiso   1.00
N137   N     0.14583   0.80068   0.44547   0.00000  Uiso   1.00
N138   N     0.39077   0.79452   0.20837   0.00000  Uiso   1.00
C139   C     0.83112   0.41397   0.40202   0.00000  Uiso   1.00
C140   C     0.81903   0.48285   0.38590   0.00000  Uiso   1.00
C141   C     0.83882   0.53771   0.40925   0.00000  Uiso   1.00
C142   C     0.82302   0.59627   0.38877   0.00000  Uiso   1.00
C143   C     0.80946   0.70268   0.37019   0.00000  Uiso   1.00
C144   C     0.78173   0.38258   0.41607   0.00000  Uiso   1.00
C145   C     0.77017   0.35313   0.46478   0.00000  Uiso   1.00
C146   C     0.72297   0.32728   0.46968   0.00000  Uiso   1.00
C147   C     0.65152   0.27799   0.49792   0.00000  Uiso   1.00
C148   C     0.84924   0.38089   0.35072   0.00000  Uiso   1.00
C149   C     0.89443   0.35001   0.34449   0.00000  Uiso   1.00
C150   C     0.90407   0.32272   0.29438   0.00000  Uiso   1.00
C151   C     0.93743   0.27081   0.22115   0.00000  Uiso   1.00
C152   C     0.76787   0.42041   0.32412   0.00000  Uiso   1.00
C153   C     0.78467   0.48634   0.34358   0.00000  Uiso   1.00
C154   C     0.76884   0.54483   0.32306   0.00000  Uiso   1.00
C155   C     0.78860   0.59977   0.34637   0.00000  Uiso   1.00
C156   C     0.74738   0.38608   0.37375   0.00000  Uiso   1.00
C157   C     0.70019   0.36026   0.37858   0.00000  Uiso   1.00
C158   C     0.68856   0.33078   0.42729   0.00000  Uiso   1.00
C159   C     0.81489   0.38439   0.30840   0.00000  Uiso   1.00
C160   C     0.82445   0.35714   0.25829   0.00000  Uiso   1.00
C161   C     0.86965   0.32622   0.25198   0.00000  Uiso   1.00
H162   H     0.85786   0.41124   0.43497   0.00000  Uiso   1.00
H163   H     0.86540   0.53498   0.44201   0.00000  Uiso   1.00
H164   H     0.79676   0.35043   0.49752   0.00000  Uiso   1.00
H165   H     0.92101   0.34731   0.37725   0.00000  Uiso   1.00
H166   H     0.85860   0.67371   0.43115   0.00000  Uiso   1.00
H167   H     0.71388   0.28455   0.54820   0.00000  Uiso   1.00
H168   H     0.97587   0.27797   0.29458   0.00000  Uiso   1.00
H169   H     0.74112   0.42313   0.29117   0.00000  Uiso   1.00
H170   H     0.74225   0.54753   0.29031   0.00000  Uiso   1.00
H171   H     0.67361   0.36297   0.34582   0.00000  Uiso   1.00
H172   H     0.79786   0.35986   0.22555   0.00000  Uiso   1.00
H173   H     0.75864   0.68389   0.30803   0.00000  Uiso   1.00
H174   H     0.61392   0.29473   0.42508   0.00000  Uiso   1.00
H175   H     0.87592   0.28816   0.17146   0.00000  Uiso   1.00
O176   O     0.81146   0.76042   0.37163   0.00000  Uiso   1.00
O177   O     0.62160   0.24985   0.52519   0.00000  Uiso   1.00
O178   O     0.96533   0.24122   0.19245   0.00000  Uiso   1.00
N179   N     0.83493   0.65903   0.40229   0.00000  Uiso   1.00
N180   N     0.69962   0.29520   0.51172   0.00000  Uiso   1.00
N181   N     0.94456   0.28904   0.27462   0.00000  Uiso   1.00
N182   N     0.78114   0.66451   0.33604   0.00000  Uiso   1.00
N183   N     0.64583   0.30068   0.44547   0.00000  Uiso   1.00
N184   N     0.89077   0.29452   0.20837   0.00000  Uiso   1.00
C185   C     0.83112   0.58603   0.59798   0.00000  Uiso   1.00
C186   C     0.81903   0.51715   0.61410   0.00000  Uiso   1.00
C187   C     0.83882   0.46229   0.59075   0.00000  Uiso   1.00
C188   C     0.82302   0.40373   0.61123   0.00000  Uiso   1.00
C189   C     0.80946   0.29732   0.62981   0.00000  Uiso   1.00
C190   C     0.78173   0.61742   0.58393   0.00000  Uiso   1.00
C191   C     0.77017   0.64687   0.53522   0.00000  Uiso   1.00
C192   C     0.72297   0.67272   0.53032   0.00000  Uiso   1.00
C193   C     0.65152   0.72201   0.50208   0.00000  Uiso   1.00
C194   C     0.84924   0.61911   0.64928   0.00000  Uiso   1.00
C195   C     0.89443   0.64999   0.65551   0.00000  Uiso   1.00
C196   C     0.90407   0.67728   0.70562   0.00000  Uiso   1.00
C197   C     0.93743   0.72919   0.77885   0.00000  Uiso   1.00
C198   C     0.76787   0.57959   0.67588   0.00000  Uiso   1.00
C199   C     0.78467   0.51366   0.65642   0.00000  Uiso   1.00
C200   C     0.76884   0.45517   0.67694   0.00000  Uiso   1.00
C201   C     0.78860   0.40023   0.65363   0.00000  Uiso   1.00
C202   C     0.74738   0.61392   0.62625   0.00000  Uiso   1.00
C203   C     0.70019   0.63974   0.62142   0.00000  Uiso   1.00
C204   C     0.68856   0.66922   0.57271   0.00000  Uiso   1.00
C205   C     0.81489   0.61561   0.69160   0.00000  Uiso   1.00
C206   C     0.82445   0.64286   0.74171   0.00000  Uiso   1.00
C207   C     0.86965   0.67378   0.74802   0.00000  Uiso   1.00
H208   H     0.85786   0.58876   0.56503   0.00000  Uiso   1.00
H209   H     0.86540   0.46502   0.55799   0.00000  Uiso   1.00
H210   H     0.79676   0.64957   0.50248   0.00000  Uiso   1.00
H211   H     0.92101   0.65269   0.62275   0.00000  Uiso   1.00
H212   H     0.85860   0.32629   0.56885   0.00000  Uiso   1.00
H213   H     0.71388   0.71545   0.45180   0.00000  Uiso   1.00
H214   H     0.97587   0.72203   0.70542   0.00000  Uiso   1.00
H215   H     0.74112   0.57687   0.70883   0.00000  Uiso   1.00
H216   H     0.74225   0.45247   0.70969   0.00000  Uiso   1.00
H217   H     0.67361   0.63703   0.65418   0.00000  Uiso   1.00
H218   H     0.79786   0.64014   0.77445   0.00000  Uiso   1.00
H219   H     0.75864   0.31611   0.69197   0.00000  Uiso   1.00
H220   H     0.61392   0.70527   0.57492   0.00000  Uiso   1.00
H221   H     0.87592   0.71184   0.82854   0.00000  Uiso   1.00
O222   O     0.81146   0.23958   0.62837   0.00000  Uiso   1.00
O223   O     0.62160   0.75015   0.47481   0.00000  Uiso   1.00
O224   O     0.96533   0.75878   0.80755   0.00000  Uiso   1.00
N225   N     0.83493   0.34097   0.59771   0.00000  Uiso   1.00
N226   N     0.69962   0.70480   0.48828   0.00000  Uiso   1.00
N227   N     0.94456   0.71096   0.72538   0.00000  Uiso   1.00
N228   N     0.78114   0.33549   0.66396   0.00000  Uiso   1.00
N229   N     0.64583   0.69932   0.55453   0.00000  Uiso   1.00
N230   N     0.89077   0.70548   0.79163   0.00000  Uiso   1.00
C231   C     0.33112   0.08603   0.59798   0.00000  Uiso   1.00
C232   C     0.31903   0.01715   0.61410   0.00000  Uiso   1.00
C233   C     0.33882   0.96229   0.59075   0.00000  Uiso   1.00
C234   C     0.32302   0.90373   0.61123   0.00000  Uiso   1.00
C235   C     0.30946   0.79732   0.62981   0.00000  Uiso   1.00
C236   C     0.28173   0.11742   0.58393   0.00000  Uiso   1.00
C237   C     0.27017   0.14687   0.53522   0.00000  Uiso   1.00
C238   C     0.22297   0.17272   0.53032   0.00000  Uiso   1.00
C239   C     0.15152   0.22201   0.50208   0.00000  Uiso   1.00
C240   C     0.34924   0.11911   0.64928   0.00000  Uiso   1.00
C241   C     0.39443   0.14999   0.65551   0.00000  Uiso   1.00
C242   C     0.40407   0.17728   0.70562   0.00000  Uiso   1.00
C243   C     0.43743   0.22919   0.77885   0.00000  Uiso   1.00
C244   C     0.26787   0.07959   0.67588   0.00000  Uiso   1.00
C245   C     0.28467   0.01366   0.65642   0.00000  Uiso   1.00
C246   C     0.26884   0.95517   0.67694   0.00000  Uiso   1.00
C247   C     0.28860   0.90023   0.65363   0.00000  Uiso   1.00
C248   C     0.24738   0.11392   0.62625   0.00000  Uiso   1.00
C249   C     0.20019   0.13974   0.62142   0.00000  Uiso   1.00
C250   C     0.18856   0.16922   0.57271   0.00000  Uiso   1.00
C251   C     0.31489   0.11561   0.69160   0.00000  Uiso   1.00
C252   C     0.32445   0.14286   0.74171   0.00000  Uiso   1.00
C253   C     0.36965   0.17378   0.74802   0.00000  Uiso   1.00
H254   H     0.35786   0.08876   0.56503   0.00000  Uiso   1.00
H255   H     0.36540   0.96502   0.55799   0.00000  Uiso   1.00
H256   H     0.29676   0.14957   0.50248   0.00000  Uiso   1.00
H257   H     0.42101   0.15269   0.62275   0.00000  Uiso   1.00
H258   H     0.35860   0.82629   0.56885   0.00000  Uiso   1.00
H259   H     0.21388   0.21545   0.45180   0.00000  Uiso   1.00
H260   H     0.47587   0.22203   0.70542   0.00000  Uiso   1.00
H261   H     0.24112   0.07687   0.70883   0.00000  Uiso   1.00
H262   H     0.24225   0.95247   0.70969   0.00000  Uiso   1.00
H263   H     0.17361   0.13703   0.65418   0.00000  Uiso   1.00
H264   H     0.29786   0.14014   0.77445   0.00000  Uiso   1.00
H265   H     0.25864   0.81611   0.69197   0.00000  Uiso   1.00
H266   H     0.11392   0.20527   0.57492   0.00000  Uiso   1.00
H267   H     0.37592   0.21184   0.82854   0.00000  Uiso   1.00
O268   O     0.31146   0.73958   0.62837   0.00000  Uiso   1.00
O269   O     0.12160   0.25015   0.47481   0.00000  Uiso   1.00
O270   O     0.46533   0.25878   0.80755   0.00000  Uiso   1.00
N271   N     0.33493   0.84097   0.59771   0.00000  Uiso   1.00
N272   N     0.19962   0.20480   0.48828   0.00000  Uiso   1.00
N273   N     0.44456   0.21096   0.72538   0.00000  Uiso   1.00
N274   N     0.28114   0.83549   0.66396   0.00000  Uiso   1.00
N275   N     0.14583   0.19932   0.55453   0.00000  Uiso   1.00
N276   N     0.39077   0.20548   0.79163   0.00000  Uiso   1.00
C277   C     0.66888   0.91397   0.59798   0.00000  Uiso   1.00
C278   C     0.68097   0.98285   0.61410   0.00000  Uiso   1.00
C279   C     0.66118   0.03771   0.59075   0.00000  Uiso   1.00
C280   C     0.67698   0.09627   0.61123   0.00000  Uiso   1.00
C281   C     0.69054   0.20268   0.62981   0.00000  Uiso   1.00
C282   C     0.71827   0.88258   0.58393   0.00000  Uiso   1.00
C283   C     0.72983   0.85313   0.53522   0.00000  Uiso   1.00
C284   C     0.77703   0.82728   0.53032   0.00000  Uiso   1.00
C285   C     0.84848   0.77799   0.50208   0.00000  Uiso   1.00
C286   C     0.65076   0.88089   0.64928   0.00000  Uiso   1.00
C287   C     0.60557   0.85001   0.65551   0.00000  Uiso   1.00
C288   C     0.59593   0.82272   0.70562   0.00000  Uiso   1.00
C289   C     0.56257   0.77081   0.77885   0.00000  Uiso   1.00
C290   C     0.73213   0.92041   0.67588   0.00000  Uiso   1.00
C291   C     0.71533   0.98634   0.65642   0.00000  Uiso   1.00
C292   C     0.73116   0.04483   0.67694   0.00000  Uiso   1.00
C293   C     0.71140   0.09977   0.65363   0.00000  Uiso   1.00
C294   C     0.75262   0.88608   0.62625   0.00000  Uiso   1.00
C295   C     0.79981   0.86026   0.62142   0.00000  Uiso   1.00
C296   C     0.81144   0.83078   0.57271   0.00000  Uiso   1.00
C297   C     0.68511   0.88439   0.69160   0.00000  Uiso   1.00
C298   C     0.67555   0.85714   0.74171   0.00000  Uiso   1.00
C299   C     0.63035   0.82622   0.74802   0.00000  Uiso   1.00
H300   H     0.64214   0.91124   0.56503   0.00000  Uiso   1.00
H301   H     0.63460   0.03498   0.55799   0.00000  Uiso   1.00
H302   H     0.70324   0.85043   0.50248   0.00000  Uiso   1.00
H303   H     0.57899   0.84731   0.62275   0.00000  Uiso   1.00
H304   H     0.64140   0.17371   0.56885   0.00000  Uiso   1.00
H305   H     0.78612   0.78455   0.45180   0.00000  Uiso   1.00
H306   H     0.52413   0.77797   0.70542   0.00000  Uiso   1.00
H307   H     0.75888   0.92313   0.70883   0.00000  Uiso   1.00
H308   H     0.75775   0.04753   0.70969   0.00000  Uiso   1.00
H309   H     0.82639   0.86297   0.65418   0.00000  Uiso   1.00
H310   H     0.70214   0.85986   0.77445   0.00000  Uiso   1.00
H311   H     0.74136   0.18389   0.69197   0.00000  Uiso   1.00
H312   H     0.88608   0.79473   0.57492   0.00000  Uiso   1.00
H313   H     0.62408   0.78816   0.82854   0.00000  Uiso   1.00
O314   O     0.68854   0.26042   0.62837   0.00000  Uiso   1.00
O315   O     0.87840   0.74985   0.47481   0.00000  Uiso   1.00
O316   O     0.53467   0.74122   0.80755   0.00000  Uiso   1.00
N317   N     0.66507   0.15903   0.59771   0.00000  Uiso   1.00
N318   N     0.80038   0.79520   0.48828   0.00000  Uiso   1.00
N319   N     0.55544   0.78904   0.72538   0.00000  Uiso   1.00
N320   N     0.71886   0.16451   0.66396   0.00000  Uiso   1.00
N321   N     0.85417   0.80068   0.55453   0.00000  Uiso   1.00
N322   N     0.60923   0.79452   0.79163   0.00000  Uiso   1.00
C323   C     0.16888   0.41397   0.59798   0.00000  Uiso   1.00
C324   C     0.18097   0.48285   0.61410   0.00000  Uiso   1.00
C325   C     0.16118   0.53771   0.59075   0.00000  Uiso   1.00
C326   C     0.17698   0.59627   0.61123   0.00000  Uiso   1.00
C327   C     0.19054   0.70268   0.62981   0.00000  Uiso   1.00
C328   C     0.21827   0.38258   0.58393   0.00000  Uiso   1.00
C329   C     0.22983   0.35313   0.53522   0.00000  Uiso   1.00
C330   C     0.27703   0.32728   0.53032   0.00000  Uiso   1.00
C331   C     0.34848   0.27799   0.50208   0.00000  Uiso   1.00
C332   C     0.15076   0.38089   0.64928   0.00000  Uiso   1.00
C333   C     0.10557   0.35001   0.65551   0.00000  Uiso   1.00
C334   C     0.09593   0.32272   0.70562   0.00000  Uiso   1.00
C335   C     0.06257   0.27081   0.77885   0.00000  Uiso   1.00
C336   C     0.23213   0.42041   0.67588   0.00000  Uiso   1.00
C337   C     0.21533   0.48634   0.65642   0.00000  Uiso   1.00
C338   C     0.23116   0.54483   0.67694   0.00000  Uiso   1.00
C339   C     0.21140   0.59977   0.65363   0.00000  Uiso   1.00
C340   C     0.25262   0.38608   0.62625   0.00000  Uiso   1.00
C341   C     0.29981   0.36026   0.62142   0.00000  Uiso   1.00
C342   C     0.31144   0.33078   0.57271   0.00000  Uiso   1.00
C343   C     0.18511   0.38439   0.69160   0.00000  Uiso   1.00
C344   C     0.17555   0.35714   0.74171   0.00000  Uiso   1.00
C345   C     0.13035   0.32622   0.74802   0.00000  Uiso   1.00
H346   H     0.14214   0.41124   0.56503   0.00000  Uiso   1.00
H347   H     0.13460   0.53498   0.55799   0.00000  Uiso   1.00
H348   H     0.20324   0.35043   0.50248   0.00000  Uiso   1.00
H349   H     0.07899   0.34731   0.62275   0.00000  Uiso   1.00
H350   H     0.14140   0.67371   0.56885   0.00000  Uiso   1.00
H351   H     0.28612   0.28455   0.45180   0.00000  Uiso   1.00
H352   H     0.02413   0.27797   0.70542   0.00000  Uiso   1.00
H353   H     0.25888   0.42313   0.70883   0.00000  Uiso   1.00
H354   H     0.25775   0.54753   0.70969   0.00000  Uiso   1.00
H355   H     0.32639   0.36297   0.65418   0.00000  Uiso   1.00
H356   H     0.20214   0.35986   0.77445   0.00000  Uiso   1.00
H357   H     0.24136   0.68389   0.69197   0.00000  Uiso   1.00
H358   H     0.38608   0.29473   0.57492   0.00000  Uiso   1.00
H359   H     0.12408   0.28816   0.82854   0.00000  Uiso   1.00
O360   O     0.18854   0.76042   0.62837   0.00000  Uiso   1.00
O361   O     0.37840   0.24985   0.47481   0.00000  Uiso   1.00
O362   O     0.03467   0.24122   0.80755   0.00000  Uiso   1.00
N363   N     0.16507   0.65903   0.59771   0.00000  Uiso   1.00
N364   N     0.30038   0.29520   0.48828   0.00000  Uiso   1.00
N365   N     0.05544   0.28904   0.72538   0.00000  Uiso   1.00
N366   N     0.21886   0.66451   0.66396   0.00000  Uiso   1.00
N367   N     0.35417   0.30068   0.55453   0.00000  Uiso   1.00
N368   N     0.10923   0.29452   0.79163   0.00000  Uiso   1.00
C369   C     0.83112   0.91397   0.09798   0.00000  Uiso   1.00
C370   C     0.81903   0.98285   0.11410   0.00000  Uiso   1.00
C371   C     0.83882   0.03771   0.09075   0.00000  Uiso   1.00
C372   C     0.82302   0.09627   0.11123   0.00000  Uiso   1.00
C373   C     0.80946   0.20268   0.12981   0.00000  Uiso   1.00
C374   C     0.78173   0.88258   0.08393   0.00000  Uiso   1.00
C375   C     0.77017   0.85313   0.03522   0.00000  Uiso   1.00
C376   C     0.72297   0.82728   0.03032   0.00000  Uiso   1.00
C377   C     0.65152   0.77799   0.00208   0.00000  Uiso   1.00
C378   C     0.84924   0.88089   0.14928   0.00000  Uiso   1.00
C379   C     0.89443   0.85001   0.15551   0.00000  Uiso   1.00
C380   C     0.90407   0.82272   0.20562   0.00000  Uiso   1.00
C381   C     0.93743   0.77081   0.27885   0.00000  Uiso   1.00
C382   C     0.76787   0.92041   0.17588   0.00000  Uiso   1.00
C383   C     0.78467   0.98634   0.15642   0.00000  Uiso   1.00
C384   C     0.76884   0.04483   0.17694   0.00000  Uiso   1.00
C385   C     0.78860   0.09977   0.15363   0.00000  Uiso   1.00
C386   C     0.74738   0.88608   0.12625   0.00000  Uiso   1.00
C387   C     0.70019   0.86026   0.12142   0.00000  Uiso   1.00
C388   C     0.68856   0.83078   0.07271   0.00000  Uiso   1.00
C389   C     0.81489   0.88439   0.19160   0.00000  Uiso   1.00
C390   C     0.82445   0.85714   0.24171   0.00000  Uiso   1.00
C391   C     0.86965   0.82622   0.24802   0.00000  Uiso   1.00
H392   H     0.85786   0.91124   0.06503   0.00000  Uiso   1.00
H393   H     0.86540   0.03498   0.05799   0.00000  Uiso   1.00
H394   H     0.79676   0.85043   0.00248   0.00000  Uiso   1.00
H395   H     0.92101   0.84731   0.12275   0.00000  Uiso   1.00
H396   H     0.85860   0.17371   0.06885   0.00000  Uiso   1.00
H397   H     0.71388   0.78455   0.95180   0.00000  Uiso   1.00
H398   H     0.97587   0.77797   0.20542   0.00000  Uiso   1.00
H399   H     0.74112   0.92313   0.20883   0.00000  Uiso   1.00
H400   H     0.74225   0.04753   0.20969   0.00000  Uiso   1.00
H401   H     0.67361   0.86297   0.15418   0.00000  Uiso   1.00
H402   H     0.79786   0.85986   0.27445   0.00000  Uiso   1.00
H403   H     0.75864   0.18389   0.19197   0.00000  Uiso   1.00
H404   H     0.61392   0.79473   0.07492   0.00000  Uiso   1.00
H405   H     0.87592   0.78816   0.32854   0.00000  Uiso   1.00
O406   O     0.81146   0.26042   0.12837   0.00000  Uiso   1.00
O407   O     0.62160   0.74985   0.97481   0.00000  Uiso   1.00
O408   O     0.96533   0.74122   0.30755   0.00000  Uiso   1.00
N409   N     0.83493   0.15903   0.09771   0.00000  Uiso   1.00
N410   N     0.69962   0.79520   0.98828   0.00000  Uiso   1.00
N411   N     0.94456   0.78904   0.22538   0.00000  Uiso   1.00
N412   N     0.78114   0.16451   0.16396   0.00000  Uiso   1.00
N413   N     0.64583   0.80068   0.05453   0.00000  Uiso   1.00
N414   N     0.89077   0.79452   0.29163   0.00000  Uiso   1.00
C415   C     0.33112   0.41397   0.09798   0.00000  Uiso   1.00
C416   C     0.31903   0.48285   0.11410   0.00000  Uiso   1.00
C417   C     0.33882   0.53771   0.09075   0.00000  Uiso   1.00
C418   C     0.32302   0.59627   0.11123   0.00000  Uiso   1.00
C419   C     0.30946   0.70268   0.12981   0.00000  Uiso   1.00
C420   C     0.28173   0.38258   0.08393   0.00000  Uiso   1.00
C421   C     0.27017   0.35313   0.03522   0.00000  Uiso   1.00
C422   C     0.22297   0.32728   0.03032   0.00000  Uiso   1.00
C423   C     0.15152   0.27799   0.00208   0.00000  Uiso   1.00
C424   C     0.34924   0.38089   0.14928   0.00000  Uiso   1.00
C425   C     0.39443   0.35001   0.15551   0.00000  Uiso   1.00
C426   C     0.40407   0.32272   0.20562   0.00000  Uiso   1.00
C427   C     0.43743   0.27081   0.27885   0.00000  Uiso   1.00
C428   C     0.26787   0.42041   0.17588   0.00000  Uiso   1.00
C429   C     0.28467   0.48634   0.15642   0.00000  Uiso   1.00
C430   C     0.26884   0.54483   0.17694   0.00000  Uiso   1.00
C431   C     0.28860   0.59977   0.15363   0.00000  Uiso   1.00
C432   C     0.24738   0.38608   0.12625   0.00000  Uiso   1.00
C433   C     0.20019   0.36026   0.12142   0.00000  Uiso   1.00
C434   C     0.18856   0.33078   0.07271   0.00000  Uiso   1.00
C435   C     0.31489   0.38439   0.19160   0.00000  Uiso   1.00
C436   C     0.32445   0.35714   0.24171   0.00000  Uiso   1.00
C437   C     0.36965   0.32622   0.24802   0.00000  Uiso   1.00
H438   H     0.35786   0.41124   0.06503   0.00000  Uiso   1.00
H439   H     0.36540   0.53498   0.05799   0.00000  Uiso   1.00
H440   H     0.29676   0.35043   0.00248   0.00000  Uiso   1.00
H441   H     0.42101   0.34731   0.12275   0.00000  Uiso   1.00
H442   H     0.35860   0.67371   0.06885   0.00000  Uiso   1.00
H443   H     0.21388   0.28455   0.95180   0.00000  Uiso   1.00
H444   H     0.47587   0.27797   0.20542   0.00000  Uiso   1.00
H445   H     0.24112   0.42313   0.20883   0.00000  Uiso   1.00
H446   H     0.24225   0.54753   0.20969   0.00000  Uiso   1.00
H447   H     0.17361   0.36297   0.15418   0.00000  Uiso   1.00
H448   H     0.29786   0.35986   0.27445   0.00000  Uiso   1.00
H449   H     0.25864   0.68389   0.19197   0.00000  Uiso   1.00
H450   H     0.11392   0.29473   0.07492   0.00000  Uiso   1.00
H451   H     0.37592   0.28816   0.32854   0.00000  Uiso   1.00
O452   O     0.31146   0.76042   0.12837   0.00000  Uiso   1.00
O453   O     0.12160   0.24985   0.97481   0.00000  Uiso   1.00
O454   O     0.46533   0.24122   0.30755   0.00000  Uiso   1.00
N455   N     0.33493   0.65903   0.09771   0.00000  Uiso   1.00
N456   N     0.19962   0.29520   0.98828   0.00000  Uiso   1.00
N457   N     0.44456   0.28904   0.22538   0.00000  Uiso   1.00
N458   N     0.28114   0.66451   0.16396   0.00000  Uiso   1.00
N459   N     0.14583   0.30068   0.05453   0.00000  Uiso   1.00
N460   N     0.39077   0.29452   0.29163   0.00000  Uiso   1.00
C461   C     0.66888   0.58603   0.09798   0.00000  Uiso   1.00
C462   C     0.68097   0.51715   0.11410   0.00000  Uiso   1.00
C463   C     0.66118   0.46229   0.09075   0.00000  Uiso   1.00
C464   C     0.67698   0.40373   0.11123   0.00000  Uiso   1.00
C465   C     0.69054   0.29732   0.12981   0.00000  Uiso   1.00
C466   C     0.71827   0.61742   0.08393   0.00000  Uiso   1.00
C467   C     0.72983   0.64687   0.03522   0.00000  Uiso   1.00
C468   C     0.77703   0.67272   0.03032   0.00000  Uiso   1.00
C469   C     0.84848   0.72201   0.00208   0.00000  Uiso   1.00
C470   C     0.65076   0.61911   0.14928   0.00000  Uiso   1.00
C471   C     0.60557   0.64999   0.15551   0.00000  Uiso   1.00
C472   C     0.59593   0.67728   0.20562   0.00000  Uiso   1.00
C473   C     0.56257   0.72919   0.27885   0.00000  Uiso   1.00
C474   C     0.73213   0.57959   0.17588   0.00000  Uiso   1.00
C475   C     0.71533   0.51366   0.15642   0.00000  Uiso   1.00
C476   C     0.73116   0.45517   0.17694   0.00000  Uiso   1.00
C477   C     0.71140   0.40023   0.15363   0.00000  Uiso   1.00
C478   C     0.75262   0.61392   0.12625   0.00000  Uiso   1.00
C479   C     0.79981   0.63974   0.12142   0.00000  Uiso   1.00
C480   C     0.81144   0.66922   0.07271   0.00000  Uiso   1.00
C481   C     0.68511   0.61561   0.19160   0.00000  Uiso   1.00
C482   C     0.67555   0.64286   0.24171   0.00000  Uiso   1.00
C483   C     0.63035   0.67378   0.24802   0.00000  Uiso   1.00
H484   H     0.64214   0.58876   0.06503   0.00000  Uiso   1.00
H485   H     0.63460   0.46502   0.05799   0.00000  Uiso   1.00
H486   H     0.70324   0.64957   0.00248   0.00000  Uiso   1.00
H487   H     0.57899   0.65269   0.12275   0.00000  Uiso   1.00
H488   H     0.64140   0.32629   0.06885   0.00000  Uiso   1.00
H489   H     0.78612   0.71545   0.95180   0.00000  Uiso   1.00
H490   H     0.52413   0.72203   0.20542   0.00000  Uiso   1.00
H491   H     0.75888   0.57687   0.20883   0.00000  Uiso   1.00
H492   H     0.75775   0.45247   0.20969   0.00000  Uiso   1.00
H493   H     0.82639   0.63703   0.15418   0.00000  Uiso   1.00
H494   H     0.70214   0.64014   0.27445   0.00000  Uiso   1.00
H495   H     0.74136   0.31611   0.19197   0.00000  Uiso   1.00
H496   H     0.88608   0.70527   0.07492   0.00000  Uiso   1.00
H497   H     0.62408   0.71184   0.32854   0.00000  Uiso   1.00
O498   O     0.68854   0.23958   0.12837   0.00000  Uiso   1.00
O499   O     0.87840   0.75015   0.97481   0.00000  Uiso   1.00
O500   O     0.53467   0.75878   0.30755   0.00000  Uiso   1.00
N501   N     0.66507   0.34097   0.09771   0.00000  Uiso   1.00
N502   N     0.80038   0.70480   0.98828   0.00000  Uiso   1.00
N503   N     0.55544   0.71096   0.22538   0.00000  Uiso   1.00
N504   N     0.71886   0.33549   0.16396   0.00000  Uiso   1.00
N505   N     0.85417   0.69932   0.05453   0.00000  Uiso   1.00
N506   N     0.60923   0.70548   0.29163   0.00000  Uiso   1.00
C507   C     0.16888   0.08603   0.09798   0.00000  Uiso   1.00
C508   C     0.18097   0.01715   0.11410   0.00000  Uiso   1.00
C509   C     0.16118   0.96229   0.09075   0.00000  Uiso   1.00
C510   C     0.17698   0.90373   0.11123   0.00000  Uiso   1.00
C511   C     0.19054   0.79732   0.12981   0.00000  Uiso   1.00
C512   C     0.21827   0.11742   0.08393   0.00000  Uiso   1.00
C513   C     0.22983   0.14687   0.03522   0.00000  Uiso   1.00
C514   C     0.27703   0.17272   0.03032   0.00000  Uiso   1.00
C515   C     0.34848   0.22201   0.00208   0.00000  Uiso   1.00
C516   C     0.15076   0.11911   0.14928   0.00000  Uiso   1.00
C517   C     0.10557   0.14999   0.15551   0.00000  Uiso   1.00
C518   C     0.09593   0.17728   0.20562   0.00000  Uiso   1.00
C519   C     0.06257   0.22919   0.27885   0.00000  Uiso   1.00
C520   C     0.23213   0.07959   0.17588   0.00000  Uiso   1.00
C521   C     0.21533   0.01366   0.15642   0.00000  Uiso   1.00
C522   C     0.23116   0.95517   0.17694   0.00000  Uiso   1.00
C523   C     0.21140   0.90023   0.15363   0.00000  Uiso   1.00
C524   C     0.25262   0.11392   0.12625   0.00000  Uiso   1.00
C525   C     0.29981   0.13974   0.12142   0.00000  Uiso   1.00
C526   C     0.31144   0.16922   0.07271   0.00000  Uiso   1.00
C527   C     0.18511   0.11561   0.19160   0.00000  Uiso   1.00
C528   C     0.17555   0.14286   0.24171   0.00000  Uiso   1.00
C529   C     0.13035   0.17378   0.24802   0.00000  Uiso   1.00
H530   H     0.14214   0.08876   0.06503   0.00000  Uiso   1.00
H531   H     0.13460   0.96502   0.05799   0.00000  Uiso   1.00
H532   H     0.20324   0.14957   0.00248   0.00000  Uiso   1.00
H533   H     0.07899   0.15269   0.12275   0.00000  Uiso   1.00
H534   H     0.14140   0.82629   0.06885   0.00000  Uiso   1.00
H535   H     0.28612   0.21545   0.95180   0.00000  Uiso   1.00
H536   H     0.02413   0.22203   0.20542   0.00000  Uiso   1.00
H537   H     0.25888   0.07687   0.20883   0.00000  Uiso   1.00
H538   H     0.25775   0.95247   0.20969   0.00000  Uiso   1.00
H539   H     0.32639   0.13703   0.15418   0.00000  Uiso   1.00
H540   H     0.20214   0.14014   0.27445   0.00000  Uiso   1.00
H541   H     0.24136   0.81611   0.19197   0.00000  Uiso   1.00
H542   H     0.38608   0.20527   0.07492   0.00000  Uiso   1.00
H543   H     0.12408   0.21184   0.32854   0.00000  Uiso   1.00
O544   O     0.18854   0.73958   0.12837   0.00000  Uiso   1.00
O545   O     0.37840   0.25015   0.97481   0.00000  Uiso   1.00
O546   O     0.03467   0.25878   0.30755   0.00000  Uiso   1.00
N547   N     0.16507   0.84097   0.09771   0.00000  Uiso   1.00
N548   N     0.30038   0.20480   0.98828   0.00000  Uiso   1.00
N549   N     0.05544   0.21096   0.22538   0.00000  Uiso   1.00
N550   N     0.21886   0.83549   0.16396   0.00000  Uiso   1.00
N551   N     0.35417   0.19932   0.05453   0.00000  Uiso   1.00
N552   N     0.10923   0.20548   0.29163   0.00000  Uiso   1.00
C553   C     0.16888   0.91397   0.90202   0.00000  Uiso   1.00
C554   C     0.18097   0.98285   0.88590   0.00000  Uiso   1.00
C555   C     0.16118   0.03771   0.90925   0.00000  Uiso   1.00
C556   C     0.17698   0.09627   0.88877   0.00000  Uiso   1.00
C557   C     0.19054   0.20268   0.87019   0.00000  Uiso   1.00
C558   C     0.21827   0.88258   0.91607   0.00000  Uiso   1.00
C559   C     0.22983   0.85313   0.96478   0.00000  Uiso   1.00
C560   C     0.27703   0.82728   0.96968   0.00000  Uiso   1.00
C561   C     0.34848   0.77799   0.99792   0.00000  Uiso   1.00
C562   C     0.15076   0.88089   0.85072   0.00000  Uiso   1.00
C563   C     0.10557   0.85001   0.84449   0.00000  Uiso   1.00
C564   C     0.09593   0.82272   0.79438   0.00000  Uiso   1.00
C565   C     0.06257   0.77081   0.72115   0.00000  Uiso   1.00
C566   C     0.23213   0.92041   0.82412   0.00000  Uiso   1.00
C567   C     0.21533   0.98634   0.84358   0.00000  Uiso   1.00
C568   C     0.23116   0.04483   0.82306   0.00000  Uiso   1.00
C569   C     0.21140   0.09977   0.84637   0.00000  Uiso   1.00
C570   C     0.25262   0.88608   0.87375   0.00000  Uiso   1.00
C571   C     0.29981   0.86026   0.87858   0.00000  Uiso   1.00
C572   C     0.31144   0.83078   0.92729   0.00000  Uiso   1.00
C573   C     0.18511   0.88439   0.80840   0.00000  Uiso   1.00
C574   C     0.17555   0.85714   0.75829   0.00000  Uiso   1.00
C575   C     0.13035   0.82622   0.75198   0.00000  Uiso   1.00
H576   H     0.14214   0.91124   0.93497   0.00000  Uiso   1.00
H577   H     0.13460   0.03498   0.94201   0.00000  Uiso   1.00
H578   H     0.20324   0.85043   0.99752   0.00000  Uiso   1.00
H579   H     0.07899   0.84731   0.87725   0.00000  Uiso   1.00
H580   H     0.14140   0.17371   0.93115   0.00000  Uiso   1.00
H581   H     0.28612   0.78455   0.04820   0.00000  Uiso   1.00
H582   H     0.02413   0.77797   0.79458   0.00000  Uiso   1.00
H583   H     0.25888   0.92313   0.79117   0.00000  Uiso   1.00
H584   H     0.25775   0.04753   0.79031   0.00000  Uiso   1.00
H585   H     0.32639   0.86297   0.84582   0.00000  Uiso   1.00
H586   H     0.20214   0.85986   0.72555   0.00000  Uiso   1.00
H587   H     0.24136   0.18389   0.80803   0.00000  Uiso   1.00
H588   H     0.38608   0.79473   0.92508   0.00000  Uiso   1.00
H589   H     0.12408   0.78816   0.67146   0.00000  Uiso   1.00
O590   O     0.18854   0.26042   0.87163   0.00000  Uiso   1.00
O591   O     0.37840   0.74985   0.02519   0.00000  Uiso   1.00
O592   O     0.03467   0.74122   0.69245   0.00000  Uiso   1.00
N593   N     0.16507   0.15903   0.90229   0.00000  Uiso   1.00
N594   N     0.30038   0.79520   0.01172   0.00000  Uiso   1.00
N595   N     0.05544   0.78904   0.77462   0.00000  Uiso   1.00
N596   N     0.21886   0.16451   0.83604   0.00000  Uiso   1.00
N597   N     0.35417   0.80068   0.94547   0.00000  Uiso   1.00
N598   N     0.10923   0.79452   0.70837   0.00000  Uiso   1.00
C599   C     0.66888   0.41397   0.90202   0.00000  Uiso   1.00
C600   C     0.68097   0.48285   0.88590   0.00000  Uiso   1.00
C601   C     0.66118   0.53771   0.90925   0.00000  Uiso   1.00
C602   C     0.67698   0.59627   0.88877   0.00000  Uiso   1.00
C603   C     0.69054   0.70268   0.87019   0.00000  Uiso   1.00
C604   C     0.71827   0.38258   0.91607   0.00000  Uiso   1.00
C605   C     0.72983   0.35313   0.96478   0.00000  Uiso   1.00
C606   C     0.77703   0.32728   0.96968   0.00000  Uiso   1.00
C607   C     0.84848   0.27799   0.99792   0.00000  Uiso   1.00
C608   C     0.65076   0.38089   0.85072   0.00000  Uiso   1.00
C609   C     0.60557   0.35001   0.84449   0.00000  Uiso   1.00
C610   C     0.59593   0.32272   0.79438   0.00000  Uiso   1.00
C611   C     0.56257   0.27081   0.72115   0.00000  Uiso   1.00
C612   C     0.73213   0.42041   0.82412   0.00000  Uiso   1.00
C613   C     0.71533   0.48634   0.84358   0.00000  Uiso   1.00
C614   C     0.73116   0.54483   0.82306   0.00000  Uiso   1.00
C615   C     0.71140   0.59977   0.84637   0.00000  Uiso   1.00
C616   C     0.75262   0.38608   0.87375   0.00000  Uiso   1.00
C617   C     0.79981   0.36026   0.87858   0.00000  Uiso   1.00
C618   C     0.81144   0.33078   0.92729   0.00000  Uiso   1.00
C619   C     0.68511   0.38439   0.80840   0.00000  Uiso   1.00
C620   C     0.67555   0.35714   0.75829   0.00000  Uiso   1.00
C621   C     0.63035   0.32622   0.75198   0.00000  Uiso   1.00
H622   H     0.64214   0.41124   0.93497   0.00000  Uiso   1.00
H623   H     0.63460   0.53498   0.94201   0.00000  Uiso   1.00
H624   H     0.70324   0.35043   0.99752   0.00000  Uiso   1.00
H625   H     0.57899   0.34731   0.87725   0.00000  Uiso   1.00
H626   H     0.64140   0.67371   0.93115   0.00000  Uiso   1.00
H627   H     0.78612   0.28455   0.04820   0.00000  Uiso   1.00
H628   H     0.52413   0.27797   0.79458   0.00000  Uiso   1.00
H629   H     0.75888   0.42313   0.79117   0.00000  Uiso   1.00
H630   H     0.75775   0.54753   0.79031   0.00000  Uiso   1.00
H631   H     0.82639   0.36297   0.84582   0.00000  Uiso   1.00
H632   H     0.70214   0.35986   0.72555   0.00000  Uiso   1.00
H633   H     0.74136   0.68389   0.80803   0.00000  Uiso   1.00
H634   H     0.88608   0.29473   0.92508   0.00000  Uiso   1.00
H635   H     0.62408   0.28816   0.67146   0.00000  Uiso   1.00
O636   O     0.68854   0.76042   0.87163   0.00000  Uiso   1.00
O637   O     0.87840   0.24985   0.02519   0.00000  Uiso   1.00
O638   O     0.53467   0.24122   0.69245   0.00000  Uiso   1.00
N639   N     0.66507   0.65903   0.90229   0.00000  Uiso   1.00
N640   N     0.80038   0.29520   0.01172   0.00000  Uiso   1.00
N641   N     0.55544   0.28904   0.77462   0.00000  Uiso   1.00
N642   N     0.71886   0.66451   0.83604   0.00000  Uiso   1.00
N643   N     0.85417   0.30068   0.94547   0.00000  Uiso   1.00
N644   N     0.60923   0.29452   0.70837   0.00000  Uiso   1.00
C645   C     0.33112   0.58603   0.90202   0.00000  Uiso   1.00
C646   C     0.31903   0.51715   0.88590   0.00000  Uiso   1.00
C647   C     0.33882   0.46229   0.90925   0.00000  Uiso   1.00
C648   C     0.32302   0.40373   0.88877   0.00000  Uiso   1.00
C649   C     0.30946   0.29732   0.87019   0.00000  Uiso   1.00
C650   C     0.28173   0.61742   0.91607   0.00000  Uiso   1.00
C651   C     0.27017   0.64687   0.96478   0.00000  Uiso   1.00
C652   C     0.22297   0.67272   0.96968   0.00000  Uiso   1.00
C653   C     0.15152   0.72201   0.99792   0.00000  Uiso   1.00
C654   C     0.34924   0.61911   0.85072   0.00000  Uiso   1.00
C655   C     0.39443   0.64999   0.84449   0.00000  Uiso   1.00
C656   C     0.40407   0.67728   0.79438   0.00000  Uiso   1.00
C657   C     0.43743   0.72919   0.72115   0.00000  Uiso   1.00
C658   C     0.26787   0.57959   0.82412   0.00000  Uiso   1.00
C659   C     0.28467   0.51366   0.84358   0.00000  Uiso   1.00
C660   C     0.26884   0.45517   0.82306   0.00000  Uiso   1.00
C661   C     0.28860   0.40023   0.84637   0.00000  Uiso   1.00
C662   C     0.24738   0.61392   0.87375   0.00000  Uiso   1.00
C663   C     0.20019   0.63974   0.87858   0.00000  Uiso   1.00
C664   C     0.18856   0.66922   0.92729   0.00000  Uiso   1.00
C665   C     0.31489   0.61561   0.80840   0.00000  Uiso   1.00
C666   C     0.32445   0.64286   0.75829   0.00000  Uiso   1.00
C667   C     0.36965   0.67378   0.75198   0.00000  Uiso   1.00
H668   H     0.35786   0.58876   0.93497   0.00000  Uiso   1.00
H669   H     0.36540   0.46502   0.94201   0.00000  Uiso   1.00
H670   H     0.29676   0.64957   0.99752   0.00000  Uiso   1.00
H671   H     0.42101   0.65269   0.87725   0.00000  Uiso   1.00
H672   H     0.35860   0.32629   0.93115   0.00000  Uiso   1.00
H673   H     0.21388   0.71545   0.04820   0.00000  Uiso   1.00
H674   H     0.47587   0.72203   0.79458   0.00000  Uiso   1.00
H675   H     0.24112   0.57687   0.79117   0.00000  Uiso   1.00
H676   H     0.24225   0.45247   0.79031   0.00000  Uiso   1.00
H677   H     0.17361   0.63703   0.84582   0.00000  Uiso   1.00
H678   H     0.29786   0.64014   0.72555   0.00000  Uiso   1.00
H679   H     0.25864   0.31611   0.80803   0.00000  Uiso   1.00
H680   H     0.11392   0.70527   0.92508   0.00000  Uiso   1.00
H681   H     0.37592   0.71184   0.67146   0.00000  Uiso   1.00
O682   O     0.31146   0.23958   0.87163   0.00000  Uiso   1.00
O683   O     0.12160   0.75015   0.02519   0.00000  Uiso   1.00
O684   O     0.46533   0.75878   0.69245   0.00000  Uiso   1.00
N685   N     0.33493   0.34097   0.90229   0.00000  Uiso   1.00
N686   N     0.19962   0.70480   0.01172   0.00000  Uiso   1.00
N687   N     0.44456   0.71096   0.77462   0.00000  Uiso   1.00
N688   N     0.28114   0.33549   0.83604   0.00000  Uiso   1.00
N689   N     0.14583   0.69932   0.94547   0.00000  Uiso   1.00
N690   N     0.39077   0.70548   0.70837   0.00000  Uiso   1.00
C691   C     0.83112   0.08603   0.90202   0.00000  Uiso   1.00
C692   C     0.81903   0.01715   0.88590   0.00000  Uiso   1.00
C693   C     0.83882   0.96229   0.90925   0.00000  Uiso   1.00
C694   C     0.82302   0.90373   0.88877   0.00000  Uiso   1.00
C695   C     0.80946   0.79732   0.87019   0.00000  Uiso   1.00
C696   C     0.78173   0.11742   0.91607   0.00000  Uiso   1.00
C697   C     0.77017   0.14687   0.96478   0.00000  Uiso   1.00
C698   C     0.72297   0.17272   0.96968   0.00000  Uiso   1.00
C699   C     0.65152   0.22201   0.99792   0.00000  Uiso   1.00
C700   C     0.84924   0.11911   0.85072   0.00000  Uiso   1.00
C701   C     0.89443   0.14999   0.84449   0.00000  Uiso   1.00
C702   C     0.90407   0.17728   0.79438   0.00000  Uiso   1.00
C703   C     0.93743   0.22919   0.72115   0.00000  Uiso   1.00
C704   C     0.76787   0.07959   0.82412   0.00000  Uiso   1.00
C705   C     0.78467   0.01366   0.84358   0.00000  Uiso   1.00
C706   C     0.76884   0.95517   0.82306   0.00000  Uiso   1.00
C707   C     0.78860   0.90023   0.84637   0.00000  Uiso   1.00
C708   C     0.74738   0.11392   0.87375   0.00000  Uiso   1.00
C709   C     0.70019   0.13974   0.87858   0.00000  Uiso   1.00
C710   C     0.68856   0.16922   0.92729   0.00000  Uiso   1.00
C711   C     0.81489   0.11561   0.80840   0.00000  Uiso   1.00
C712   C     0.82445   0.14286   0.75829   0.00000  Uiso   1.00
C713   C     0.86965   0.17378   0.75198   0.00000  Uiso   1.00
H714   H     0.85786   0.08876   0.93497   0.00000  Uiso   1.00
H715   H     0.86540   0.96502   0.94201   0.00000  Uiso   1.00
H716   H     0.79676   0.14957   0.99752   0.00000  Uiso   1.00
H717   H     0.92101   0.15269   0.87725   0.00000  Uiso   1.00
H718   H     0.85860   0.82629   0.93115   0.00000  Uiso   1.00
H719   H     0.71388   0.21545   0.04820   0.00000  Uiso   1.00
H720   H     0.97587   0.22203   0.79458   0.00000  Uiso   1.00
H721   H     0.74112   0.07687   0.79117   0.00000  Uiso   1.00
H722   H     0.74225   0.95247   0.79031   0.00000  Uiso   1.00
H723   H     0.67361   0.13703   0.84582   0.00000  Uiso   1.00
H724   H     0.79786   0.14014   0.72555   0.00000  Uiso   1.00
H725   H     0.75864   0.81611   0.80803   0.00000  Uiso   1.00
H726   H     0.61392   0.20527   0.92508   0.00000  Uiso   1.00
H727   H     0.87592   0.21184   0.67146   0.00000  Uiso   1.00
O728   O     0.81146   0.73958   0.87163   0.00000  Uiso   1.00
O729   O     0.62160   0.25015   0.02519   0.00000  Uiso   1.00
O730   O     0.96533   0.25878   0.69245   0.00000  Uiso   1.00
N731   N     0.83493   0.84097   0.90229   0.00000  Uiso   1.00
N732   N     0.69962   0.20480   0.01172   0.00000  Uiso   1.00
N733   N     0.94456   0.21096   0.77462   0.00000  Uiso   1.00
N734   N     0.78114   0.83549   0.83604   0.00000  Uiso   1.00
N735   N     0.64583   0.19932   0.94547   0.00000  Uiso   1.00
N736   N     0.89077   0.20548   0.70837   0.00000  Uiso   1.00
