data_job_06315
_audit_creation_date              2018-12-19
_audit_creation_method            'Materials Studio'
_symmetry_space_group_name_H-M    'P1'
_symmetry_Int_Tables_number       1
_symmetry_cell_setting            triclinic
loop_
_symmetry_equiv_pos_as_xyz
  x,y,z
_cell_length_a                    23.3670
_cell_length_b                    23.3670
_cell_length_c                    28.1425
_cell_angle_alpha                 90.0000
_cell_angle_beta                  90.0000
_cell_angle_gamma                 120.0000
loop_
_atom_site_label
_atom_site_type_symbol
_atom_site_fract_x
_atom_site_fract_y
_atom_site_fract_z
_atom_site_U_iso_or_equiv
_atom_site_adp_type
_atom_site_occupancy
C1     C     0.00016   0.30187   0.49165   0.00000  Uiso   1.00
C2     C     0.04397   0.34676   0.53140   0.00000  Uiso   1.00
C3     C     0.07368   0.32909   0.56669   0.00000  Uiso   1.00
C4     C     0.11189   0.37726   0.59981   0.00000  Uiso   1.00
C5     C     0.17864   0.43728   0.66187   0.00000  Uiso   1.00
C6     C     0.93492   0.30157   0.49554   0.00000  Uiso   1.00
C7     C     0.87295   0.24590   0.50069   0.00000  Uiso   1.00
C8     C     0.81936   0.25604   0.50361   0.00000  Uiso   1.00
C9     C     0.05014   0.91257   0.17664   0.00000  Uiso   1.00
C10    C     0.03188   0.33744   0.44531   0.00000  Uiso   1.00
C11    C     0.05141   0.31194   0.40820   0.00000  Uiso   1.00
C12    C     0.07944   0.35228   0.36883   0.00000  Uiso   1.00
C13    C     0.79409   0.73117   0.63052   0.00000  Uiso   1.00
C14    C     0.01517   0.41884   0.48770   0.00000  Uiso   1.00
C15    C     0.05211   0.41029   0.52925   0.00000  Uiso   1.00
C16    C     0.09029   0.45850   0.56232   0.00000  Uiso   1.00
C17    C     0.12005   0.44091   0.59766   0.00000  Uiso   1.00
C18    C     0.94307   0.36510   0.49340   0.00000  Uiso   1.00
C19    C     0.88955   0.37532   0.49631   0.00000  Uiso   1.00
C20    C     0.82752   0.31969   0.50146   0.00000  Uiso   1.00
C21    C     0.04003   0.40098   0.44316   0.00000  Uiso   1.00
C22    C     0.73469   0.77469   0.73716   0.00000  Uiso   1.00
C23    C     0.75427   0.74926   0.70001   0.00000  Uiso   1.00
H24    H     0.99381   0.25241   0.49332   0.00000  Uiso   1.00
H25    H     0.06736   0.27991   0.56835   0.00000  Uiso   1.00
H26    H     0.86666   0.19674   0.50234   0.00000  Uiso   1.00
H27    H     0.04510   0.26277   0.40988   0.00000  Uiso   1.00
H28    H     0.15247   0.33842   0.65059   0.00000  Uiso   1.00
H29    H     0.72928   0.16305   0.51140   0.00000  Uiso   1.00
H30    H     0.10555   0.30228   0.31641   0.00000  Uiso   1.00
H31    H     0.02151   0.46831   0.48603   0.00000  Uiso   1.00
H32    H     0.09658   0.50767   0.56065   0.00000  Uiso   1.00
H33    H     0.22921   0.09116   0.16131   0.00000  Uiso   1.00
H34    H     0.74099   0.82385   0.73552   0.00000  Uiso   1.00
H35    H     0.17619   0.52327   0.64434   0.00000  Uiso   1.00
H36    H     0.08633   0.01457   0.17182   0.00000  Uiso   1.00
H37    H     0.79594   0.82047   0.64350   0.00000  Uiso   1.00
O38    O     0.21320   0.45283   0.69669   0.00000  Uiso   1.00
O39    O     0.99132   0.88942   0.18074   0.00000  Uiso   1.00
O40    O     0.81832   0.73876   0.59160   0.00000  Uiso   1.00
N41    N     0.14776   0.37653   0.63887   0.00000  Uiso   1.00
N42    N     0.75211   0.21257   0.50874   0.00000  Uiso   1.00
N43    N     0.77054   0.67607   0.65978   0.00000  Uiso   1.00
N44    N     0.16053   0.47600   0.63551   0.00000  Uiso   1.00
N45    N     0.09820   0.97870   0.17205   0.00000  Uiso   1.00
N46    N     0.78330   0.77553   0.65642   0.00000  Uiso   1.00
C47    C     0.66683   0.63521   0.82499   0.00000  Uiso   1.00
C48    C     0.71063   0.68009   0.86473   0.00000  Uiso   1.00
C49    C     0.74035   0.66242   0.90003   0.00000  Uiso   1.00
C50    C     0.77855   0.71059   0.93314   0.00000  Uiso   1.00
C51    C     0.84530   0.77061   0.99520   0.00000  Uiso   1.00
C52    C     0.60159   0.63490   0.82888   0.00000  Uiso   1.00
C53    C     0.53962   0.57924   0.83402   0.00000  Uiso   1.00
C54    C     0.48602   0.58937   0.83695   0.00000  Uiso   1.00
C55    C     0.71680   0.24590   0.50997   0.00000  Uiso   1.00
C56    C     0.69854   0.67078   0.77864   0.00000  Uiso   1.00
C57    C     0.71808   0.64527   0.74154   0.00000  Uiso   1.00
C58    C     0.74610   0.68561   0.70216   0.00000  Uiso   1.00
C59    C     0.46076   0.06451   0.96385   0.00000  Uiso   1.00
C60    C     0.68183   0.75218   0.82103   0.00000  Uiso   1.00
C61    C     0.71878   0.74362   0.86258   0.00000  Uiso   1.00
C62    C     0.75695   0.79184   0.89565   0.00000  Uiso   1.00
C63    C     0.78672   0.77424   0.93099   0.00000  Uiso   1.00
C64    C     0.60973   0.69843   0.82673   0.00000  Uiso   1.00
C65    C     0.55622   0.70865   0.82965   0.00000  Uiso   1.00
C66    C     0.49419   0.65302   0.83479   0.00000  Uiso   1.00
C67    C     0.70670   0.73431   0.77649   0.00000  Uiso   1.00
C68    C     0.40135   0.10802   0.07050   0.00000  Uiso   1.00
C69    C     0.42093   0.08259   0.03334   0.00000  Uiso   1.00
H70    H     0.66048   0.58574   0.82666   0.00000  Uiso   1.00
H71    H     0.73402   0.61325   0.90168   0.00000  Uiso   1.00
H72    H     0.53332   0.53008   0.83568   0.00000  Uiso   1.00
H73    H     0.71176   0.59611   0.74321   0.00000  Uiso   1.00
H74    H     0.81914   0.67175   0.98392   0.00000  Uiso   1.00
H75    H     0.39595   0.49638   0.84473   0.00000  Uiso   1.00
H76    H     0.77222   0.63562   0.64975   0.00000  Uiso   1.00
H77    H     0.68818   0.80164   0.81936   0.00000  Uiso   1.00
H78    H     0.76325   0.84100   0.89398   0.00000  Uiso   1.00
H79    H     0.89588   0.42449   0.49465   0.00000  Uiso   1.00
H80    H     0.40765   0.15719   0.06885   0.00000  Uiso   1.00
H81    H     0.84286   0.85660   0.97767   0.00000  Uiso   1.00
H82    H     0.75300   0.34790   0.50515   0.00000  Uiso   1.00
H83    H     0.46260   0.15380   0.97684   0.00000  Uiso   1.00
O84    O     0.87986   0.78617   0.03003   0.00000  Uiso   1.00
O85    O     0.65799   0.22275   0.51407   0.00000  Uiso   1.00
O86    O     0.48498   0.07209   0.92493   0.00000  Uiso   1.00
N87    N     0.81443   0.70986   0.97220   0.00000  Uiso   1.00
N88    N     0.41877   0.54590   0.84208   0.00000  Uiso   1.00
N89    N     0.43721   0.00940   0.99311   0.00000  Uiso   1.00
N90    N     0.82719   0.80933   0.96884   0.00000  Uiso   1.00
N91    N     0.76487   0.31203   0.50538   0.00000  Uiso   1.00
N92    N     0.44997   0.10887   0.98975   0.00000  Uiso   1.00
C93    C     0.33350   0.96854   0.15832   0.00000  Uiso   1.00
C94    C     0.37730   0.01342   0.19807   0.00000  Uiso   1.00
C95    C     0.40702   0.99576   0.23336   0.00000  Uiso   1.00
C96    C     0.44522   0.04393   0.26648   0.00000  Uiso   1.00
C97    C     0.51197   0.10395   0.32853   0.00000  Uiso   1.00
C98    C     0.26825   0.96824   0.16221   0.00000  Uiso   1.00
C99    C     0.20628   0.91257   0.16735   0.00000  Uiso   1.00
C100   C     0.15269   0.92270   0.17028   0.00000  Uiso   1.00
C101   C     0.38347   0.57923   0.84330   0.00000  Uiso   1.00
C102   C     0.36521   0.00411   0.11197   0.00000  Uiso   1.00
C103   C     0.38475   0.97861   0.07487   0.00000  Uiso   1.00
C104   C     0.41277   0.01894   0.03549   0.00000  Uiso   1.00
C105   C     0.12742   0.39784   0.29718   0.00000  Uiso   1.00
C106   C     0.34850   0.08551   0.15437   0.00000  Uiso   1.00
C107   C     0.38545   0.07696   0.19592   0.00000  Uiso   1.00
C108   C     0.42362   0.12517   0.22899   0.00000  Uiso   1.00
C109   C     0.45339   0.10758   0.26432   0.00000  Uiso   1.00
C110   C     0.27640   0.03177   0.16006   0.00000  Uiso   1.00
C111   C     0.22289   0.04199   0.16298   0.00000  Uiso   1.00
C112   C     0.16085   0.98635   0.16813   0.00000  Uiso   1.00
C113   C     0.37336   0.06765   0.10983   0.00000  Uiso   1.00
C114   C     0.06802   0.44136   0.40383   0.00000  Uiso   1.00
C115   C     0.08760   0.41592   0.36668   0.00000  Uiso   1.00
H116   H     0.32715   0.91907   0.15999   0.00000  Uiso   1.00
H117   H     0.40069   0.94658   0.23501   0.00000  Uiso   1.00
H118   H     0.19999   0.86341   0.16901   0.00000  Uiso   1.00
H119   H     0.37843   0.92944   0.07654   0.00000  Uiso   1.00
H120   H     0.48581   0.00509   0.31725   0.00000  Uiso   1.00
H121   H     0.06262   0.82972   0.17806   0.00000  Uiso   1.00
H122   H     0.43889   0.96895   0.98308   0.00000  Uiso   1.00
H123   H     0.35485   0.13497   0.15269   0.00000  Uiso   1.00
H124   H     0.42992   0.17433   0.22732   0.00000  Uiso   1.00
H125   H     0.56255   0.75783   0.82798   0.00000  Uiso   1.00
H126   H     0.07432   0.49052   0.40218   0.00000  Uiso   1.00
H127   H     0.50952   0.18994   0.31101   0.00000  Uiso   1.00
H128   H     0.41966   0.68123   0.83848   0.00000  Uiso   1.00
H129   H     0.12927   0.48714   0.31017   0.00000  Uiso   1.00
O130   O     0.54653   0.11950   0.36336   0.00000  Uiso   1.00
O131   O     0.32465   0.55609   0.84741   0.00000  Uiso   1.00
O132   O     0.15165   0.40543   0.25826   0.00000  Uiso   1.00
N133   N     0.48110   0.04320   0.30554   0.00000  Uiso   1.00
N134   N     0.08544   0.87923   0.17541   0.00000  Uiso   1.00
N135   N     0.10387   0.34273   0.32645   0.00000  Uiso   1.00
N136   N     0.49386   0.14266   0.30217   0.00000  Uiso   1.00
N137   N     0.43153   0.64537   0.83872   0.00000  Uiso   1.00
N138   N     0.11664   0.44220   0.32308   0.00000  Uiso   1.00
C139   C     0.69813   0.69829   0.49165   0.00000  Uiso   1.00
C140   C     0.65324   0.69721   0.53140   0.00000  Uiso   1.00
C141   C     0.67091   0.74459   0.56669   0.00000  Uiso   1.00
C142   C     0.62274   0.73463   0.59981   0.00000  Uiso   1.00
C143   C     0.56272   0.74136   0.66187   0.00000  Uiso   1.00
C144   C     0.69843   0.63335   0.49554   0.00000  Uiso   1.00
C145   C     0.75410   0.62705   0.50069   0.00000  Uiso   1.00
C146   C     0.74396   0.56332   0.50361   0.00000  Uiso   1.00
C147   C     0.08743   0.13757   0.17664   0.00000  Uiso   1.00
C148   C     0.66256   0.69443   0.44531   0.00000  Uiso   1.00
C149   C     0.68806   0.73947   0.40820   0.00000  Uiso   1.00
C150   C     0.64772   0.72716   0.36883   0.00000  Uiso   1.00
C151   C     0.26883   0.06292   0.63052   0.00000  Uiso   1.00
C152   C     0.58116   0.59633   0.48770   0.00000  Uiso   1.00
C153   C     0.58971   0.64182   0.52925   0.00000  Uiso   1.00
C154   C     0.54150   0.63178   0.56232   0.00000  Uiso   1.00
C155   C     0.55909   0.67914   0.59766   0.00000  Uiso   1.00
C156   C     0.63490   0.57797   0.49340   0.00000  Uiso   1.00
C157   C     0.62468   0.51423   0.49631   0.00000  Uiso   1.00
C158   C     0.68031   0.50783   0.50146   0.00000  Uiso   1.00
C159   C     0.59902   0.63905   0.44316   0.00000  Uiso   1.00
C160   C     0.22531   0.95999   0.73716   0.00000  Uiso   1.00
C161   C     0.25074   0.00501   0.70001   0.00000  Uiso   1.00
H162   H     0.74759   0.74141   0.49332   0.00000  Uiso   1.00
H163   H     0.72009   0.78745   0.56835   0.00000  Uiso   1.00
H164   H     0.80326   0.66991   0.50234   0.00000  Uiso   1.00
H165   H     0.73723   0.78232   0.40988   0.00000  Uiso   1.00
H166   H     0.66158   0.81405   0.65059   0.00000  Uiso   1.00
H167   H     0.83695   0.56623   0.51140   0.00000  Uiso   1.00
H168   H     0.69772   0.80327   0.31641   0.00000  Uiso   1.00
H169   H     0.53169   0.55320   0.48603   0.00000  Uiso   1.00
H170   H     0.49233   0.58892   0.56065   0.00000  Uiso   1.00
H171   H     0.90884   0.13805   0.16131   0.00000  Uiso   1.00
H172   H     0.17615   0.91713   0.73552   0.00000  Uiso   1.00
H173   H     0.47673   0.65292   0.64434   0.00000  Uiso   1.00
H174   H     0.98543   0.07176   0.17182   0.00000  Uiso   1.00
H175   H     0.17953   0.97547   0.64350   0.00000  Uiso   1.00
O176   O     0.54717   0.76036   0.69669   0.00000  Uiso   1.00
O177   O     0.11058   0.10190   0.18074   0.00000  Uiso   1.00
O178   O     0.26124   0.07956   0.59160   0.00000  Uiso   1.00
N179   N     0.62347   0.77123   0.63887   0.00000  Uiso   1.00
N180   N     0.78743   0.53954   0.50874   0.00000  Uiso   1.00
N181   N     0.32393   0.09447   0.65978   0.00000  Uiso   1.00
N182   N     0.52400   0.68453   0.63551   0.00000  Uiso   1.00
N183   N     0.02130   0.11950   0.17205   0.00000  Uiso   1.00
N184   N     0.22447   0.00777   0.65642   0.00000  Uiso   1.00
C185   C     0.36479   0.03162   0.82499   0.00000  Uiso   1.00
C186   C     0.31991   0.03054   0.86473   0.00000  Uiso   1.00
C187   C     0.33758   0.07793   0.90003   0.00000  Uiso   1.00
C188   C     0.28941   0.06796   0.93314   0.00000  Uiso   1.00
C189   C     0.22939   0.07469   0.99520   0.00000  Uiso   1.00
C190   C     0.36510   0.96668   0.82888   0.00000  Uiso   1.00
C191   C     0.42076   0.96038   0.83402   0.00000  Uiso   1.00
C192   C     0.41063   0.89665   0.83695   0.00000  Uiso   1.00
C193   C     0.75410   0.47091   0.50997   0.00000  Uiso   1.00
C194   C     0.32922   0.02776   0.77864   0.00000  Uiso   1.00
C195   C     0.35473   0.07281   0.74154   0.00000  Uiso   1.00
C196   C     0.31439   0.06049   0.70216   0.00000  Uiso   1.00
C197   C     0.93549   0.39625   0.96385   0.00000  Uiso   1.00
C198   C     0.24782   0.92966   0.82103   0.00000  Uiso   1.00
C199   C     0.25638   0.97516   0.86258   0.00000  Uiso   1.00
C200   C     0.20816   0.96512   0.89565   0.00000  Uiso   1.00
C201   C     0.22576   0.01248   0.93099   0.00000  Uiso   1.00
C202   C     0.30157   0.91130   0.82673   0.00000  Uiso   1.00
C203   C     0.29135   0.84757   0.82965   0.00000  Uiso   1.00
C204   C     0.34698   0.84117   0.83479   0.00000  Uiso   1.00
C205   C     0.26569   0.97238   0.77649   0.00000  Uiso   1.00
C206   C     0.89198   0.29333   0.07050   0.00000  Uiso   1.00
C207   C     0.91741   0.33834   0.03334   0.00000  Uiso   1.00
H208   H     0.41426   0.07474   0.82666   0.00000  Uiso   1.00
H209   H     0.38675   0.12078   0.90168   0.00000  Uiso   1.00
H210   H     0.46992   0.00325   0.83568   0.00000  Uiso   1.00
H211   H     0.40389   0.11566   0.74321   0.00000  Uiso   1.00
H212   H     0.32825   0.14738   0.98392   0.00000  Uiso   1.00
H213   H     0.50362   0.89956   0.84473   0.00000  Uiso   1.00
H214   H     0.36438   0.13660   0.64975   0.00000  Uiso   1.00
H215   H     0.19836   0.88654   0.81936   0.00000  Uiso   1.00
H216   H     0.15900   0.92225   0.89398   0.00000  Uiso   1.00
H217   H     0.57551   0.47139   0.49465   0.00000  Uiso   1.00
H218   H     0.84281   0.25046   0.06885   0.00000  Uiso   1.00
H219   H     0.14340   0.98625   0.97767   0.00000  Uiso   1.00
H220   H     0.65210   0.40510   0.50515   0.00000  Uiso   1.00
H221   H     0.84620   0.30880   0.97684   0.00000  Uiso   1.00
O222   O     0.21383   0.09370   0.03003   0.00000  Uiso   1.00
O223   O     0.77725   0.43523   0.51407   0.00000  Uiso   1.00
O224   O     0.92791   0.41289   0.92493   0.00000  Uiso   1.00
N225   N     0.29014   0.10457   0.97220   0.00000  Uiso   1.00
N226   N     0.45410   0.87287   0.84208   0.00000  Uiso   1.00
N227   N     0.99060   0.42781   0.99311   0.00000  Uiso   1.00
N228   N     0.19067   0.01786   0.96884   0.00000  Uiso   1.00
N229   N     0.68797   0.45283   0.50538   0.00000  Uiso   1.00
N230   N     0.89113   0.34110   0.98975   0.00000  Uiso   1.00
C231   C     0.03146   0.36496   0.15832   0.00000  Uiso   1.00
C232   C     0.98658   0.36388   0.19807   0.00000  Uiso   1.00
C233   C     0.00424   0.41126   0.23336   0.00000  Uiso   1.00
C234   C     0.95607   0.40129   0.26648   0.00000  Uiso   1.00
C235   C     0.89605   0.40802   0.32853   0.00000  Uiso   1.00
C236   C     0.03176   0.30002   0.16221   0.00000  Uiso   1.00
C237   C     0.08743   0.29371   0.16735   0.00000  Uiso   1.00
C238   C     0.07730   0.22998   0.17028   0.00000  Uiso   1.00
C239   C     0.42077   0.80424   0.84330   0.00000  Uiso   1.00
C240   C     0.99589   0.36110   0.11197   0.00000  Uiso   1.00
C241   C     0.02139   0.40614   0.07487   0.00000  Uiso   1.00
C242   C     0.98106   0.39383   0.03549   0.00000  Uiso   1.00
C243   C     0.60216   0.72958   0.29718   0.00000  Uiso   1.00
C244   C     0.91449   0.26299   0.15437   0.00000  Uiso   1.00
C245   C     0.92304   0.30849   0.19592   0.00000  Uiso   1.00
C246   C     0.87483   0.29845   0.22899   0.00000  Uiso   1.00
C247   C     0.89242   0.34581   0.26432   0.00000  Uiso   1.00
C248   C     0.96823   0.24463   0.16006   0.00000  Uiso   1.00
C249   C     0.95801   0.18090   0.16298   0.00000  Uiso   1.00
C250   C     0.01365   0.17450   0.16813   0.00000  Uiso   1.00
C251   C     0.93235   0.30571   0.10983   0.00000  Uiso   1.00
C252   C     0.55864   0.62666   0.40383   0.00000  Uiso   1.00
C253   C     0.58408   0.67168   0.36668   0.00000  Uiso   1.00
H254   H     0.08093   0.40807   0.15999   0.00000  Uiso   1.00
H255   H     0.05342   0.45411   0.23501   0.00000  Uiso   1.00
H256   H     0.13659   0.33658   0.16901   0.00000  Uiso   1.00
H257   H     0.07056   0.44899   0.07654   0.00000  Uiso   1.00
H258   H     0.99491   0.48072   0.31725   0.00000  Uiso   1.00
H259   H     0.17028   0.23290   0.17806   0.00000  Uiso   1.00
H260   H     0.03105   0.46994   0.98308   0.00000  Uiso   1.00
H261   H     0.86503   0.21987   0.15269   0.00000  Uiso   1.00
H262   H     0.82567   0.25558   0.22732   0.00000  Uiso   1.00
H263   H     0.24217   0.80472   0.82798   0.00000  Uiso   1.00
H264   H     0.50948   0.58380   0.40218   0.00000  Uiso   1.00
H265   H     0.81006   0.31958   0.31101   0.00000  Uiso   1.00
H266   H     0.31877   0.73843   0.83848   0.00000  Uiso   1.00
H267   H     0.51286   0.64214   0.31017   0.00000  Uiso   1.00
O268   O     0.88050   0.42703   0.36336   0.00000  Uiso   1.00
O269   O     0.44391   0.76857   0.84741   0.00000  Uiso   1.00
O270   O     0.59457   0.74622   0.25826   0.00000  Uiso   1.00
N271   N     0.95680   0.43790   0.30554   0.00000  Uiso   1.00
N272   N     0.12077   0.20620   0.17541   0.00000  Uiso   1.00
N273   N     0.65727   0.76114   0.32645   0.00000  Uiso   1.00
N274   N     0.85734   0.35120   0.30217   0.00000  Uiso   1.00
N275   N     0.35463   0.78617   0.83872   0.00000  Uiso   1.00
N276   N     0.55780   0.67444   0.32308   0.00000  Uiso   1.00
C277   C     0.30171   0.99984   0.49165   0.00000  Uiso   1.00
C278   C     0.30279   0.95603   0.53140   0.00000  Uiso   1.00
C279   C     0.25541   0.92632   0.56669   0.00000  Uiso   1.00
C280   C     0.26537   0.88811   0.59981   0.00000  Uiso   1.00
C281   C     0.25864   0.82136   0.66187   0.00000  Uiso   1.00
C282   C     0.36665   0.06508   0.49554   0.00000  Uiso   1.00
C283   C     0.37295   0.12705   0.50069   0.00000  Uiso   1.00
C284   C     0.43668   0.18064   0.50361   0.00000  Uiso   1.00
C285   C     0.86243   0.94986   0.17664   0.00000  Uiso   1.00
C286   C     0.30557   0.96812   0.44531   0.00000  Uiso   1.00
C287   C     0.26053   0.94859   0.40820   0.00000  Uiso   1.00
C288   C     0.27284   0.92056   0.36883   0.00000  Uiso   1.00
C289   C     0.93708   0.20591   0.63052   0.00000  Uiso   1.00
C290   C     0.40367   0.98483   0.48770   0.00000  Uiso   1.00
C291   C     0.35818   0.94789   0.52925   0.00000  Uiso   1.00
C292   C     0.36822   0.90971   0.56232   0.00000  Uiso   1.00
C293   C     0.32086   0.87995   0.59766   0.00000  Uiso   1.00
C294   C     0.42203   0.05693   0.49340   0.00000  Uiso   1.00
C295   C     0.48577   0.11045   0.49631   0.00000  Uiso   1.00
C296   C     0.49217   0.17248   0.50146   0.00000  Uiso   1.00
C297   C     0.36095   0.95997   0.44316   0.00000  Uiso   1.00
C298   C     0.04001   0.26531   0.73716   0.00000  Uiso   1.00
C299   C     0.99499   0.24573   0.70001   0.00000  Uiso   1.00
H300   H     0.25859   0.00619   0.49332   0.00000  Uiso   1.00
H301   H     0.21255   0.93264   0.56835   0.00000  Uiso   1.00
H302   H     0.33009   0.13334   0.50234   0.00000  Uiso   1.00
H303   H     0.21768   0.95490   0.40988   0.00000  Uiso   1.00
H304   H     0.18595   0.84753   0.65059   0.00000  Uiso   1.00
H305   H     0.43377   0.27072   0.51140   0.00000  Uiso   1.00
H306   H     0.19673   0.89445   0.31641   0.00000  Uiso   1.00
H307   H     0.44680   0.97849   0.48603   0.00000  Uiso   1.00
H308   H     0.41108   0.90342   0.56065   0.00000  Uiso   1.00
H309   H     0.86195   0.77079   0.16131   0.00000  Uiso   1.00
H310   H     0.08287   0.25901   0.73552   0.00000  Uiso   1.00
H311   H     0.34708   0.82381   0.64434   0.00000  Uiso   1.00
H312   H     0.92824   0.91367   0.17182   0.00000  Uiso   1.00
H313   H     0.02453   0.20406   0.64350   0.00000  Uiso   1.00
O314   O     0.23964   0.78680   0.69669   0.00000  Uiso   1.00
O315   O     0.89810   0.00868   0.18074   0.00000  Uiso   1.00
O316   O     0.92044   0.18168   0.59160   0.00000  Uiso   1.00
N317   N     0.22877   0.85224   0.63887   0.00000  Uiso   1.00
N318   N     0.46046   0.24789   0.50874   0.00000  Uiso   1.00
N319   N     0.90553   0.22946   0.65978   0.00000  Uiso   1.00
N320   N     0.31547   0.83947   0.63551   0.00000  Uiso   1.00
N321   N     0.88050   0.90180   0.17205   0.00000  Uiso   1.00
N322   N     0.99223   0.21670   0.65642   0.00000  Uiso   1.00
C323   C     0.96838   0.33317   0.82499   0.00000  Uiso   1.00
C324   C     0.96946   0.28937   0.86473   0.00000  Uiso   1.00
C325   C     0.92207   0.25965   0.90003   0.00000  Uiso   1.00
C326   C     0.93204   0.22145   0.93314   0.00000  Uiso   1.00
C327   C     0.92531   0.15470   0.99520   0.00000  Uiso   1.00
C328   C     0.03332   0.39841   0.82888   0.00000  Uiso   1.00
C329   C     0.03962   0.46038   0.83402   0.00000  Uiso   1.00
C330   C     0.10335   0.51398   0.83695   0.00000  Uiso   1.00
C331   C     0.52909   0.28320   0.50997   0.00000  Uiso   1.00
C332   C     0.97224   0.30146   0.77864   0.00000  Uiso   1.00
C333   C     0.92719   0.28192   0.74154   0.00000  Uiso   1.00
C334   C     0.93951   0.25390   0.70216   0.00000  Uiso   1.00
C335   C     0.60375   0.53924   0.96385   0.00000  Uiso   1.00
C336   C     0.07034   0.31817   0.82103   0.00000  Uiso   1.00
C337   C     0.02484   0.28122   0.86258   0.00000  Uiso   1.00
C338   C     0.03488   0.24305   0.89565   0.00000  Uiso   1.00
C339   C     0.98752   0.21328   0.93099   0.00000  Uiso   1.00
C340   C     0.08870   0.39027   0.82673   0.00000  Uiso   1.00
C341   C     0.15243   0.44378   0.82965   0.00000  Uiso   1.00
C342   C     0.15883   0.50581   0.83479   0.00000  Uiso   1.00
C343   C     0.02762   0.29330   0.77649   0.00000  Uiso   1.00
C344   C     0.70667   0.59865   0.07050   0.00000  Uiso   1.00
C345   C     0.66166   0.57907   0.03334   0.00000  Uiso   1.00
H346   H     0.92526   0.33952   0.82666   0.00000  Uiso   1.00
H347   H     0.87922   0.26598   0.90168   0.00000  Uiso   1.00
H348   H     0.99675   0.46668   0.83568   0.00000  Uiso   1.00
H349   H     0.88434   0.28824   0.74321   0.00000  Uiso   1.00
H350   H     0.85262   0.18086   0.98392   0.00000  Uiso   1.00
H351   H     0.10044   0.60405   0.84473   0.00000  Uiso   1.00
H352   H     0.86340   0.22778   0.64975   0.00000  Uiso   1.00
H353   H     0.11346   0.31182   0.81936   0.00000  Uiso   1.00
H354   H     0.07775   0.23675   0.89398   0.00000  Uiso   1.00
H355   H     0.52861   0.10412   0.49465   0.00000  Uiso   1.00
H356   H     0.74954   0.59235   0.06885   0.00000  Uiso   1.00
H357   H     0.01375   0.15714   0.97767   0.00000  Uiso   1.00
H358   H     0.59490   0.24700   0.50515   0.00000  Uiso   1.00
H359   H     0.69120   0.53740   0.97684   0.00000  Uiso   1.00
O360   O     0.90630   0.12014   0.03003   0.00000  Uiso   1.00
O361   O     0.56477   0.34201   0.51407   0.00000  Uiso   1.00
O362   O     0.58711   0.51502   0.92493   0.00000  Uiso   1.00
N363   N     0.89543   0.18557   0.97220   0.00000  Uiso   1.00
N364   N     0.12713   0.58123   0.84208   0.00000  Uiso   1.00
N365   N     0.57219   0.56279   0.99311   0.00000  Uiso   1.00
N366   N     0.98214   0.17281   0.96884   0.00000  Uiso   1.00
N367   N     0.54717   0.23513   0.50538   0.00000  Uiso   1.00
N368   N     0.65890   0.55003   0.98975   0.00000  Uiso   1.00
C369   C     0.63504   0.66650   0.15832   0.00000  Uiso   1.00
C370   C     0.63612   0.62270   0.19807   0.00000  Uiso   1.00
C371   C     0.58874   0.59298   0.23336   0.00000  Uiso   1.00
C372   C     0.59871   0.55478   0.26648   0.00000  Uiso   1.00
C373   C     0.59198   0.48803   0.32853   0.00000  Uiso   1.00
C374   C     0.69998   0.73175   0.16221   0.00000  Uiso   1.00
C375   C     0.70629   0.79372   0.16735   0.00000  Uiso   1.00
C376   C     0.77002   0.84731   0.17028   0.00000  Uiso   1.00
C377   C     0.19576   0.61653   0.84330   0.00000  Uiso   1.00
C378   C     0.63890   0.63479   0.11197   0.00000  Uiso   1.00
C379   C     0.59386   0.61525   0.07487   0.00000  Uiso   1.00
C380   C     0.60617   0.58723   0.03549   0.00000  Uiso   1.00
C381   C     0.27042   0.87258   0.29718   0.00000  Uiso   1.00
C382   C     0.73701   0.65150   0.15437   0.00000  Uiso   1.00
C383   C     0.69151   0.61455   0.19592   0.00000  Uiso   1.00
C384   C     0.70155   0.57638   0.22899   0.00000  Uiso   1.00
C385   C     0.65419   0.54661   0.26432   0.00000  Uiso   1.00
C386   C     0.75537   0.72360   0.16006   0.00000  Uiso   1.00
C387   C     0.81910   0.77711   0.16298   0.00000  Uiso   1.00
C388   C     0.82550   0.83915   0.16813   0.00000  Uiso   1.00
C389   C     0.69429   0.62664   0.10983   0.00000  Uiso   1.00
C390   C     0.37334   0.93198   0.40383   0.00000  Uiso   1.00
C391   C     0.32832   0.91240   0.36668   0.00000  Uiso   1.00
H392   H     0.59193   0.67285   0.15999   0.00000  Uiso   1.00
H393   H     0.54589   0.59931   0.23501   0.00000  Uiso   1.00
H394   H     0.66342   0.80001   0.16901   0.00000  Uiso   1.00
H395   H     0.55101   0.62157   0.07654   0.00000  Uiso   1.00
H396   H     0.51928   0.51419   0.31725   0.00000  Uiso   1.00
H397   H     0.76710   0.93738   0.17806   0.00000  Uiso   1.00
H398   H     0.53006   0.56111   0.98308   0.00000  Uiso   1.00
H399   H     0.78013   0.64515   0.15269   0.00000  Uiso   1.00
H400   H     0.74442   0.57008   0.22732   0.00000  Uiso   1.00
H401   H     0.19528   0.43745   0.82798   0.00000  Uiso   1.00
H402   H     0.41620   0.92568   0.40218   0.00000  Uiso   1.00
H403   H     0.68042   0.49048   0.31101   0.00000  Uiso   1.00
H404   H     0.26157   0.58034   0.83848   0.00000  Uiso   1.00
H405   H     0.35786   0.87073   0.31017   0.00000  Uiso   1.00
O406   O     0.57297   0.45347   0.36336   0.00000  Uiso   1.00
O407   O     0.23143   0.67535   0.84741   0.00000  Uiso   1.00
O408   O     0.25378   0.84835   0.25826   0.00000  Uiso   1.00
N409   N     0.56210   0.51890   0.30554   0.00000  Uiso   1.00
N410   N     0.79380   0.91456   0.17541   0.00000  Uiso   1.00
N411   N     0.23886   0.89613   0.32645   0.00000  Uiso   1.00
N412   N     0.64880   0.50614   0.30217   0.00000  Uiso   1.00
N413   N     0.21383   0.56847   0.83872   0.00000  Uiso   1.00
N414   N     0.32556   0.88336   0.32308   0.00000  Uiso   1.00
C415   C     0.99984   0.69813   0.50835   0.00000  Uiso   1.00
C416   C     0.95603   0.65324   0.46860   0.00000  Uiso   1.00
C417   C     0.92632   0.67091   0.43331   0.00000  Uiso   1.00
C418   C     0.88811   0.62274   0.40019   0.00000  Uiso   1.00
C419   C     0.82136   0.56272   0.33813   0.00000  Uiso   1.00
C420   C     0.06508   0.69843   0.50446   0.00000  Uiso   1.00
C421   C     0.12705   0.75410   0.49931   0.00000  Uiso   1.00
C422   C     0.18064   0.74396   0.49639   0.00000  Uiso   1.00
C423   C     0.94986   0.08743   0.82336   0.00000  Uiso   1.00
C424   C     0.96812   0.66256   0.55469   0.00000  Uiso   1.00
C425   C     0.94859   0.68806   0.59180   0.00000  Uiso   1.00
C426   C     0.92056   0.64772   0.63117   0.00000  Uiso   1.00
C427   C     0.20591   0.26883   0.36948   0.00000  Uiso   1.00
C428   C     0.98483   0.58116   0.51230   0.00000  Uiso   1.00
C429   C     0.94789   0.58971   0.47075   0.00000  Uiso   1.00
C430   C     0.90971   0.54150   0.43768   0.00000  Uiso   1.00
C431   C     0.87995   0.55909   0.40234   0.00000  Uiso   1.00
C432   C     0.05693   0.63490   0.50660   0.00000  Uiso   1.00
C433   C     0.11045   0.62468   0.50369   0.00000  Uiso   1.00
C434   C     0.17248   0.68031   0.49854   0.00000  Uiso   1.00
C435   C     0.95997   0.59902   0.55684   0.00000  Uiso   1.00
C436   C     0.26531   0.22531   0.26284   0.00000  Uiso   1.00
C437   C     0.24573   0.25074   0.29999   0.00000  Uiso   1.00
H438   H     0.00619   0.74759   0.50668   0.00000  Uiso   1.00
H439   H     0.93264   0.72009   0.43165   0.00000  Uiso   1.00
H440   H     0.13334   0.80326   0.49766   0.00000  Uiso   1.00
H441   H     0.95490   0.73723   0.59012   0.00000  Uiso   1.00
H442   H     0.84753   0.66158   0.34941   0.00000  Uiso   1.00
H443   H     0.27072   0.83695   0.48860   0.00000  Uiso   1.00
H444   H     0.89445   0.69772   0.68359   0.00000  Uiso   1.00
H445   H     0.97849   0.53169   0.51397   0.00000  Uiso   1.00
H446   H     0.90342   0.49233   0.43935   0.00000  Uiso   1.00
H447   H     0.77079   0.90884   0.83869   0.00000  Uiso   1.00
H448   H     0.25901   0.17615   0.26448   0.00000  Uiso   1.00
H449   H     0.82381   0.47673   0.35566   0.00000  Uiso   1.00
H450   H     0.91367   0.98543   0.82818   0.00000  Uiso   1.00
H451   H     0.20406   0.17953   0.35650   0.00000  Uiso   1.00
O452   O     0.78680   0.54717   0.30331   0.00000  Uiso   1.00
O453   O     0.00868   0.11058   0.81926   0.00000  Uiso   1.00
O454   O     0.18168   0.26124   0.40840   0.00000  Uiso   1.00
N455   N     0.85224   0.62347   0.36113   0.00000  Uiso   1.00
N456   N     0.24789   0.78743   0.49126   0.00000  Uiso   1.00
N457   N     0.22946   0.32393   0.34022   0.00000  Uiso   1.00
N458   N     0.83947   0.52400   0.36449   0.00000  Uiso   1.00
N459   N     0.90180   0.02130   0.82795   0.00000  Uiso   1.00
N460   N     0.21670   0.22447   0.34358   0.00000  Uiso   1.00
C461   C     0.66650   0.03146   0.84168   0.00000  Uiso   1.00
C462   C     0.62270   0.98658   0.80193   0.00000  Uiso   1.00
C463   C     0.59298   0.00424   0.76664   0.00000  Uiso   1.00
C464   C     0.55478   0.95607   0.73352   0.00000  Uiso   1.00
C465   C     0.48803   0.89605   0.67147   0.00000  Uiso   1.00
C466   C     0.73175   0.03176   0.83779   0.00000  Uiso   1.00
C467   C     0.79372   0.08743   0.83265   0.00000  Uiso   1.00
C468   C     0.84731   0.07730   0.82972   0.00000  Uiso   1.00
C469   C     0.61653   0.42077   0.15670   0.00000  Uiso   1.00
C470   C     0.63479   0.99589   0.88803   0.00000  Uiso   1.00
C471   C     0.61525   0.02139   0.92513   0.00000  Uiso   1.00
C472   C     0.58723   0.98106   0.96451   0.00000  Uiso   1.00
C473   C     0.87258   0.60216   0.70282   0.00000  Uiso   1.00
C474   C     0.65150   0.91449   0.84563   0.00000  Uiso   1.00
C475   C     0.61455   0.92304   0.80408   0.00000  Uiso   1.00
C476   C     0.57638   0.87483   0.77101   0.00000  Uiso   1.00
C477   C     0.54661   0.89242   0.73568   0.00000  Uiso   1.00
C478   C     0.72360   0.96823   0.83994   0.00000  Uiso   1.00
C479   C     0.77711   0.95801   0.83702   0.00000  Uiso   1.00
C480   C     0.83915   0.01365   0.83187   0.00000  Uiso   1.00
C481   C     0.62664   0.93235   0.89017   0.00000  Uiso   1.00
C482   C     0.93198   0.55864   0.59617   0.00000  Uiso   1.00
C483   C     0.91240   0.58408   0.63332   0.00000  Uiso   1.00
H484   H     0.67285   0.08093   0.84001   0.00000  Uiso   1.00
H485   H     0.59931   0.05342   0.76499   0.00000  Uiso   1.00
H486   H     0.80001   0.13659   0.83099   0.00000  Uiso   1.00
H487   H     0.62157   0.07056   0.92346   0.00000  Uiso   1.00
H488   H     0.51419   0.99491   0.68275   0.00000  Uiso   1.00
H489   H     0.93738   0.17028   0.82194   0.00000  Uiso   1.00
H490   H     0.56111   0.03105   0.01692   0.00000  Uiso   1.00
H491   H     0.64515   0.86503   0.84731   0.00000  Uiso   1.00
H492   H     0.57008   0.82567   0.77268   0.00000  Uiso   1.00
H493   H     0.43745   0.24217   0.17202   0.00000  Uiso   1.00
H494   H     0.92568   0.50948   0.59782   0.00000  Uiso   1.00
H495   H     0.49048   0.81006   0.68899   0.00000  Uiso   1.00
H496   H     0.58034   0.31877   0.16152   0.00000  Uiso   1.00
H497   H     0.87073   0.51286   0.68983   0.00000  Uiso   1.00
O498   O     0.45347   0.88050   0.63664   0.00000  Uiso   1.00
O499   O     0.67535   0.44391   0.15259   0.00000  Uiso   1.00
O500   O     0.84835   0.59457   0.74174   0.00000  Uiso   1.00
N501   N     0.51890   0.95680   0.69446   0.00000  Uiso   1.00
N502   N     0.91456   0.12077   0.82459   0.00000  Uiso   1.00
N503   N     0.89613   0.65727   0.67355   0.00000  Uiso   1.00
N504   N     0.50614   0.85734   0.69783   0.00000  Uiso   1.00
N505   N     0.56847   0.35463   0.16128   0.00000  Uiso   1.00
N506   N     0.88336   0.55780   0.67692   0.00000  Uiso   1.00
C507   C     0.33317   0.36479   0.17501   0.00000  Uiso   1.00
C508   C     0.28937   0.31991   0.13527   0.00000  Uiso   1.00
C509   C     0.25965   0.33758   0.09997   0.00000  Uiso   1.00
C510   C     0.22145   0.28941   0.06686   0.00000  Uiso   1.00
C511   C     0.15470   0.22939   0.00480   0.00000  Uiso   1.00
C512   C     0.39841   0.36510   0.17112   0.00000  Uiso   1.00
C513   C     0.46038   0.42076   0.16598   0.00000  Uiso   1.00
C514   C     0.51398   0.41063   0.16305   0.00000  Uiso   1.00
C515   C     0.28320   0.75410   0.49003   0.00000  Uiso   1.00
C516   C     0.30146   0.32922   0.22136   0.00000  Uiso   1.00
C517   C     0.28192   0.35473   0.25846   0.00000  Uiso   1.00
C518   C     0.25390   0.31439   0.29784   0.00000  Uiso   1.00
C519   C     0.53924   0.93549   0.03615   0.00000  Uiso   1.00
C520   C     0.31817   0.24782   0.17897   0.00000  Uiso   1.00
C521   C     0.28122   0.25638   0.13742   0.00000  Uiso   1.00
C522   C     0.24305   0.20816   0.10435   0.00000  Uiso   1.00
C523   C     0.21328   0.22576   0.06901   0.00000  Uiso   1.00
C524   C     0.39027   0.30157   0.17327   0.00000  Uiso   1.00
C525   C     0.44378   0.29135   0.17035   0.00000  Uiso   1.00
C526   C     0.50581   0.34698   0.16521   0.00000  Uiso   1.00
C527   C     0.29330   0.26569   0.22351   0.00000  Uiso   1.00
C528   C     0.59865   0.89198   0.92950   0.00000  Uiso   1.00
C529   C     0.57907   0.91741   0.96666   0.00000  Uiso   1.00
H530   H     0.33952   0.41426   0.17334   0.00000  Uiso   1.00
H531   H     0.26598   0.38675   0.09832   0.00000  Uiso   1.00
H532   H     0.46668   0.46992   0.16432   0.00000  Uiso   1.00
H533   H     0.28824   0.40389   0.25679   0.00000  Uiso   1.00
H534   H     0.18086   0.32825   0.01608   0.00000  Uiso   1.00
H535   H     0.60405   0.50362   0.15527   0.00000  Uiso   1.00
H536   H     0.22778   0.36438   0.35025   0.00000  Uiso   1.00
H537   H     0.31182   0.19836   0.18064   0.00000  Uiso   1.00
H538   H     0.23675   0.15900   0.10602   0.00000  Uiso   1.00
H539   H     0.10412   0.57551   0.50535   0.00000  Uiso   1.00
H540   H     0.59235   0.84281   0.93115   0.00000  Uiso   1.00
H541   H     0.15714   0.14340   0.02233   0.00000  Uiso   1.00
H542   H     0.24700   0.65210   0.49485   0.00000  Uiso   1.00
H543   H     0.53740   0.84620   0.02316   0.00000  Uiso   1.00
O544   O     0.12014   0.21383   0.96997   0.00000  Uiso   1.00
O545   O     0.34201   0.77725   0.48593   0.00000  Uiso   1.00
O546   O     0.51502   0.92791   0.07507   0.00000  Uiso   1.00
N547   N     0.18557   0.29014   0.02780   0.00000  Uiso   1.00
N548   N     0.58123   0.45410   0.15792   0.00000  Uiso   1.00
N549   N     0.56279   0.99060   0.00689   0.00000  Uiso   1.00
N550   N     0.17281   0.19067   0.03116   0.00000  Uiso   1.00
N551   N     0.23513   0.68797   0.49462   0.00000  Uiso   1.00
N552   N     0.55003   0.89113   0.01025   0.00000  Uiso   1.00
C553   C     0.30187   0.30171   0.50835   0.00000  Uiso   1.00
C554   C     0.34676   0.30279   0.46860   0.00000  Uiso   1.00
C555   C     0.32909   0.25541   0.43331   0.00000  Uiso   1.00
C556   C     0.37726   0.26537   0.40019   0.00000  Uiso   1.00
C557   C     0.43728   0.25864   0.33813   0.00000  Uiso   1.00
C558   C     0.30157   0.36665   0.50446   0.00000  Uiso   1.00
C559   C     0.24590   0.37295   0.49931   0.00000  Uiso   1.00
C560   C     0.25604   0.43668   0.49639   0.00000  Uiso   1.00
C561   C     0.91257   0.86243   0.82336   0.00000  Uiso   1.00
C562   C     0.33744   0.30557   0.55469   0.00000  Uiso   1.00
C563   C     0.31194   0.26053   0.59180   0.00000  Uiso   1.00
C564   C     0.35228   0.27284   0.63117   0.00000  Uiso   1.00
C565   C     0.73117   0.93708   0.36948   0.00000  Uiso   1.00
C566   C     0.41884   0.40367   0.51230   0.00000  Uiso   1.00
C567   C     0.41029   0.35818   0.47075   0.00000  Uiso   1.00
C568   C     0.45850   0.36822   0.43768   0.00000  Uiso   1.00
C569   C     0.44091   0.32086   0.40234   0.00000  Uiso   1.00
C570   C     0.36510   0.42203   0.50660   0.00000  Uiso   1.00
C571   C     0.37532   0.48577   0.50369   0.00000  Uiso   1.00
C572   C     0.31969   0.49217   0.49854   0.00000  Uiso   1.00
C573   C     0.40098   0.36095   0.55684   0.00000  Uiso   1.00
C574   C     0.77469   0.04001   0.26284   0.00000  Uiso   1.00
C575   C     0.74926   0.99499   0.29999   0.00000  Uiso   1.00
H576   H     0.25241   0.25859   0.50668   0.00000  Uiso   1.00
H577   H     0.27991   0.21255   0.43165   0.00000  Uiso   1.00
H578   H     0.19674   0.33009   0.49766   0.00000  Uiso   1.00
H579   H     0.26277   0.21768   0.59012   0.00000  Uiso   1.00
H580   H     0.33842   0.18595   0.34941   0.00000  Uiso   1.00
H581   H     0.16305   0.43377   0.48860   0.00000  Uiso   1.00
H582   H     0.30228   0.19673   0.68359   0.00000  Uiso   1.00
H583   H     0.46831   0.44680   0.51397   0.00000  Uiso   1.00
H584   H     0.50767   0.41108   0.43935   0.00000  Uiso   1.00
H585   H     0.09116   0.86195   0.83869   0.00000  Uiso   1.00
H586   H     0.82385   0.08287   0.26448   0.00000  Uiso   1.00
H587   H     0.52327   0.34708   0.35566   0.00000  Uiso   1.00
H588   H     0.01457   0.92824   0.82818   0.00000  Uiso   1.00
H589   H     0.82047   0.02453   0.35650   0.00000  Uiso   1.00
O590   O     0.45283   0.23964   0.30331   0.00000  Uiso   1.00
O591   O     0.88942   0.89810   0.81926   0.00000  Uiso   1.00
O592   O     0.73876   0.92044   0.40840   0.00000  Uiso   1.00
N593   N     0.37653   0.22877   0.36113   0.00000  Uiso   1.00
N594   N     0.21257   0.46046   0.49126   0.00000  Uiso   1.00
N595   N     0.67607   0.90553   0.34022   0.00000  Uiso   1.00
N596   N     0.47600   0.31547   0.36449   0.00000  Uiso   1.00
N597   N     0.97870   0.88050   0.82795   0.00000  Uiso   1.00
N598   N     0.77553   0.99223   0.34358   0.00000  Uiso   1.00
C599   C     0.96854   0.63504   0.84168   0.00000  Uiso   1.00
C600   C     0.01342   0.63612   0.80193   0.00000  Uiso   1.00
C601   C     0.99576   0.58874   0.76664   0.00000  Uiso   1.00
C602   C     0.04393   0.59871   0.73352   0.00000  Uiso   1.00
C603   C     0.10395   0.59198   0.67147   0.00000  Uiso   1.00
C604   C     0.96824   0.69998   0.83779   0.00000  Uiso   1.00
C605   C     0.91257   0.70629   0.83265   0.00000  Uiso   1.00
C606   C     0.92270   0.77002   0.82972   0.00000  Uiso   1.00
C607   C     0.57923   0.19576   0.15670   0.00000  Uiso   1.00
C608   C     0.00411   0.63890   0.88803   0.00000  Uiso   1.00
C609   C     0.97861   0.59386   0.92513   0.00000  Uiso   1.00
C610   C     0.01894   0.60617   0.96451   0.00000  Uiso   1.00
C611   C     0.39784   0.27042   0.70282   0.00000  Uiso   1.00
C612   C     0.08551   0.73701   0.84563   0.00000  Uiso   1.00
C613   C     0.07696   0.69151   0.80408   0.00000  Uiso   1.00
C614   C     0.12517   0.70155   0.77101   0.00000  Uiso   1.00
C615   C     0.10758   0.65419   0.73568   0.00000  Uiso   1.00
C616   C     0.03177   0.75537   0.83994   0.00000  Uiso   1.00
C617   C     0.04199   0.81910   0.83702   0.00000  Uiso   1.00
C618   C     0.98635   0.82550   0.83187   0.00000  Uiso   1.00
C619   C     0.06765   0.69429   0.89017   0.00000  Uiso   1.00
C620   C     0.44136   0.37334   0.59617   0.00000  Uiso   1.00
C621   C     0.41592   0.32832   0.63332   0.00000  Uiso   1.00
H622   H     0.91907   0.59193   0.84001   0.00000  Uiso   1.00
H623   H     0.94658   0.54589   0.76499   0.00000  Uiso   1.00
H624   H     0.86341   0.66342   0.83099   0.00000  Uiso   1.00
H625   H     0.92944   0.55101   0.92346   0.00000  Uiso   1.00
H626   H     0.00509   0.51928   0.68275   0.00000  Uiso   1.00
H627   H     0.82972   0.76710   0.82194   0.00000  Uiso   1.00
H628   H     0.96895   0.53006   0.01692   0.00000  Uiso   1.00
H629   H     0.13497   0.78013   0.84731   0.00000  Uiso   1.00
H630   H     0.17433   0.74442   0.77268   0.00000  Uiso   1.00
H631   H     0.75783   0.19528   0.17202   0.00000  Uiso   1.00
H632   H     0.49052   0.41620   0.59782   0.00000  Uiso   1.00
H633   H     0.18994   0.68042   0.68899   0.00000  Uiso   1.00
H634   H     0.68123   0.26157   0.16152   0.00000  Uiso   1.00
H635   H     0.48714   0.35786   0.68983   0.00000  Uiso   1.00
O636   O     0.11950   0.57297   0.63664   0.00000  Uiso   1.00
O637   O     0.55609   0.23143   0.15259   0.00000  Uiso   1.00
O638   O     0.40543   0.25378   0.74174   0.00000  Uiso   1.00
N639   N     0.04320   0.56210   0.69446   0.00000  Uiso   1.00
N640   N     0.87923   0.79380   0.82459   0.00000  Uiso   1.00
N641   N     0.34273   0.23886   0.67355   0.00000  Uiso   1.00
N642   N     0.14266   0.64880   0.69783   0.00000  Uiso   1.00
N643   N     0.64537   0.21383   0.16128   0.00000  Uiso   1.00
N644   N     0.44220   0.32556   0.67692   0.00000  Uiso   1.00
C645   C     0.63521   0.96838   0.17501   0.00000  Uiso   1.00
C646   C     0.68009   0.96946   0.13527   0.00000  Uiso   1.00
C647   C     0.66242   0.92207   0.09997   0.00000  Uiso   1.00
C648   C     0.71059   0.93204   0.06686   0.00000  Uiso   1.00
C649   C     0.77061   0.92531   0.00480   0.00000  Uiso   1.00
C650   C     0.63490   0.03332   0.17112   0.00000  Uiso   1.00
C651   C     0.57924   0.03962   0.16598   0.00000  Uiso   1.00
C652   C     0.58937   0.10335   0.16305   0.00000  Uiso   1.00
C653   C     0.24590   0.52909   0.49003   0.00000  Uiso   1.00
C654   C     0.67078   0.97224   0.22136   0.00000  Uiso   1.00
C655   C     0.64527   0.92719   0.25846   0.00000  Uiso   1.00
C656   C     0.68561   0.93951   0.29784   0.00000  Uiso   1.00
C657   C     0.06451   0.60375   0.03615   0.00000  Uiso   1.00
C658   C     0.75218   0.07034   0.17897   0.00000  Uiso   1.00
C659   C     0.74362   0.02484   0.13742   0.00000  Uiso   1.00
C660   C     0.79184   0.03488   0.10435   0.00000  Uiso   1.00
C661   C     0.77424   0.98752   0.06901   0.00000  Uiso   1.00
C662   C     0.69843   0.08870   0.17327   0.00000  Uiso   1.00
C663   C     0.70865   0.15243   0.17035   0.00000  Uiso   1.00
C664   C     0.65302   0.15883   0.16521   0.00000  Uiso   1.00
C665   C     0.73431   0.02762   0.22351   0.00000  Uiso   1.00
C666   C     0.10802   0.70667   0.92950   0.00000  Uiso   1.00
C667   C     0.08259   0.66166   0.96666   0.00000  Uiso   1.00
H668   H     0.58574   0.92526   0.17334   0.00000  Uiso   1.00
H669   H     0.61325   0.87922   0.09832   0.00000  Uiso   1.00
H670   H     0.53008   0.99675   0.16432   0.00000  Uiso   1.00
H671   H     0.59611   0.88434   0.25679   0.00000  Uiso   1.00
H672   H     0.67175   0.85262   0.01608   0.00000  Uiso   1.00
H673   H     0.49638   0.10044   0.15527   0.00000  Uiso   1.00
H674   H     0.63562   0.86340   0.35025   0.00000  Uiso   1.00
H675   H     0.80164   0.11346   0.18064   0.00000  Uiso   1.00
H676   H     0.84100   0.07775   0.10602   0.00000  Uiso   1.00
H677   H     0.42449   0.52861   0.50535   0.00000  Uiso   1.00
H678   H     0.15719   0.74954   0.93115   0.00000  Uiso   1.00
H679   H     0.85660   0.01375   0.02233   0.00000  Uiso   1.00
H680   H     0.34790   0.59490   0.49485   0.00000  Uiso   1.00
H681   H     0.15380   0.69120   0.02316   0.00000  Uiso   1.00
O682   O     0.78617   0.90630   0.96997   0.00000  Uiso   1.00
O683   O     0.22275   0.56477   0.48593   0.00000  Uiso   1.00
O684   O     0.07209   0.58711   0.07507   0.00000  Uiso   1.00
N685   N     0.70986   0.89543   0.02780   0.00000  Uiso   1.00
N686   N     0.54590   0.12713   0.15792   0.00000  Uiso   1.00
N687   N     0.00940   0.57219   0.00689   0.00000  Uiso   1.00
N688   N     0.80933   0.98214   0.03116   0.00000  Uiso   1.00
N689   N     0.31203   0.54717   0.49462   0.00000  Uiso   1.00
N690   N     0.10887   0.65890   0.01025   0.00000  Uiso   1.00
C691   C     0.69829   0.00016   0.50835   0.00000  Uiso   1.00
C692   C     0.69721   0.04397   0.46860   0.00000  Uiso   1.00
C693   C     0.74459   0.07368   0.43331   0.00000  Uiso   1.00
C694   C     0.73463   0.11189   0.40019   0.00000  Uiso   1.00
C695   C     0.74136   0.17864   0.33813   0.00000  Uiso   1.00
C696   C     0.63335   0.93492   0.50446   0.00000  Uiso   1.00
C697   C     0.62705   0.87295   0.49931   0.00000  Uiso   1.00
C698   C     0.56332   0.81936   0.49639   0.00000  Uiso   1.00
C699   C     0.13757   0.05014   0.82336   0.00000  Uiso   1.00
C700   C     0.69443   0.03188   0.55469   0.00000  Uiso   1.00
C701   C     0.73947   0.05141   0.59180   0.00000  Uiso   1.00
C702   C     0.72716   0.07944   0.63117   0.00000  Uiso   1.00
C703   C     0.06292   0.79409   0.36948   0.00000  Uiso   1.00
C704   C     0.59633   0.01517   0.51230   0.00000  Uiso   1.00
C705   C     0.64182   0.05211   0.47075   0.00000  Uiso   1.00
C706   C     0.63178   0.09029   0.43768   0.00000  Uiso   1.00
C707   C     0.67914   0.12005   0.40234   0.00000  Uiso   1.00
C708   C     0.57797   0.94307   0.50660   0.00000  Uiso   1.00
C709   C     0.51423   0.88955   0.50369   0.00000  Uiso   1.00
C710   C     0.50783   0.82752   0.49854   0.00000  Uiso   1.00
C711   C     0.63905   0.04003   0.55684   0.00000  Uiso   1.00
C712   C     0.95999   0.73469   0.26284   0.00000  Uiso   1.00
C713   C     0.00501   0.75427   0.29999   0.00000  Uiso   1.00
H714   H     0.74141   0.99381   0.50668   0.00000  Uiso   1.00
H715   H     0.78745   0.06736   0.43165   0.00000  Uiso   1.00
H716   H     0.66991   0.86666   0.49766   0.00000  Uiso   1.00
H717   H     0.78232   0.04510   0.59012   0.00000  Uiso   1.00
H718   H     0.81405   0.15247   0.34941   0.00000  Uiso   1.00
H719   H     0.56623   0.72928   0.48860   0.00000  Uiso   1.00
H720   H     0.80327   0.10555   0.68359   0.00000  Uiso   1.00
H721   H     0.55320   0.02151   0.51397   0.00000  Uiso   1.00
H722   H     0.58892   0.09658   0.43935   0.00000  Uiso   1.00
H723   H     0.13805   0.22921   0.83869   0.00000  Uiso   1.00
H724   H     0.91713   0.74099   0.26448   0.00000  Uiso   1.00
H725   H     0.65292   0.17619   0.35566   0.00000  Uiso   1.00
H726   H     0.07176   0.08633   0.82818   0.00000  Uiso   1.00
H727   H     0.97547   0.79594   0.35650   0.00000  Uiso   1.00
O728   O     0.76036   0.21320   0.30331   0.00000  Uiso   1.00
O729   O     0.10190   0.99132   0.81926   0.00000  Uiso   1.00
O730   O     0.07956   0.81832   0.40840   0.00000  Uiso   1.00
N731   N     0.77123   0.14776   0.36113   0.00000  Uiso   1.00
N732   N     0.53954   0.75211   0.49126   0.00000  Uiso   1.00
N733   N     0.09447   0.77054   0.34022   0.00000  Uiso   1.00
N734   N     0.68453   0.16053   0.36449   0.00000  Uiso   1.00
N735   N     0.11950   0.09820   0.82795   0.00000  Uiso   1.00
N736   N     0.00777   0.78330   0.34358   0.00000  Uiso   1.00
C737   C     0.36496   0.33350   0.84168   0.00000  Uiso   1.00
C738   C     0.36388   0.37730   0.80193   0.00000  Uiso   1.00
C739   C     0.41126   0.40702   0.76664   0.00000  Uiso   1.00
C740   C     0.40129   0.44522   0.73352   0.00000  Uiso   1.00
C741   C     0.40802   0.51197   0.67147   0.00000  Uiso   1.00
C742   C     0.30002   0.26825   0.83779   0.00000  Uiso   1.00
C743   C     0.29371   0.20628   0.83265   0.00000  Uiso   1.00
C744   C     0.22998   0.15269   0.82972   0.00000  Uiso   1.00
C745   C     0.80424   0.38347   0.15670   0.00000  Uiso   1.00
C746   C     0.36110   0.36521   0.88803   0.00000  Uiso   1.00
C747   C     0.40614   0.38475   0.92513   0.00000  Uiso   1.00
C748   C     0.39383   0.41277   0.96451   0.00000  Uiso   1.00
C749   C     0.72958   0.12742   0.70282   0.00000  Uiso   1.00
C750   C     0.26299   0.34850   0.84563   0.00000  Uiso   1.00
C751   C     0.30849   0.38545   0.80408   0.00000  Uiso   1.00
C752   C     0.29845   0.42362   0.77101   0.00000  Uiso   1.00
C753   C     0.34581   0.45339   0.73568   0.00000  Uiso   1.00
C754   C     0.24463   0.27640   0.83994   0.00000  Uiso   1.00
C755   C     0.18090   0.22289   0.83702   0.00000  Uiso   1.00
C756   C     0.17450   0.16085   0.83187   0.00000  Uiso   1.00
C757   C     0.30571   0.37336   0.89017   0.00000  Uiso   1.00
C758   C     0.62666   0.06802   0.59617   0.00000  Uiso   1.00
C759   C     0.67168   0.08760   0.63332   0.00000  Uiso   1.00
H760   H     0.40807   0.32715   0.84001   0.00000  Uiso   1.00
H761   H     0.45411   0.40069   0.76499   0.00000  Uiso   1.00
H762   H     0.33658   0.19999   0.83099   0.00000  Uiso   1.00
H763   H     0.44899   0.37843   0.92346   0.00000  Uiso   1.00
H764   H     0.48072   0.48581   0.68275   0.00000  Uiso   1.00
H765   H     0.23290   0.06262   0.82194   0.00000  Uiso   1.00
H766   H     0.46994   0.43889   0.01692   0.00000  Uiso   1.00
H767   H     0.21987   0.35485   0.84731   0.00000  Uiso   1.00
H768   H     0.25558   0.42992   0.77268   0.00000  Uiso   1.00
H769   H     0.80472   0.56255   0.17202   0.00000  Uiso   1.00
H770   H     0.58380   0.07432   0.59782   0.00000  Uiso   1.00
H771   H     0.31958   0.50952   0.68899   0.00000  Uiso   1.00
H772   H     0.73843   0.41966   0.16152   0.00000  Uiso   1.00
H773   H     0.64214   0.12927   0.68983   0.00000  Uiso   1.00
O774   O     0.42703   0.54653   0.63664   0.00000  Uiso   1.00
O775   O     0.76857   0.32465   0.15259   0.00000  Uiso   1.00
O776   O     0.74622   0.15165   0.74174   0.00000  Uiso   1.00
N777   N     0.43790   0.48110   0.69446   0.00000  Uiso   1.00
N778   N     0.20620   0.08544   0.82459   0.00000  Uiso   1.00
N779   N     0.76114   0.10387   0.67355   0.00000  Uiso   1.00
N780   N     0.35120   0.49386   0.69783   0.00000  Uiso   1.00
N781   N     0.78617   0.43153   0.16128   0.00000  Uiso   1.00
N782   N     0.67444   0.11664   0.67692   0.00000  Uiso   1.00
C783   C     0.03162   0.66683   0.17501   0.00000  Uiso   1.00
C784   C     0.03054   0.71063   0.13527   0.00000  Uiso   1.00
C785   C     0.07793   0.74035   0.09997   0.00000  Uiso   1.00
C786   C     0.06796   0.77855   0.06686   0.00000  Uiso   1.00
C787   C     0.07469   0.84530   0.00480   0.00000  Uiso   1.00
C788   C     0.96668   0.60159   0.17112   0.00000  Uiso   1.00
C789   C     0.96038   0.53962   0.16598   0.00000  Uiso   1.00
C790   C     0.89665   0.48602   0.16305   0.00000  Uiso   1.00
C791   C     0.47091   0.71680   0.49003   0.00000  Uiso   1.00
C792   C     0.02776   0.69854   0.22136   0.00000  Uiso   1.00
C793   C     0.07281   0.71808   0.25846   0.00000  Uiso   1.00
C794   C     0.06049   0.74610   0.29784   0.00000  Uiso   1.00
C795   C     0.39625   0.46076   0.03615   0.00000  Uiso   1.00
C796   C     0.92966   0.68183   0.17897   0.00000  Uiso   1.00
C797   C     0.97516   0.71878   0.13742   0.00000  Uiso   1.00
C798   C     0.96512   0.75695   0.10435   0.00000  Uiso   1.00
C799   C     0.01248   0.78672   0.06901   0.00000  Uiso   1.00
C800   C     0.91130   0.60973   0.17327   0.00000  Uiso   1.00
C801   C     0.84757   0.55622   0.17035   0.00000  Uiso   1.00
C802   C     0.84117   0.49419   0.16521   0.00000  Uiso   1.00
C803   C     0.97238   0.70670   0.22351   0.00000  Uiso   1.00
C804   C     0.29333   0.40135   0.92950   0.00000  Uiso   1.00
C805   C     0.33834   0.42093   0.96666   0.00000  Uiso   1.00
H806   H     0.07474   0.66048   0.17334   0.00000  Uiso   1.00
H807   H     0.12078   0.73402   0.09832   0.00000  Uiso   1.00
H808   H     0.00325   0.53332   0.16432   0.00000  Uiso   1.00
H809   H     0.11566   0.71176   0.25679   0.00000  Uiso   1.00
H810   H     0.14738   0.81914   0.01608   0.00000  Uiso   1.00
H811   H     0.89956   0.39595   0.15527   0.00000  Uiso   1.00
H812   H     0.13660   0.77222   0.35025   0.00000  Uiso   1.00
H813   H     0.88654   0.68818   0.18064   0.00000  Uiso   1.00
H814   H     0.92225   0.76325   0.10602   0.00000  Uiso   1.00
H815   H     0.47139   0.89588   0.50535   0.00000  Uiso   1.00
H816   H     0.25046   0.40765   0.93115   0.00000  Uiso   1.00
H817   H     0.98625   0.84286   0.02233   0.00000  Uiso   1.00
H818   H     0.40510   0.75300   0.49485   0.00000  Uiso   1.00
H819   H     0.30880   0.46260   0.02316   0.00000  Uiso   1.00
O820   O     0.09370   0.87986   0.96997   0.00000  Uiso   1.00
O821   O     0.43523   0.65799   0.48593   0.00000  Uiso   1.00
O822   O     0.41289   0.48498   0.07507   0.00000  Uiso   1.00
N823   N     0.10457   0.81443   0.02780   0.00000  Uiso   1.00
N824   N     0.87287   0.41877   0.15792   0.00000  Uiso   1.00
N825   N     0.42781   0.43721   0.00689   0.00000  Uiso   1.00
N826   N     0.01786   0.82719   0.03116   0.00000  Uiso   1.00
N827   N     0.45283   0.76487   0.49462   0.00000  Uiso   1.00
N828   N     0.34110   0.44997   0.01025   0.00000  Uiso   1.00
