data_job_02737
_audit_creation_date              2018-12-19
_audit_creation_method            'Materials Studio'
_symmetry_space_group_name_H-M    'P1'
_symmetry_Int_Tables_number       1
_symmetry_cell_setting            triclinic
loop_
_symmetry_equiv_pos_as_xyz
  x,y,z
_cell_length_a                    14.7814
_cell_length_b                    43.7393
_cell_length_c                    22.0022
_cell_angle_alpha                 90.0000
_cell_angle_beta                  90.0000
_cell_angle_gamma                 90.0000
loop_
_atom_site_label
_atom_site_type_symbol
_atom_site_fract_x
_atom_site_fract_y
_atom_site_fract_z
_atom_site_U_iso_or_equiv
_atom_site_adp_type
_atom_site_occupancy
C1     C     0.65066   0.58469   0.68065   0.00000  Uiso   1.00
C2     C     0.55340   0.59323   0.69634   0.00000  Uiso   1.00
C3     C     0.47637   0.58139   0.66904   0.00000  Uiso   1.00
C4     C     0.39360   0.59215   0.68984   0.00000  Uiso   1.00
C5     C     0.24342   0.60211   0.70712   0.00000  Uiso   1.00
C6     C     0.69804   0.61456   0.66438   0.00000  Uiso   1.00
C7     C     0.74262   0.62065   0.61020   0.00000  Uiso   1.00
C8     C     0.78162   0.64936   0.60410   0.00000  Uiso   1.00
C9     C     0.85604   0.69242   0.57178   0.00000  Uiso   1.00
C10    C     0.69368   0.57381   0.73981   0.00000  Uiso   1.00
C11    C     0.73463   0.54564   0.74905   0.00000  Uiso   1.00
C12    C     0.76999   0.54005   0.80645   0.00000  Uiso   1.00
C13    C     0.83765   0.51984   0.89124   0.00000  Uiso   1.00
C14    C     0.64066   0.62486   0.76615   0.00000  Uiso   1.00
C15    C     0.54798   0.61505   0.74278   0.00000  Uiso   1.00
C16    C     0.46531   0.62584   0.76363   0.00000  Uiso   1.00
C17    C     0.38816   0.61401   0.73636   0.00000  Uiso   1.00
C18    C     0.69261   0.63638   0.71082   0.00000  Uiso   1.00
C19    C     0.73156   0.66509   0.70480   0.00000  Uiso   1.00
C20    C     0.77618   0.67122   0.65062   0.00000  Uiso   1.00
C21    C     0.68825   0.59563   0.78625   0.00000  Uiso   1.00
C22    C     0.72356   0.59008   0.84364   0.00000  Uiso   1.00
C23    C     0.76455   0.56191   0.85297   0.00000  Uiso   1.00
H24    H     0.65489   0.56771   0.64449   0.00000  Uiso   1.00
H25    H     0.48060   0.56451   0.63309   0.00000  Uiso   1.00
H26    H     0.74682   0.60376   0.57428   0.00000  Uiso   1.00
H27    H     0.73882   0.52876   0.71310   0.00000  Uiso   1.00
H28    H     0.28497   0.57059   0.64092   0.00000  Uiso   1.00
H29    H     0.84633   0.65335   0.51691   0.00000  Uiso   1.00
H30    H     0.82948   0.49520   0.80964   0.00000  Uiso   1.00
H31    H     0.63644   0.64185   0.80230   0.00000  Uiso   1.00
H32    H     0.46113   0.64272   0.79957   0.00000  Uiso   1.00
H33    H     0.72735   0.68197   0.74075   0.00000  Uiso   1.00
H34    H     0.71935   0.60697   0.87957   0.00000  Uiso   1.00
H35    H     0.26917   0.63407   0.77604   0.00000  Uiso   1.00
H36    H     0.83053   0.71683   0.65202   0.00000  Uiso   1.00
H37    H     0.81367   0.55868   0.94476   0.00000  Uiso   1.00
O38    O     0.16208   0.60158   0.70382   0.00000  Uiso   1.00
O39    O     0.89858   0.71015   0.54112   0.00000  Uiso   1.00
O40    O     0.87646   0.50266   0.92518   0.00000  Uiso   1.00
N41    N     0.30531   0.58541   0.67311   0.00000  Uiso   1.00
N42    N     0.83014   0.66279   0.55715   0.00000  Uiso   1.00
N43    N     0.81440   0.51493   0.83083   0.00000  Uiso   1.00
N44    N     0.29680   0.61957   0.74581   0.00000  Uiso   1.00
N45    N     0.82163   0.69694   0.62986   0.00000  Uiso   1.00
N46    N     0.80589   0.54909   0.90354   0.00000  Uiso   1.00
C47    C     0.65066   0.08469   0.18065   0.00000  Uiso   1.00
C48    C     0.55340   0.09323   0.19634   0.00000  Uiso   1.00
C49    C     0.47637   0.08139   0.16904   0.00000  Uiso   1.00
C50    C     0.39360   0.09215   0.18984   0.00000  Uiso   1.00
C51    C     0.24342   0.10211   0.20712   0.00000  Uiso   1.00
C52    C     0.69804   0.11456   0.16438   0.00000  Uiso   1.00
C53    C     0.74262   0.12065   0.11020   0.00000  Uiso   1.00
C54    C     0.78162   0.14936   0.10410   0.00000  Uiso   1.00
C55    C     0.85604   0.19242   0.07178   0.00000  Uiso   1.00
C56    C     0.69368   0.07381   0.23981   0.00000  Uiso   1.00
C57    C     0.73463   0.04564   0.24905   0.00000  Uiso   1.00
C58    C     0.76999   0.04005   0.30645   0.00000  Uiso   1.00
C59    C     0.83765   0.01984   0.39124   0.00000  Uiso   1.00
C60    C     0.64066   0.12486   0.26615   0.00000  Uiso   1.00
C61    C     0.54798   0.11505   0.24278   0.00000  Uiso   1.00
C62    C     0.46531   0.12584   0.26363   0.00000  Uiso   1.00
C63    C     0.38816   0.11401   0.23636   0.00000  Uiso   1.00
C64    C     0.69261   0.13638   0.21082   0.00000  Uiso   1.00
C65    C     0.73156   0.16509   0.20480   0.00000  Uiso   1.00
C66    C     0.77618   0.17122   0.15062   0.00000  Uiso   1.00
C67    C     0.68825   0.09563   0.28625   0.00000  Uiso   1.00
C68    C     0.72356   0.09008   0.34364   0.00000  Uiso   1.00
C69    C     0.76455   0.06191   0.35297   0.00000  Uiso   1.00
H70    H     0.65489   0.06771   0.14449   0.00000  Uiso   1.00
H71    H     0.48060   0.06451   0.13309   0.00000  Uiso   1.00
H72    H     0.74682   0.10376   0.07428   0.00000  Uiso   1.00
H73    H     0.73882   0.02876   0.21310   0.00000  Uiso   1.00
H74    H     0.28497   0.07059   0.14092   0.00000  Uiso   1.00
H75    H     0.84633   0.15335   0.01691   0.00000  Uiso   1.00
H76    H     0.82948   0.99520   0.30964   0.00000  Uiso   1.00
H77    H     0.63644   0.14185   0.30230   0.00000  Uiso   1.00
H78    H     0.46113   0.14272   0.29957   0.00000  Uiso   1.00
H79    H     0.72735   0.18197   0.24075   0.00000  Uiso   1.00
H80    H     0.71935   0.10697   0.37957   0.00000  Uiso   1.00
H81    H     0.26917   0.13407   0.27604   0.00000  Uiso   1.00
H82    H     0.83053   0.21683   0.15202   0.00000  Uiso   1.00
H83    H     0.81367   0.05868   0.44476   0.00000  Uiso   1.00
O84    O     0.16208   0.10158   0.20382   0.00000  Uiso   1.00
O85    O     0.89858   0.21015   0.04112   0.00000  Uiso   1.00
O86    O     0.87646   0.00266   0.42518   0.00000  Uiso   1.00
N87    N     0.30531   0.08541   0.17311   0.00000  Uiso   1.00
N88    N     0.83014   0.16279   0.05715   0.00000  Uiso   1.00
N89    N     0.81440   0.01493   0.33083   0.00000  Uiso   1.00
N90    N     0.29680   0.11957   0.24581   0.00000  Uiso   1.00
N91    N     0.82163   0.19694   0.12986   0.00000  Uiso   1.00
N92    N     0.80589   0.04909   0.40354   0.00000  Uiso   1.00
C93    C     0.15066   0.58469   0.18065   0.00000  Uiso   1.00
C94    C     0.05340   0.59323   0.19634   0.00000  Uiso   1.00
C95    C     0.97637   0.58139   0.16904   0.00000  Uiso   1.00
C96    C     0.89360   0.59215   0.18984   0.00000  Uiso   1.00
C97    C     0.74342   0.60211   0.20712   0.00000  Uiso   1.00
C98    C     0.19804   0.61456   0.16438   0.00000  Uiso   1.00
C99    C     0.24262   0.62065   0.11020   0.00000  Uiso   1.00
C100   C     0.28162   0.64936   0.10410   0.00000  Uiso   1.00
C101   C     0.35604   0.69242   0.07178   0.00000  Uiso   1.00
C102   C     0.19368   0.57381   0.23981   0.00000  Uiso   1.00
C103   C     0.23463   0.54564   0.24905   0.00000  Uiso   1.00
C104   C     0.26999   0.54005   0.30645   0.00000  Uiso   1.00
C105   C     0.33765   0.51984   0.39124   0.00000  Uiso   1.00
C106   C     0.14066   0.62486   0.26615   0.00000  Uiso   1.00
C107   C     0.04798   0.61505   0.24278   0.00000  Uiso   1.00
C108   C     0.96531   0.62584   0.26363   0.00000  Uiso   1.00
C109   C     0.88816   0.61401   0.23636   0.00000  Uiso   1.00
C110   C     0.19261   0.63638   0.21082   0.00000  Uiso   1.00
C111   C     0.23156   0.66509   0.20480   0.00000  Uiso   1.00
C112   C     0.27618   0.67122   0.15062   0.00000  Uiso   1.00
C113   C     0.18825   0.59563   0.28625   0.00000  Uiso   1.00
C114   C     0.22356   0.59008   0.34364   0.00000  Uiso   1.00
C115   C     0.26455   0.56191   0.35297   0.00000  Uiso   1.00
H116   H     0.15489   0.56771   0.14449   0.00000  Uiso   1.00
H117   H     0.98060   0.56451   0.13309   0.00000  Uiso   1.00
H118   H     0.24682   0.60376   0.07428   0.00000  Uiso   1.00
H119   H     0.23882   0.52876   0.21310   0.00000  Uiso   1.00
H120   H     0.78497   0.57059   0.14092   0.00000  Uiso   1.00
H121   H     0.34633   0.65335   0.01691   0.00000  Uiso   1.00
H122   H     0.32948   0.49520   0.30964   0.00000  Uiso   1.00
H123   H     0.13644   0.64185   0.30230   0.00000  Uiso   1.00
H124   H     0.96113   0.64272   0.29957   0.00000  Uiso   1.00
H125   H     0.22735   0.68197   0.24075   0.00000  Uiso   1.00
H126   H     0.21935   0.60697   0.37957   0.00000  Uiso   1.00
H127   H     0.76917   0.63407   0.27604   0.00000  Uiso   1.00
H128   H     0.33053   0.71683   0.15202   0.00000  Uiso   1.00
H129   H     0.31367   0.55868   0.44476   0.00000  Uiso   1.00
O130   O     0.66208   0.60158   0.20382   0.00000  Uiso   1.00
O131   O     0.39858   0.71015   0.04112   0.00000  Uiso   1.00
O132   O     0.37646   0.50266   0.42518   0.00000  Uiso   1.00
N133   N     0.80531   0.58541   0.17311   0.00000  Uiso   1.00
N134   N     0.33014   0.66279   0.05715   0.00000  Uiso   1.00
N135   N     0.31440   0.51493   0.33083   0.00000  Uiso   1.00
N136   N     0.79680   0.61957   0.24581   0.00000  Uiso   1.00
N137   N     0.32163   0.69694   0.12986   0.00000  Uiso   1.00
N138   N     0.30589   0.54909   0.40354   0.00000  Uiso   1.00
C139   C     0.15066   0.08469   0.68065   0.00000  Uiso   1.00
C140   C     0.05340   0.09323   0.69634   0.00000  Uiso   1.00
C141   C     0.97637   0.08139   0.66904   0.00000  Uiso   1.00
C142   C     0.89360   0.09215   0.68984   0.00000  Uiso   1.00
C143   C     0.74342   0.10211   0.70712   0.00000  Uiso   1.00
C144   C     0.19804   0.11456   0.66438   0.00000  Uiso   1.00
C145   C     0.24262   0.12065   0.61020   0.00000  Uiso   1.00
C146   C     0.28162   0.14936   0.60410   0.00000  Uiso   1.00
C147   C     0.35604   0.19242   0.57178   0.00000  Uiso   1.00
C148   C     0.19368   0.07381   0.73981   0.00000  Uiso   1.00
C149   C     0.23463   0.04564   0.74905   0.00000  Uiso   1.00
C150   C     0.26999   0.04005   0.80645   0.00000  Uiso   1.00
C151   C     0.33765   0.01984   0.89124   0.00000  Uiso   1.00
C152   C     0.14066   0.12486   0.76615   0.00000  Uiso   1.00
C153   C     0.04798   0.11505   0.74278   0.00000  Uiso   1.00
C154   C     0.96531   0.12584   0.76363   0.00000  Uiso   1.00
C155   C     0.88816   0.11401   0.73636   0.00000  Uiso   1.00
C156   C     0.19261   0.13638   0.71082   0.00000  Uiso   1.00
C157   C     0.23156   0.16509   0.70480   0.00000  Uiso   1.00
C158   C     0.27618   0.17122   0.65062   0.00000  Uiso   1.00
C159   C     0.18825   0.09563   0.78625   0.00000  Uiso   1.00
C160   C     0.22356   0.09008   0.84364   0.00000  Uiso   1.00
C161   C     0.26455   0.06191   0.85297   0.00000  Uiso   1.00
H162   H     0.15489   0.06771   0.64449   0.00000  Uiso   1.00
H163   H     0.98060   0.06451   0.63309   0.00000  Uiso   1.00
H164   H     0.24682   0.10376   0.57428   0.00000  Uiso   1.00
H165   H     0.23882   0.02876   0.71310   0.00000  Uiso   1.00
H166   H     0.78497   0.07059   0.64092   0.00000  Uiso   1.00
H167   H     0.34633   0.15335   0.51691   0.00000  Uiso   1.00
H168   H     0.32948   0.99520   0.80964   0.00000  Uiso   1.00
H169   H     0.13644   0.14185   0.80230   0.00000  Uiso   1.00
H170   H     0.96113   0.14272   0.79957   0.00000  Uiso   1.00
H171   H     0.22735   0.18197   0.74075   0.00000  Uiso   1.00
H172   H     0.21935   0.10697   0.87957   0.00000  Uiso   1.00
H173   H     0.76917   0.13407   0.77604   0.00000  Uiso   1.00
H174   H     0.33053   0.21683   0.65202   0.00000  Uiso   1.00
H175   H     0.31367   0.05868   0.94476   0.00000  Uiso   1.00
O176   O     0.66208   0.10158   0.70382   0.00000  Uiso   1.00
O177   O     0.39858   0.21015   0.54112   0.00000  Uiso   1.00
O178   O     0.37646   0.00266   0.92518   0.00000  Uiso   1.00
N179   N     0.80531   0.08541   0.67311   0.00000  Uiso   1.00
N180   N     0.33014   0.16279   0.55715   0.00000  Uiso   1.00
N181   N     0.31440   0.01493   0.83083   0.00000  Uiso   1.00
N182   N     0.79680   0.11957   0.74581   0.00000  Uiso   1.00
N183   N     0.32163   0.19694   0.62986   0.00000  Uiso   1.00
N184   N     0.30589   0.04909   0.90354   0.00000  Uiso   1.00
C185   C     0.34934   0.41531   0.68065   0.00000  Uiso   1.00
C186   C     0.44660   0.40677   0.69634   0.00000  Uiso   1.00
C187   C     0.52363   0.41861   0.66904   0.00000  Uiso   1.00
C188   C     0.60640   0.40785   0.68984   0.00000  Uiso   1.00
C189   C     0.75658   0.39789   0.70712   0.00000  Uiso   1.00
C190   C     0.30196   0.38544   0.66438   0.00000  Uiso   1.00
C191   C     0.25738   0.37935   0.61020   0.00000  Uiso   1.00
C192   C     0.21838   0.35064   0.60410   0.00000  Uiso   1.00
C193   C     0.14396   0.30758   0.57178   0.00000  Uiso   1.00
C194   C     0.30632   0.42619   0.73981   0.00000  Uiso   1.00
C195   C     0.26537   0.45436   0.74905   0.00000  Uiso   1.00
C196   C     0.23001   0.45995   0.80645   0.00000  Uiso   1.00
C197   C     0.16235   0.48016   0.89124   0.00000  Uiso   1.00
C198   C     0.35934   0.37514   0.76615   0.00000  Uiso   1.00
C199   C     0.45202   0.38495   0.74278   0.00000  Uiso   1.00
C200   C     0.53469   0.37416   0.76363   0.00000  Uiso   1.00
C201   C     0.61184   0.38599   0.73636   0.00000  Uiso   1.00
C202   C     0.30739   0.36362   0.71082   0.00000  Uiso   1.00
C203   C     0.26844   0.33491   0.70480   0.00000  Uiso   1.00
C204   C     0.22382   0.32878   0.65062   0.00000  Uiso   1.00
C205   C     0.31175   0.40437   0.78625   0.00000  Uiso   1.00
C206   C     0.27644   0.40992   0.84364   0.00000  Uiso   1.00
C207   C     0.23545   0.43809   0.85297   0.00000  Uiso   1.00
H208   H     0.34511   0.43229   0.64449   0.00000  Uiso   1.00
H209   H     0.51940   0.43549   0.63309   0.00000  Uiso   1.00
H210   H     0.25318   0.39624   0.57428   0.00000  Uiso   1.00
H211   H     0.26118   0.47124   0.71310   0.00000  Uiso   1.00
H212   H     0.71503   0.42941   0.64092   0.00000  Uiso   1.00
H213   H     0.15367   0.34665   0.51691   0.00000  Uiso   1.00
H214   H     0.17052   0.50480   0.80964   0.00000  Uiso   1.00
H215   H     0.36356   0.35815   0.80230   0.00000  Uiso   1.00
H216   H     0.53887   0.35728   0.79957   0.00000  Uiso   1.00
H217   H     0.27265   0.31803   0.74075   0.00000  Uiso   1.00
H218   H     0.28065   0.39303   0.87957   0.00000  Uiso   1.00
H219   H     0.73083   0.36593   0.77604   0.00000  Uiso   1.00
H220   H     0.16947   0.28317   0.65202   0.00000  Uiso   1.00
H221   H     0.18633   0.44132   0.94476   0.00000  Uiso   1.00
O222   O     0.83792   0.39842   0.70382   0.00000  Uiso   1.00
O223   O     0.10142   0.28985   0.54112   0.00000  Uiso   1.00
O224   O     0.12354   0.49734   0.92518   0.00000  Uiso   1.00
N225   N     0.69469   0.41459   0.67311   0.00000  Uiso   1.00
N226   N     0.16986   0.33721   0.55715   0.00000  Uiso   1.00
N227   N     0.18560   0.48507   0.83083   0.00000  Uiso   1.00
N228   N     0.70320   0.38043   0.74581   0.00000  Uiso   1.00
N229   N     0.17837   0.30306   0.62986   0.00000  Uiso   1.00
N230   N     0.19411   0.45091   0.90354   0.00000  Uiso   1.00
C231   C     0.34934   0.91531   0.18065   0.00000  Uiso   1.00
C232   C     0.44660   0.90677   0.19634   0.00000  Uiso   1.00
C233   C     0.52363   0.91861   0.16904   0.00000  Uiso   1.00
C234   C     0.60640   0.90785   0.18984   0.00000  Uiso   1.00
C235   C     0.75658   0.89789   0.20712   0.00000  Uiso   1.00
C236   C     0.30196   0.88544   0.16438   0.00000  Uiso   1.00
C237   C     0.25738   0.87935   0.11020   0.00000  Uiso   1.00
C238   C     0.21838   0.85064   0.10410   0.00000  Uiso   1.00
C239   C     0.14396   0.80758   0.07178   0.00000  Uiso   1.00
C240   C     0.30632   0.92619   0.23981   0.00000  Uiso   1.00
C241   C     0.26537   0.95436   0.24905   0.00000  Uiso   1.00
C242   C     0.23001   0.95995   0.30645   0.00000  Uiso   1.00
C243   C     0.16235   0.98016   0.39124   0.00000  Uiso   1.00
C244   C     0.35934   0.87514   0.26615   0.00000  Uiso   1.00
C245   C     0.45202   0.88495   0.24278   0.00000  Uiso   1.00
C246   C     0.53469   0.87416   0.26363   0.00000  Uiso   1.00
C247   C     0.61184   0.88599   0.23636   0.00000  Uiso   1.00
C248   C     0.30739   0.86362   0.21082   0.00000  Uiso   1.00
C249   C     0.26844   0.83491   0.20480   0.00000  Uiso   1.00
C250   C     0.22382   0.82878   0.15062   0.00000  Uiso   1.00
C251   C     0.31175   0.90437   0.28625   0.00000  Uiso   1.00
C252   C     0.27644   0.90992   0.34364   0.00000  Uiso   1.00
C253   C     0.23545   0.93809   0.35297   0.00000  Uiso   1.00
H254   H     0.34511   0.93229   0.14449   0.00000  Uiso   1.00
H255   H     0.51940   0.93549   0.13309   0.00000  Uiso   1.00
H256   H     0.25318   0.89624   0.07428   0.00000  Uiso   1.00
H257   H     0.26118   0.97124   0.21310   0.00000  Uiso   1.00
H258   H     0.71503   0.92941   0.14092   0.00000  Uiso   1.00
H259   H     0.15367   0.84665   0.01691   0.00000  Uiso   1.00
H260   H     0.17052   0.00480   0.30964   0.00000  Uiso   1.00
H261   H     0.36356   0.85815   0.30230   0.00000  Uiso   1.00
H262   H     0.53887   0.85728   0.29957   0.00000  Uiso   1.00
H263   H     0.27265   0.81803   0.24075   0.00000  Uiso   1.00
H264   H     0.28065   0.89303   0.37957   0.00000  Uiso   1.00
H265   H     0.73083   0.86593   0.27604   0.00000  Uiso   1.00
H266   H     0.16947   0.78317   0.15202   0.00000  Uiso   1.00
H267   H     0.18633   0.94132   0.44476   0.00000  Uiso   1.00
O268   O     0.83792   0.89842   0.20382   0.00000  Uiso   1.00
O269   O     0.10142   0.78985   0.04112   0.00000  Uiso   1.00
O270   O     0.12354   0.99734   0.42518   0.00000  Uiso   1.00
N271   N     0.69469   0.91459   0.17311   0.00000  Uiso   1.00
N272   N     0.16986   0.83721   0.05715   0.00000  Uiso   1.00
N273   N     0.18560   0.98507   0.33083   0.00000  Uiso   1.00
N274   N     0.70320   0.88043   0.24581   0.00000  Uiso   1.00
N275   N     0.17837   0.80306   0.12986   0.00000  Uiso   1.00
N276   N     0.19411   0.95091   0.40354   0.00000  Uiso   1.00
C277   C     0.84934   0.41531   0.18065   0.00000  Uiso   1.00
C278   C     0.94660   0.40677   0.19634   0.00000  Uiso   1.00
C279   C     0.02363   0.41861   0.16904   0.00000  Uiso   1.00
C280   C     0.10640   0.40785   0.18984   0.00000  Uiso   1.00
C281   C     0.25658   0.39789   0.20712   0.00000  Uiso   1.00
C282   C     0.80196   0.38544   0.16438   0.00000  Uiso   1.00
C283   C     0.75738   0.37935   0.11020   0.00000  Uiso   1.00
C284   C     0.71838   0.35064   0.10410   0.00000  Uiso   1.00
C285   C     0.64396   0.30758   0.07178   0.00000  Uiso   1.00
C286   C     0.80632   0.42619   0.23981   0.00000  Uiso   1.00
C287   C     0.76537   0.45436   0.24905   0.00000  Uiso   1.00
C288   C     0.73001   0.45995   0.30645   0.00000  Uiso   1.00
C289   C     0.66235   0.48016   0.39124   0.00000  Uiso   1.00
C290   C     0.85934   0.37514   0.26615   0.00000  Uiso   1.00
C291   C     0.95202   0.38495   0.24278   0.00000  Uiso   1.00
C292   C     0.03469   0.37416   0.26363   0.00000  Uiso   1.00
C293   C     0.11184   0.38599   0.23636   0.00000  Uiso   1.00
C294   C     0.80739   0.36362   0.21082   0.00000  Uiso   1.00
C295   C     0.76844   0.33491   0.20480   0.00000  Uiso   1.00
C296   C     0.72382   0.32878   0.15062   0.00000  Uiso   1.00
C297   C     0.81175   0.40437   0.28625   0.00000  Uiso   1.00
C298   C     0.77644   0.40992   0.34364   0.00000  Uiso   1.00
C299   C     0.73545   0.43809   0.35297   0.00000  Uiso   1.00
H300   H     0.84511   0.43229   0.14449   0.00000  Uiso   1.00
H301   H     0.01940   0.43549   0.13309   0.00000  Uiso   1.00
H302   H     0.75318   0.39624   0.07428   0.00000  Uiso   1.00
H303   H     0.76118   0.47124   0.21310   0.00000  Uiso   1.00
H304   H     0.21503   0.42941   0.14092   0.00000  Uiso   1.00
H305   H     0.65367   0.34665   0.01691   0.00000  Uiso   1.00
H306   H     0.67052   0.50480   0.30964   0.00000  Uiso   1.00
H307   H     0.86356   0.35815   0.30230   0.00000  Uiso   1.00
H308   H     0.03887   0.35728   0.29957   0.00000  Uiso   1.00
H309   H     0.77265   0.31803   0.24075   0.00000  Uiso   1.00
H310   H     0.78065   0.39303   0.37957   0.00000  Uiso   1.00
H311   H     0.23083   0.36593   0.27604   0.00000  Uiso   1.00
H312   H     0.66947   0.28317   0.15202   0.00000  Uiso   1.00
H313   H     0.68633   0.44132   0.44476   0.00000  Uiso   1.00
O314   O     0.33792   0.39842   0.20382   0.00000  Uiso   1.00
O315   O     0.60142   0.28985   0.04112   0.00000  Uiso   1.00
O316   O     0.62354   0.49734   0.42518   0.00000  Uiso   1.00
N317   N     0.19469   0.41459   0.17311   0.00000  Uiso   1.00
N318   N     0.66986   0.33721   0.05715   0.00000  Uiso   1.00
N319   N     0.68560   0.48507   0.33083   0.00000  Uiso   1.00
N320   N     0.20320   0.38043   0.24581   0.00000  Uiso   1.00
N321   N     0.67837   0.30306   0.12986   0.00000  Uiso   1.00
N322   N     0.69411   0.45091   0.40354   0.00000  Uiso   1.00
C323   C     0.84934   0.91531   0.68065   0.00000  Uiso   1.00
C324   C     0.94660   0.90677   0.69634   0.00000  Uiso   1.00
C325   C     0.02363   0.91861   0.66904   0.00000  Uiso   1.00
C326   C     0.10640   0.90785   0.68984   0.00000  Uiso   1.00
C327   C     0.25658   0.89789   0.70712   0.00000  Uiso   1.00
C328   C     0.80196   0.88544   0.66438   0.00000  Uiso   1.00
C329   C     0.75738   0.87935   0.61020   0.00000  Uiso   1.00
C330   C     0.71838   0.85064   0.60410   0.00000  Uiso   1.00
C331   C     0.64396   0.80758   0.57178   0.00000  Uiso   1.00
C332   C     0.80632   0.92619   0.73981   0.00000  Uiso   1.00
C333   C     0.76537   0.95436   0.74905   0.00000  Uiso   1.00
C334   C     0.73001   0.95995   0.80645   0.00000  Uiso   1.00
C335   C     0.66235   0.98016   0.89124   0.00000  Uiso   1.00
C336   C     0.85934   0.87514   0.76615   0.00000  Uiso   1.00
C337   C     0.95202   0.88495   0.74278   0.00000  Uiso   1.00
C338   C     0.03469   0.87416   0.76363   0.00000  Uiso   1.00
C339   C     0.11184   0.88599   0.73636   0.00000  Uiso   1.00
C340   C     0.80739   0.86362   0.71082   0.00000  Uiso   1.00
C341   C     0.76844   0.83491   0.70480   0.00000  Uiso   1.00
C342   C     0.72382   0.82878   0.65062   0.00000  Uiso   1.00
C343   C     0.81175   0.90437   0.78625   0.00000  Uiso   1.00
C344   C     0.77644   0.90992   0.84364   0.00000  Uiso   1.00
C345   C     0.73545   0.93809   0.85297   0.00000  Uiso   1.00
H346   H     0.84511   0.93229   0.64449   0.00000  Uiso   1.00
H347   H     0.01940   0.93549   0.63309   0.00000  Uiso   1.00
H348   H     0.75318   0.89624   0.57428   0.00000  Uiso   1.00
H349   H     0.76118   0.97124   0.71310   0.00000  Uiso   1.00
H350   H     0.21503   0.92941   0.64092   0.00000  Uiso   1.00
H351   H     0.65367   0.84665   0.51691   0.00000  Uiso   1.00
H352   H     0.67052   0.00480   0.80964   0.00000  Uiso   1.00
H353   H     0.86356   0.85815   0.80230   0.00000  Uiso   1.00
H354   H     0.03887   0.85728   0.79957   0.00000  Uiso   1.00
H355   H     0.77265   0.81803   0.74075   0.00000  Uiso   1.00
H356   H     0.78065   0.89303   0.87957   0.00000  Uiso   1.00
H357   H     0.23083   0.86593   0.77604   0.00000  Uiso   1.00
H358   H     0.66947   0.78317   0.65202   0.00000  Uiso   1.00
H359   H     0.68633   0.94132   0.94476   0.00000  Uiso   1.00
O360   O     0.33792   0.89842   0.70382   0.00000  Uiso   1.00
O361   O     0.60142   0.78985   0.54112   0.00000  Uiso   1.00
O362   O     0.62354   0.99734   0.92518   0.00000  Uiso   1.00
N363   N     0.19469   0.91459   0.67311   0.00000  Uiso   1.00
N364   N     0.66986   0.83721   0.55715   0.00000  Uiso   1.00
N365   N     0.68560   0.98507   0.83083   0.00000  Uiso   1.00
N366   N     0.20320   0.88043   0.74581   0.00000  Uiso   1.00
N367   N     0.67837   0.80306   0.62986   0.00000  Uiso   1.00
N368   N     0.69411   0.95091   0.90354   0.00000  Uiso   1.00
C369   C     0.90066   0.66531   0.93065   0.00000  Uiso   1.00
C370   C     0.80340   0.65677   0.94634   0.00000  Uiso   1.00
C371   C     0.72637   0.66861   0.91904   0.00000  Uiso   1.00
C372   C     0.64360   0.65785   0.93984   0.00000  Uiso   1.00
C373   C     0.49342   0.64789   0.95712   0.00000  Uiso   1.00
C374   C     0.94804   0.63544   0.91438   0.00000  Uiso   1.00
C375   C     0.99262   0.62935   0.86020   0.00000  Uiso   1.00
C376   C     0.03162   0.60064   0.85410   0.00000  Uiso   1.00
C377   C     0.10604   0.55758   0.82178   0.00000  Uiso   1.00
C378   C     0.94368   0.67619   0.98981   0.00000  Uiso   1.00
C379   C     0.98463   0.70436   0.99905   0.00000  Uiso   1.00
C380   C     0.01999   0.70995   0.05645   0.00000  Uiso   1.00
C381   C     0.08765   0.73016   0.14124   0.00000  Uiso   1.00
C382   C     0.89066   0.62514   0.01615   0.00000  Uiso   1.00
C383   C     0.79798   0.63495   0.99278   0.00000  Uiso   1.00
C384   C     0.71531   0.62416   0.01363   0.00000  Uiso   1.00
C385   C     0.63816   0.63599   0.98636   0.00000  Uiso   1.00
C386   C     0.94261   0.61362   0.96082   0.00000  Uiso   1.00
C387   C     0.98156   0.58491   0.95480   0.00000  Uiso   1.00
C388   C     0.02618   0.57878   0.90062   0.00000  Uiso   1.00
C389   C     0.93825   0.65437   0.03625   0.00000  Uiso   1.00
C390   C     0.97356   0.65992   0.09364   0.00000  Uiso   1.00
C391   C     0.01455   0.68809   0.10297   0.00000  Uiso   1.00
H392   H     0.90489   0.68229   0.89449   0.00000  Uiso   1.00
H393   H     0.73060   0.68549   0.88309   0.00000  Uiso   1.00
H394   H     0.99682   0.64624   0.82428   0.00000  Uiso   1.00
H395   H     0.98882   0.72124   0.96310   0.00000  Uiso   1.00
H396   H     0.53497   0.67941   0.89092   0.00000  Uiso   1.00
H397   H     0.09633   0.59665   0.76691   0.00000  Uiso   1.00
H398   H     0.07948   0.75480   0.05964   0.00000  Uiso   1.00
H399   H     0.88644   0.60815   0.05230   0.00000  Uiso   1.00
H400   H     0.71113   0.60728   0.04957   0.00000  Uiso   1.00
H401   H     0.97735   0.56803   0.99075   0.00000  Uiso   1.00
H402   H     0.96935   0.64303   0.12957   0.00000  Uiso   1.00
H403   H     0.51917   0.61593   0.02604   0.00000  Uiso   1.00
H404   H     0.08053   0.53317   0.90202   0.00000  Uiso   1.00
H405   H     0.06367   0.69132   0.19476   0.00000  Uiso   1.00
O406   O     0.41208   0.64842   0.95382   0.00000  Uiso   1.00
O407   O     0.14858   0.53985   0.79112   0.00000  Uiso   1.00
O408   O     0.12646   0.74734   0.17518   0.00000  Uiso   1.00
N409   N     0.55531   0.66459   0.92311   0.00000  Uiso   1.00
N410   N     0.08014   0.58721   0.80715   0.00000  Uiso   1.00
N411   N     0.06440   0.73507   0.08083   0.00000  Uiso   1.00
N412   N     0.54680   0.63043   0.99581   0.00000  Uiso   1.00
N413   N     0.07163   0.55306   0.87986   0.00000  Uiso   1.00
N414   N     0.05589   0.70091   0.15354   0.00000  Uiso   1.00
C415   C     0.90066   0.16531   0.43065   0.00000  Uiso   1.00
C416   C     0.80340   0.15677   0.44634   0.00000  Uiso   1.00
C417   C     0.72637   0.16861   0.41904   0.00000  Uiso   1.00
C418   C     0.64360   0.15785   0.43984   0.00000  Uiso   1.00
C419   C     0.49342   0.14789   0.45712   0.00000  Uiso   1.00
C420   C     0.94804   0.13544   0.41438   0.00000  Uiso   1.00
C421   C     0.99262   0.12935   0.36020   0.00000  Uiso   1.00
C422   C     0.03162   0.10064   0.35410   0.00000  Uiso   1.00
C423   C     0.10604   0.05758   0.32178   0.00000  Uiso   1.00
C424   C     0.94368   0.17619   0.48981   0.00000  Uiso   1.00
C425   C     0.98463   0.20436   0.49905   0.00000  Uiso   1.00
C426   C     0.01999   0.20995   0.55645   0.00000  Uiso   1.00
C427   C     0.08765   0.23016   0.64124   0.00000  Uiso   1.00
C428   C     0.89066   0.12514   0.51615   0.00000  Uiso   1.00
C429   C     0.79798   0.13495   0.49278   0.00000  Uiso   1.00
C430   C     0.71531   0.12416   0.51363   0.00000  Uiso   1.00
C431   C     0.63816   0.13599   0.48636   0.00000  Uiso   1.00
C432   C     0.94261   0.11362   0.46082   0.00000  Uiso   1.00
C433   C     0.98156   0.08491   0.45480   0.00000  Uiso   1.00
C434   C     0.02618   0.07878   0.40062   0.00000  Uiso   1.00
C435   C     0.93825   0.15437   0.53625   0.00000  Uiso   1.00
C436   C     0.97356   0.15992   0.59364   0.00000  Uiso   1.00
C437   C     0.01455   0.18809   0.60297   0.00000  Uiso   1.00
H438   H     0.90489   0.18229   0.39449   0.00000  Uiso   1.00
H439   H     0.73060   0.18549   0.38309   0.00000  Uiso   1.00
H440   H     0.99682   0.14624   0.32428   0.00000  Uiso   1.00
H441   H     0.98882   0.22124   0.46310   0.00000  Uiso   1.00
H442   H     0.53497   0.17941   0.39092   0.00000  Uiso   1.00
H443   H     0.09633   0.09665   0.26691   0.00000  Uiso   1.00
H444   H     0.07948   0.25480   0.55964   0.00000  Uiso   1.00
H445   H     0.88644   0.10815   0.55230   0.00000  Uiso   1.00
H446   H     0.71113   0.10728   0.54957   0.00000  Uiso   1.00
H447   H     0.97735   0.06803   0.49075   0.00000  Uiso   1.00
H448   H     0.96935   0.14303   0.62957   0.00000  Uiso   1.00
H449   H     0.51917   0.11593   0.52604   0.00000  Uiso   1.00
H450   H     0.08053   0.03317   0.40202   0.00000  Uiso   1.00
H451   H     0.06367   0.19132   0.69476   0.00000  Uiso   1.00
O452   O     0.41208   0.14842   0.45382   0.00000  Uiso   1.00
O453   O     0.14858   0.03985   0.29112   0.00000  Uiso   1.00
O454   O     0.12646   0.24734   0.67518   0.00000  Uiso   1.00
N455   N     0.55531   0.16459   0.42311   0.00000  Uiso   1.00
N456   N     0.08014   0.08721   0.30715   0.00000  Uiso   1.00
N457   N     0.06440   0.23507   0.58083   0.00000  Uiso   1.00
N458   N     0.54680   0.13043   0.49581   0.00000  Uiso   1.00
N459   N     0.07163   0.05306   0.37986   0.00000  Uiso   1.00
N460   N     0.05589   0.20091   0.65354   0.00000  Uiso   1.00
C461   C     0.40066   0.66531   0.43065   0.00000  Uiso   1.00
C462   C     0.30340   0.65677   0.44634   0.00000  Uiso   1.00
C463   C     0.22637   0.66861   0.41904   0.00000  Uiso   1.00
C464   C     0.14360   0.65785   0.43984   0.00000  Uiso   1.00
C465   C     0.99342   0.64789   0.45712   0.00000  Uiso   1.00
C466   C     0.44804   0.63544   0.41438   0.00000  Uiso   1.00
C467   C     0.49262   0.62935   0.36020   0.00000  Uiso   1.00
C468   C     0.53162   0.60064   0.35410   0.00000  Uiso   1.00
C469   C     0.60604   0.55758   0.32178   0.00000  Uiso   1.00
C470   C     0.44368   0.67619   0.48981   0.00000  Uiso   1.00
C471   C     0.48463   0.70436   0.49905   0.00000  Uiso   1.00
C472   C     0.51999   0.70995   0.55645   0.00000  Uiso   1.00
C473   C     0.58765   0.73016   0.64124   0.00000  Uiso   1.00
C474   C     0.39066   0.62514   0.51615   0.00000  Uiso   1.00
C475   C     0.29798   0.63495   0.49278   0.00000  Uiso   1.00
C476   C     0.21531   0.62416   0.51363   0.00000  Uiso   1.00
C477   C     0.13816   0.63599   0.48636   0.00000  Uiso   1.00
C478   C     0.44261   0.61362   0.46082   0.00000  Uiso   1.00
C479   C     0.48156   0.58491   0.45480   0.00000  Uiso   1.00
C480   C     0.52618   0.57878   0.40062   0.00000  Uiso   1.00
C481   C     0.43825   0.65437   0.53625   0.00000  Uiso   1.00
C482   C     0.47356   0.65992   0.59364   0.00000  Uiso   1.00
C483   C     0.51455   0.68809   0.60297   0.00000  Uiso   1.00
H484   H     0.40489   0.68229   0.39449   0.00000  Uiso   1.00
H485   H     0.23060   0.68549   0.38309   0.00000  Uiso   1.00
H486   H     0.49682   0.64624   0.32428   0.00000  Uiso   1.00
H487   H     0.48882   0.72124   0.46310   0.00000  Uiso   1.00
H488   H     0.03497   0.67941   0.39092   0.00000  Uiso   1.00
H489   H     0.59633   0.59665   0.26691   0.00000  Uiso   1.00
H490   H     0.57948   0.75480   0.55964   0.00000  Uiso   1.00
H491   H     0.38644   0.60815   0.55230   0.00000  Uiso   1.00
H492   H     0.21113   0.60728   0.54957   0.00000  Uiso   1.00
H493   H     0.47735   0.56803   0.49075   0.00000  Uiso   1.00
H494   H     0.46935   0.64303   0.62957   0.00000  Uiso   1.00
H495   H     0.01917   0.61593   0.52604   0.00000  Uiso   1.00
H496   H     0.58053   0.53317   0.40202   0.00000  Uiso   1.00
H497   H     0.56367   0.69132   0.69476   0.00000  Uiso   1.00
O498   O     0.91208   0.64842   0.45382   0.00000  Uiso   1.00
O499   O     0.64858   0.53985   0.29112   0.00000  Uiso   1.00
O500   O     0.62646   0.74734   0.67518   0.00000  Uiso   1.00
N501   N     0.05531   0.66459   0.42311   0.00000  Uiso   1.00
N502   N     0.58014   0.58721   0.30715   0.00000  Uiso   1.00
N503   N     0.56440   0.73507   0.58083   0.00000  Uiso   1.00
N504   N     0.04680   0.63043   0.49581   0.00000  Uiso   1.00
N505   N     0.57163   0.55306   0.37986   0.00000  Uiso   1.00
N506   N     0.55589   0.70091   0.65354   0.00000  Uiso   1.00
C507   C     0.40066   0.16531   0.93065   0.00000  Uiso   1.00
C508   C     0.30340   0.15677   0.94634   0.00000  Uiso   1.00
C509   C     0.22637   0.16861   0.91904   0.00000  Uiso   1.00
C510   C     0.14360   0.15785   0.93984   0.00000  Uiso   1.00
C511   C     0.99342   0.14789   0.95712   0.00000  Uiso   1.00
C512   C     0.44804   0.13544   0.91438   0.00000  Uiso   1.00
C513   C     0.49262   0.12935   0.86020   0.00000  Uiso   1.00
C514   C     0.53162   0.10064   0.85410   0.00000  Uiso   1.00
C515   C     0.60604   0.05758   0.82178   0.00000  Uiso   1.00
C516   C     0.44368   0.17619   0.98981   0.00000  Uiso   1.00
C517   C     0.48463   0.20436   0.99905   0.00000  Uiso   1.00
C518   C     0.51999   0.20995   0.05645   0.00000  Uiso   1.00
C519   C     0.58765   0.23016   0.14124   0.00000  Uiso   1.00
C520   C     0.39066   0.12514   0.01615   0.00000  Uiso   1.00
C521   C     0.29798   0.13495   0.99278   0.00000  Uiso   1.00
C522   C     0.21531   0.12416   0.01363   0.00000  Uiso   1.00
C523   C     0.13816   0.13599   0.98636   0.00000  Uiso   1.00
C524   C     0.44261   0.11362   0.96082   0.00000  Uiso   1.00
C525   C     0.48156   0.08491   0.95480   0.00000  Uiso   1.00
C526   C     0.52618   0.07878   0.90062   0.00000  Uiso   1.00
C527   C     0.43825   0.15437   0.03625   0.00000  Uiso   1.00
C528   C     0.47356   0.15992   0.09364   0.00000  Uiso   1.00
C529   C     0.51455   0.18809   0.10297   0.00000  Uiso   1.00
H530   H     0.40489   0.18229   0.89449   0.00000  Uiso   1.00
H531   H     0.23060   0.18549   0.88309   0.00000  Uiso   1.00
H532   H     0.49682   0.14624   0.82428   0.00000  Uiso   1.00
H533   H     0.48882   0.22124   0.96310   0.00000  Uiso   1.00
H534   H     0.03497   0.17941   0.89092   0.00000  Uiso   1.00
H535   H     0.59633   0.09665   0.76691   0.00000  Uiso   1.00
H536   H     0.57948   0.25480   0.05964   0.00000  Uiso   1.00
H537   H     0.38644   0.10815   0.05230   0.00000  Uiso   1.00
H538   H     0.21113   0.10728   0.04957   0.00000  Uiso   1.00
H539   H     0.47735   0.06803   0.99075   0.00000  Uiso   1.00
H540   H     0.46935   0.14303   0.12957   0.00000  Uiso   1.00
H541   H     0.01917   0.11593   0.02604   0.00000  Uiso   1.00
H542   H     0.58053   0.03317   0.90202   0.00000  Uiso   1.00
H543   H     0.56367   0.19132   0.19476   0.00000  Uiso   1.00
O544   O     0.91208   0.14842   0.95382   0.00000  Uiso   1.00
O545   O     0.64858   0.03985   0.79112   0.00000  Uiso   1.00
O546   O     0.62646   0.24734   0.17518   0.00000  Uiso   1.00
N547   N     0.05531   0.16459   0.92311   0.00000  Uiso   1.00
N548   N     0.58014   0.08721   0.80715   0.00000  Uiso   1.00
N549   N     0.56440   0.23507   0.08083   0.00000  Uiso   1.00
N550   N     0.04680   0.13043   0.99581   0.00000  Uiso   1.00
N551   N     0.57163   0.05306   0.87986   0.00000  Uiso   1.00
N552   N     0.55589   0.20091   0.15354   0.00000  Uiso   1.00
C553   C     0.59934   0.83469   0.93065   0.00000  Uiso   1.00
C554   C     0.69660   0.84323   0.94634   0.00000  Uiso   1.00
C555   C     0.77363   0.83139   0.91904   0.00000  Uiso   1.00
C556   C     0.85640   0.84215   0.93984   0.00000  Uiso   1.00
C557   C     0.00658   0.85211   0.95712   0.00000  Uiso   1.00
C558   C     0.55196   0.86456   0.91438   0.00000  Uiso   1.00
C559   C     0.50738   0.87065   0.86020   0.00000  Uiso   1.00
C560   C     0.46838   0.89936   0.85410   0.00000  Uiso   1.00
C561   C     0.39396   0.94242   0.82178   0.00000  Uiso   1.00
C562   C     0.55632   0.82381   0.98981   0.00000  Uiso   1.00
C563   C     0.51537   0.79564   0.99905   0.00000  Uiso   1.00
C564   C     0.48001   0.79005   0.05645   0.00000  Uiso   1.00
C565   C     0.41235   0.76984   0.14124   0.00000  Uiso   1.00
C566   C     0.60934   0.87486   0.01615   0.00000  Uiso   1.00
C567   C     0.70202   0.86505   0.99278   0.00000  Uiso   1.00
C568   C     0.78469   0.87584   0.01363   0.00000  Uiso   1.00
C569   C     0.86184   0.86401   0.98636   0.00000  Uiso   1.00
C570   C     0.55739   0.88638   0.96082   0.00000  Uiso   1.00
C571   C     0.51844   0.91509   0.95480   0.00000  Uiso   1.00
C572   C     0.47382   0.92122   0.90062   0.00000  Uiso   1.00
C573   C     0.56175   0.84563   0.03625   0.00000  Uiso   1.00
C574   C     0.52644   0.84008   0.09364   0.00000  Uiso   1.00
C575   C     0.48545   0.81191   0.10297   0.00000  Uiso   1.00
H576   H     0.59511   0.81771   0.89449   0.00000  Uiso   1.00
H577   H     0.76940   0.81451   0.88309   0.00000  Uiso   1.00
H578   H     0.50318   0.85376   0.82428   0.00000  Uiso   1.00
H579   H     0.51118   0.77876   0.96310   0.00000  Uiso   1.00
H580   H     0.96503   0.82059   0.89092   0.00000  Uiso   1.00
H581   H     0.40367   0.90335   0.76691   0.00000  Uiso   1.00
H582   H     0.42052   0.74520   0.05964   0.00000  Uiso   1.00
H583   H     0.61356   0.89185   0.05230   0.00000  Uiso   1.00
H584   H     0.78887   0.89272   0.04957   0.00000  Uiso   1.00
H585   H     0.52265   0.93197   0.99075   0.00000  Uiso   1.00
H586   H     0.53065   0.85697   0.12957   0.00000  Uiso   1.00
H587   H     0.98083   0.88407   0.02604   0.00000  Uiso   1.00
H588   H     0.41947   0.96683   0.90202   0.00000  Uiso   1.00
H589   H     0.43633   0.80868   0.19476   0.00000  Uiso   1.00
O590   O     0.08792   0.85158   0.95382   0.00000  Uiso   1.00
O591   O     0.35142   0.96015   0.79112   0.00000  Uiso   1.00
O592   O     0.37354   0.75266   0.17518   0.00000  Uiso   1.00
N593   N     0.94469   0.83541   0.92311   0.00000  Uiso   1.00
N594   N     0.41986   0.91279   0.80715   0.00000  Uiso   1.00
N595   N     0.43560   0.76493   0.08083   0.00000  Uiso   1.00
N596   N     0.95320   0.86957   0.99581   0.00000  Uiso   1.00
N597   N     0.42837   0.94694   0.87986   0.00000  Uiso   1.00
N598   N     0.44411   0.79909   0.15354   0.00000  Uiso   1.00
C599   C     0.59934   0.33469   0.43065   0.00000  Uiso   1.00
C600   C     0.69660   0.34323   0.44634   0.00000  Uiso   1.00
C601   C     0.77363   0.33139   0.41904   0.00000  Uiso   1.00
C602   C     0.85640   0.34215   0.43984   0.00000  Uiso   1.00
C603   C     0.00658   0.35211   0.45712   0.00000  Uiso   1.00
C604   C     0.55196   0.36456   0.41438   0.00000  Uiso   1.00
C605   C     0.50738   0.37065   0.36020   0.00000  Uiso   1.00
C606   C     0.46838   0.39936   0.35410   0.00000  Uiso   1.00
C607   C     0.39396   0.44242   0.32178   0.00000  Uiso   1.00
C608   C     0.55632   0.32381   0.48981   0.00000  Uiso   1.00
C609   C     0.51537   0.29564   0.49905   0.00000  Uiso   1.00
C610   C     0.48001   0.29005   0.55645   0.00000  Uiso   1.00
C611   C     0.41235   0.26984   0.64124   0.00000  Uiso   1.00
C612   C     0.60934   0.37486   0.51615   0.00000  Uiso   1.00
C613   C     0.70202   0.36505   0.49278   0.00000  Uiso   1.00
C614   C     0.78469   0.37584   0.51363   0.00000  Uiso   1.00
C615   C     0.86184   0.36401   0.48636   0.00000  Uiso   1.00
C616   C     0.55739   0.38638   0.46082   0.00000  Uiso   1.00
C617   C     0.51844   0.41509   0.45480   0.00000  Uiso   1.00
C618   C     0.47382   0.42122   0.40062   0.00000  Uiso   1.00
C619   C     0.56175   0.34563   0.53625   0.00000  Uiso   1.00
C620   C     0.52644   0.34008   0.59364   0.00000  Uiso   1.00
C621   C     0.48545   0.31191   0.60297   0.00000  Uiso   1.00
H622   H     0.59511   0.31771   0.39449   0.00000  Uiso   1.00
H623   H     0.76940   0.31451   0.38309   0.00000  Uiso   1.00
H624   H     0.50318   0.35376   0.32428   0.00000  Uiso   1.00
H625   H     0.51118   0.27876   0.46310   0.00000  Uiso   1.00
H626   H     0.96503   0.32059   0.39092   0.00000  Uiso   1.00
H627   H     0.40367   0.40335   0.26691   0.00000  Uiso   1.00
H628   H     0.42052   0.24520   0.55964   0.00000  Uiso   1.00
H629   H     0.61356   0.39185   0.55230   0.00000  Uiso   1.00
H630   H     0.78887   0.39272   0.54957   0.00000  Uiso   1.00
H631   H     0.52265   0.43197   0.49075   0.00000  Uiso   1.00
H632   H     0.53065   0.35697   0.62957   0.00000  Uiso   1.00
H633   H     0.98083   0.38407   0.52604   0.00000  Uiso   1.00
H634   H     0.41947   0.46683   0.40202   0.00000  Uiso   1.00
H635   H     0.43633   0.30868   0.69476   0.00000  Uiso   1.00
O636   O     0.08792   0.35158   0.45382   0.00000  Uiso   1.00
O637   O     0.35142   0.46015   0.29112   0.00000  Uiso   1.00
O638   O     0.37354   0.25266   0.67518   0.00000  Uiso   1.00
N639   N     0.94469   0.33541   0.42311   0.00000  Uiso   1.00
N640   N     0.41986   0.41279   0.30715   0.00000  Uiso   1.00
N641   N     0.43560   0.26493   0.58083   0.00000  Uiso   1.00
N642   N     0.95320   0.36957   0.49581   0.00000  Uiso   1.00
N643   N     0.42837   0.44694   0.37986   0.00000  Uiso   1.00
N644   N     0.44411   0.29909   0.65354   0.00000  Uiso   1.00
C645   C     0.09934   0.83469   0.43065   0.00000  Uiso   1.00
C646   C     0.19660   0.84323   0.44634   0.00000  Uiso   1.00
C647   C     0.27363   0.83139   0.41904   0.00000  Uiso   1.00
C648   C     0.35640   0.84215   0.43984   0.00000  Uiso   1.00
C649   C     0.50658   0.85211   0.45712   0.00000  Uiso   1.00
C650   C     0.05196   0.86456   0.41438   0.00000  Uiso   1.00
C651   C     0.00738   0.87065   0.36020   0.00000  Uiso   1.00
C652   C     0.96838   0.89936   0.35410   0.00000  Uiso   1.00
C653   C     0.89396   0.94242   0.32178   0.00000  Uiso   1.00
C654   C     0.05632   0.82381   0.48981   0.00000  Uiso   1.00
C655   C     0.01537   0.79564   0.49905   0.00000  Uiso   1.00
C656   C     0.98001   0.79005   0.55645   0.00000  Uiso   1.00
C657   C     0.91235   0.76984   0.64124   0.00000  Uiso   1.00
C658   C     0.10934   0.87486   0.51615   0.00000  Uiso   1.00
C659   C     0.20202   0.86505   0.49278   0.00000  Uiso   1.00
C660   C     0.28469   0.87584   0.51363   0.00000  Uiso   1.00
C661   C     0.36184   0.86401   0.48636   0.00000  Uiso   1.00
C662   C     0.05739   0.88638   0.46082   0.00000  Uiso   1.00
C663   C     0.01844   0.91509   0.45480   0.00000  Uiso   1.00
C664   C     0.97382   0.92122   0.40062   0.00000  Uiso   1.00
C665   C     0.06175   0.84563   0.53625   0.00000  Uiso   1.00
C666   C     0.02644   0.84008   0.59364   0.00000  Uiso   1.00
C667   C     0.98545   0.81191   0.60297   0.00000  Uiso   1.00
H668   H     0.09511   0.81771   0.39449   0.00000  Uiso   1.00
H669   H     0.26940   0.81451   0.38309   0.00000  Uiso   1.00
H670   H     0.00318   0.85376   0.32428   0.00000  Uiso   1.00
H671   H     0.01118   0.77876   0.46310   0.00000  Uiso   1.00
H672   H     0.46503   0.82059   0.39092   0.00000  Uiso   1.00
H673   H     0.90367   0.90335   0.26691   0.00000  Uiso   1.00
H674   H     0.92052   0.74520   0.55964   0.00000  Uiso   1.00
H675   H     0.11356   0.89185   0.55230   0.00000  Uiso   1.00
H676   H     0.28887   0.89272   0.54957   0.00000  Uiso   1.00
H677   H     0.02265   0.93197   0.49075   0.00000  Uiso   1.00
H678   H     0.03065   0.85697   0.62957   0.00000  Uiso   1.00
H679   H     0.48083   0.88407   0.52604   0.00000  Uiso   1.00
H680   H     0.91947   0.96683   0.40202   0.00000  Uiso   1.00
H681   H     0.93633   0.80868   0.69476   0.00000  Uiso   1.00
O682   O     0.58792   0.85158   0.45382   0.00000  Uiso   1.00
O683   O     0.85142   0.96015   0.29112   0.00000  Uiso   1.00
O684   O     0.87354   0.75266   0.67518   0.00000  Uiso   1.00
N685   N     0.44469   0.83541   0.42311   0.00000  Uiso   1.00
N686   N     0.91986   0.91279   0.30715   0.00000  Uiso   1.00
N687   N     0.93560   0.76493   0.58083   0.00000  Uiso   1.00
N688   N     0.45320   0.86957   0.49581   0.00000  Uiso   1.00
N689   N     0.92837   0.94694   0.37986   0.00000  Uiso   1.00
N690   N     0.94411   0.79909   0.65354   0.00000  Uiso   1.00
C691   C     0.09934   0.33469   0.93065   0.00000  Uiso   1.00
C692   C     0.19660   0.34323   0.94634   0.00000  Uiso   1.00
C693   C     0.27363   0.33139   0.91904   0.00000  Uiso   1.00
C694   C     0.35640   0.34215   0.93984   0.00000  Uiso   1.00
C695   C     0.50658   0.35211   0.95712   0.00000  Uiso   1.00
C696   C     0.05196   0.36456   0.91438   0.00000  Uiso   1.00
C697   C     0.00738   0.37065   0.86020   0.00000  Uiso   1.00
C698   C     0.96838   0.39936   0.85410   0.00000  Uiso   1.00
C699   C     0.89396   0.44242   0.82178   0.00000  Uiso   1.00
C700   C     0.05632   0.32381   0.98981   0.00000  Uiso   1.00
C701   C     0.01537   0.29564   0.99905   0.00000  Uiso   1.00
C702   C     0.98001   0.29005   0.05645   0.00000  Uiso   1.00
C703   C     0.91235   0.26984   0.14124   0.00000  Uiso   1.00
C704   C     0.10934   0.37486   0.01615   0.00000  Uiso   1.00
C705   C     0.20202   0.36505   0.99278   0.00000  Uiso   1.00
C706   C     0.28469   0.37584   0.01363   0.00000  Uiso   1.00
C707   C     0.36184   0.36401   0.98636   0.00000  Uiso   1.00
C708   C     0.05739   0.38638   0.96082   0.00000  Uiso   1.00
C709   C     0.01844   0.41509   0.95480   0.00000  Uiso   1.00
C710   C     0.97382   0.42122   0.90062   0.00000  Uiso   1.00
C711   C     0.06175   0.34563   0.03625   0.00000  Uiso   1.00
C712   C     0.02644   0.34008   0.09364   0.00000  Uiso   1.00
C713   C     0.98545   0.31191   0.10297   0.00000  Uiso   1.00
H714   H     0.09511   0.31771   0.89449   0.00000  Uiso   1.00
H715   H     0.26940   0.31451   0.88309   0.00000  Uiso   1.00
H716   H     0.00318   0.35376   0.82428   0.00000  Uiso   1.00
H717   H     0.01118   0.27876   0.96310   0.00000  Uiso   1.00
H718   H     0.46503   0.32059   0.89092   0.00000  Uiso   1.00
H719   H     0.90367   0.40335   0.76691   0.00000  Uiso   1.00
H720   H     0.92052   0.24520   0.05964   0.00000  Uiso   1.00
H721   H     0.11356   0.39185   0.05230   0.00000  Uiso   1.00
H722   H     0.28887   0.39272   0.04957   0.00000  Uiso   1.00
H723   H     0.02265   0.43197   0.99075   0.00000  Uiso   1.00
H724   H     0.03065   0.35697   0.12957   0.00000  Uiso   1.00
H725   H     0.48083   0.38407   0.02604   0.00000  Uiso   1.00
H726   H     0.91947   0.46683   0.90202   0.00000  Uiso   1.00
H727   H     0.93633   0.30868   0.19476   0.00000  Uiso   1.00
O728   O     0.58792   0.35158   0.95382   0.00000  Uiso   1.00
O729   O     0.85142   0.46015   0.79112   0.00000  Uiso   1.00
O730   O     0.87354   0.25266   0.17518   0.00000  Uiso   1.00
N731   N     0.44469   0.33541   0.92311   0.00000  Uiso   1.00
N732   N     0.91986   0.41279   0.80715   0.00000  Uiso   1.00
N733   N     0.93560   0.26493   0.08083   0.00000  Uiso   1.00
N734   N     0.45320   0.36957   0.99581   0.00000  Uiso   1.00
N735   N     0.92837   0.44694   0.87986   0.00000  Uiso   1.00
N736   N     0.94411   0.29909   0.15354   0.00000  Uiso   1.00
