data_job_05576
_audit_creation_date              2018-12-19
_audit_creation_method            'Materials Studio'
_symmetry_space_group_name_H-M    'P1'
_symmetry_Int_Tables_number       1
_symmetry_cell_setting            triclinic
loop_
_symmetry_equiv_pos_as_xyz
  x,y,z
_cell_length_a                    26.5197
_cell_length_b                    22.4336
_cell_length_c                    23.5150
_cell_angle_alpha                 90.0000
_cell_angle_beta                  90.0000
_cell_angle_gamma                 90.0000
loop_
_atom_site_label
_atom_site_type_symbol
_atom_site_fract_x
_atom_site_fract_y
_atom_site_fract_z
_atom_site_U_iso_or_equiv
_atom_site_adp_type
_atom_site_occupancy
C1     C     0.12029   0.40758   0.20974   0.00000  Uiso   1.00
C2     C     0.13571   0.36481   0.25705   0.00000  Uiso   1.00
C3     C     0.14872   0.38087   0.31212   0.00000  Uiso   1.00
C4     C     0.16169   0.33511   0.34908   0.00000  Uiso   1.00
C5     C     0.18566   0.27778   0.42520   0.00000  Uiso   1.00
C6     C     0.15650   0.39593   0.16060   0.00000  Uiso   1.00
C7     C     0.18699   0.43817   0.13458   0.00000  Uiso   1.00
C8     C     0.21747   0.41861   0.09034   0.00000  Uiso   1.00
C9     C     0.27369   0.40962   0.01670   0.00000  Uiso   1.00
C10    C     0.06861   0.38672   0.18944   0.00000  Uiso   1.00
C11    C     0.02520   0.42122   0.18764   0.00000  Uiso   1.00
C12    C     0.98168   0.39391   0.16766   0.00000  Uiso   1.00
C13    C     0.90144   0.37061   0.13879   0.00000  Uiso   1.00
C14    C     0.12020   0.29774   0.17745   0.00000  Uiso   1.00
C15    C     0.13566   0.30515   0.23951   0.00000  Uiso   1.00
C16    C     0.14862   0.25935   0.27640   0.00000  Uiso   1.00
C17    C     0.16164   0.27535   0.33151   0.00000  Uiso   1.00
C18    C     0.15645   0.33628   0.14306   0.00000  Uiso   1.00
C19    C     0.18689   0.31665   0.09885   0.00000  Uiso   1.00
C20    C     0.21742   0.35885   0.07277   0.00000  Uiso   1.00
C21    C     0.06856   0.32706   0.17190   0.00000  Uiso   1.00
C22    C     0.02510   0.29970   0.15192   0.00000  Uiso   1.00
C23    C     0.98163   0.33415   0.15009   0.00000  Uiso   1.00
H24    H     0.12033   0.45402   0.22339   0.00000  Uiso   1.00
H25    H     0.14875   0.42705   0.32567   0.00000  Uiso   1.00
H26    H     0.18701   0.48434   0.14815   0.00000  Uiso   1.00
H27    H     0.02525   0.46738   0.20121   0.00000  Uiso   1.00
H28    H     0.18026   0.37083   0.43134   0.00000  Uiso   1.00
H29    H     0.26092   0.49163   0.05701   0.00000  Uiso   1.00
H30    H     0.91982   0.45589   0.16889   0.00000  Uiso   1.00
H31    H     0.12016   0.25130   0.16379   0.00000  Uiso   1.00
H32    H     0.14858   0.21319   0.26281   0.00000  Uiso   1.00
H33    H     0.18684   0.27048   0.08529   0.00000  Uiso   1.00
H34    H     0.02508   0.25353   0.13835   0.00000  Uiso   1.00
H35    H     0.18012   0.19726   0.38032   0.00000  Uiso   1.00
H36    H     0.26078   0.31807   0.00599   0.00000  Uiso   1.00
H37    H     0.91968   0.28232   0.11787   0.00000  Uiso   1.00
O38    O     0.19890   0.26264   0.47203   0.00000  Uiso   1.00
O39    O     0.30472   0.42113   0.98093   0.00000  Uiso   1.00
O40    O     0.85720   0.37424   0.12772   0.00000  Uiso   1.00
N41    N     0.17632   0.33521   0.40574   0.00000  Uiso   1.00
N42    N     0.25174   0.44815   0.05578   0.00000  Uiso   1.00
N43    N     0.93284   0.41474   0.16036   0.00000  Uiso   1.00
N44    N     0.17624   0.24181   0.37829   0.00000  Uiso   1.00
N45    N     0.25166   0.35475   0.02832   0.00000  Uiso   1.00
N46    N     0.93276   0.32134   0.13291   0.00000  Uiso   1.00
C47    C     0.62029   0.90758   0.20974   0.00000  Uiso   1.00
C48    C     0.63571   0.86481   0.25705   0.00000  Uiso   1.00
C49    C     0.64872   0.88087   0.31212   0.00000  Uiso   1.00
C50    C     0.66169   0.83511   0.34908   0.00000  Uiso   1.00
C51    C     0.68566   0.77778   0.42520   0.00000  Uiso   1.00
C52    C     0.65650   0.89593   0.16060   0.00000  Uiso   1.00
C53    C     0.68699   0.93817   0.13458   0.00000  Uiso   1.00
C54    C     0.71747   0.91861   0.09034   0.00000  Uiso   1.00
C55    C     0.77369   0.90962   0.01670   0.00000  Uiso   1.00
C56    C     0.56861   0.88672   0.18944   0.00000  Uiso   1.00
C57    C     0.52520   0.92122   0.18764   0.00000  Uiso   1.00
C58    C     0.48168   0.89391   0.16766   0.00000  Uiso   1.00
C59    C     0.40144   0.87061   0.13879   0.00000  Uiso   1.00
C60    C     0.62020   0.79774   0.17745   0.00000  Uiso   1.00
C61    C     0.63566   0.80515   0.23951   0.00000  Uiso   1.00
C62    C     0.64862   0.75935   0.27640   0.00000  Uiso   1.00
C63    C     0.66164   0.77535   0.33151   0.00000  Uiso   1.00
C64    C     0.65645   0.83628   0.14306   0.00000  Uiso   1.00
C65    C     0.68689   0.81665   0.09885   0.00000  Uiso   1.00
C66    C     0.71742   0.85885   0.07277   0.00000  Uiso   1.00
C67    C     0.56856   0.82706   0.17190   0.00000  Uiso   1.00
C68    C     0.52510   0.79970   0.15192   0.00000  Uiso   1.00
C69    C     0.48163   0.83415   0.15009   0.00000  Uiso   1.00
H70    H     0.62033   0.95402   0.22339   0.00000  Uiso   1.00
H71    H     0.64875   0.92705   0.32567   0.00000  Uiso   1.00
H72    H     0.68701   0.98434   0.14815   0.00000  Uiso   1.00
H73    H     0.52525   0.96738   0.20121   0.00000  Uiso   1.00
H74    H     0.68026   0.87083   0.43134   0.00000  Uiso   1.00
H75    H     0.76092   0.99163   0.05701   0.00000  Uiso   1.00
H76    H     0.41982   0.95589   0.16889   0.00000  Uiso   1.00
H77    H     0.62016   0.75130   0.16379   0.00000  Uiso   1.00
H78    H     0.64858   0.71319   0.26281   0.00000  Uiso   1.00
H79    H     0.68684   0.77048   0.08529   0.00000  Uiso   1.00
H80    H     0.52508   0.75353   0.13835   0.00000  Uiso   1.00
H81    H     0.68012   0.69726   0.38032   0.00000  Uiso   1.00
H82    H     0.76078   0.81807   0.00599   0.00000  Uiso   1.00
H83    H     0.41968   0.78232   0.11787   0.00000  Uiso   1.00
O84    O     0.69890   0.76264   0.47203   0.00000  Uiso   1.00
O85    O     0.80472   0.92113   0.98093   0.00000  Uiso   1.00
O86    O     0.35720   0.87424   0.12772   0.00000  Uiso   1.00
N87    N     0.67632   0.83521   0.40574   0.00000  Uiso   1.00
N88    N     0.75174   0.94815   0.05578   0.00000  Uiso   1.00
N89    N     0.43284   0.91474   0.16036   0.00000  Uiso   1.00
N90    N     0.67624   0.74181   0.37829   0.00000  Uiso   1.00
N91    N     0.75166   0.85475   0.02832   0.00000  Uiso   1.00
N92    N     0.43276   0.82134   0.13291   0.00000  Uiso   1.00
C93    C     0.37971   0.09242   0.20974   0.00000  Uiso   1.00
C94    C     0.36429   0.13519   0.25705   0.00000  Uiso   1.00
C95    C     0.35128   0.11913   0.31212   0.00000  Uiso   1.00
C96    C     0.33831   0.16489   0.34908   0.00000  Uiso   1.00
C97    C     0.31434   0.22222   0.42520   0.00000  Uiso   1.00
C98    C     0.34350   0.10407   0.16060   0.00000  Uiso   1.00
C99    C     0.31301   0.06183   0.13458   0.00000  Uiso   1.00
C100   C     0.28253   0.08139   0.09034   0.00000  Uiso   1.00
C101   C     0.22631   0.09038   0.01670   0.00000  Uiso   1.00
C102   C     0.43139   0.11328   0.18944   0.00000  Uiso   1.00
C103   C     0.47480   0.07878   0.18764   0.00000  Uiso   1.00
C104   C     0.51832   0.10609   0.16766   0.00000  Uiso   1.00
C105   C     0.59856   0.12939   0.13879   0.00000  Uiso   1.00
C106   C     0.37980   0.20226   0.17745   0.00000  Uiso   1.00
C107   C     0.36434   0.19485   0.23951   0.00000  Uiso   1.00
C108   C     0.35138   0.24065   0.27640   0.00000  Uiso   1.00
C109   C     0.33836   0.22465   0.33151   0.00000  Uiso   1.00
C110   C     0.34355   0.16372   0.14306   0.00000  Uiso   1.00
C111   C     0.31311   0.18335   0.09885   0.00000  Uiso   1.00
C112   C     0.28258   0.14115   0.07277   0.00000  Uiso   1.00
C113   C     0.43144   0.17294   0.17190   0.00000  Uiso   1.00
C114   C     0.47490   0.20030   0.15192   0.00000  Uiso   1.00
C115   C     0.51837   0.16585   0.15009   0.00000  Uiso   1.00
H116   H     0.37967   0.04598   0.22339   0.00000  Uiso   1.00
H117   H     0.35125   0.07295   0.32567   0.00000  Uiso   1.00
H118   H     0.31299   0.01566   0.14815   0.00000  Uiso   1.00
H119   H     0.47475   0.03262   0.20121   0.00000  Uiso   1.00
H120   H     0.31974   0.12917   0.43134   0.00000  Uiso   1.00
H121   H     0.23908   0.00837   0.05701   0.00000  Uiso   1.00
H122   H     0.58018   0.04411   0.16889   0.00000  Uiso   1.00
H123   H     0.37984   0.24870   0.16379   0.00000  Uiso   1.00
H124   H     0.35142   0.28681   0.26281   0.00000  Uiso   1.00
H125   H     0.31316   0.22952   0.08529   0.00000  Uiso   1.00
H126   H     0.47492   0.24647   0.13835   0.00000  Uiso   1.00
H127   H     0.31988   0.30274   0.38032   0.00000  Uiso   1.00
H128   H     0.23922   0.18193   0.00599   0.00000  Uiso   1.00
H129   H     0.58032   0.21768   0.11787   0.00000  Uiso   1.00
O130   O     0.30110   0.23736   0.47203   0.00000  Uiso   1.00
O131   O     0.19528   0.07887   0.98093   0.00000  Uiso   1.00
O132   O     0.64280   0.12576   0.12772   0.00000  Uiso   1.00
N133   N     0.32368   0.16479   0.40574   0.00000  Uiso   1.00
N134   N     0.24826   0.05185   0.05578   0.00000  Uiso   1.00
N135   N     0.56716   0.08526   0.16036   0.00000  Uiso   1.00
N136   N     0.32376   0.25819   0.37829   0.00000  Uiso   1.00
N137   N     0.24834   0.14525   0.02832   0.00000  Uiso   1.00
N138   N     0.56724   0.17866   0.13291   0.00000  Uiso   1.00
C139   C     0.87971   0.59242   0.20974   0.00000  Uiso   1.00
C140   C     0.86429   0.63519   0.25705   0.00000  Uiso   1.00
C141   C     0.85128   0.61913   0.31212   0.00000  Uiso   1.00
C142   C     0.83831   0.66489   0.34908   0.00000  Uiso   1.00
C143   C     0.81434   0.72222   0.42520   0.00000  Uiso   1.00
C144   C     0.84350   0.60407   0.16060   0.00000  Uiso   1.00
C145   C     0.81301   0.56183   0.13458   0.00000  Uiso   1.00
C146   C     0.78253   0.58139   0.09034   0.00000  Uiso   1.00
C147   C     0.72631   0.59038   0.01670   0.00000  Uiso   1.00
C148   C     0.93139   0.61328   0.18944   0.00000  Uiso   1.00
C149   C     0.97480   0.57878   0.18764   0.00000  Uiso   1.00
C150   C     0.01832   0.60609   0.16766   0.00000  Uiso   1.00
C151   C     0.09856   0.62939   0.13879   0.00000  Uiso   1.00
C152   C     0.87980   0.70226   0.17745   0.00000  Uiso   1.00
C153   C     0.86434   0.69485   0.23951   0.00000  Uiso   1.00
C154   C     0.85138   0.74065   0.27640   0.00000  Uiso   1.00
C155   C     0.83836   0.72465   0.33151   0.00000  Uiso   1.00
C156   C     0.84355   0.66372   0.14306   0.00000  Uiso   1.00
C157   C     0.81311   0.68335   0.09885   0.00000  Uiso   1.00
C158   C     0.78258   0.64115   0.07277   0.00000  Uiso   1.00
C159   C     0.93144   0.67294   0.17190   0.00000  Uiso   1.00
C160   C     0.97490   0.70030   0.15192   0.00000  Uiso   1.00
C161   C     0.01837   0.66585   0.15009   0.00000  Uiso   1.00
H162   H     0.87967   0.54598   0.22339   0.00000  Uiso   1.00
H163   H     0.85125   0.57295   0.32567   0.00000  Uiso   1.00
H164   H     0.81299   0.51566   0.14815   0.00000  Uiso   1.00
H165   H     0.97475   0.53262   0.20121   0.00000  Uiso   1.00
H166   H     0.81974   0.62917   0.43134   0.00000  Uiso   1.00
H167   H     0.73908   0.50837   0.05701   0.00000  Uiso   1.00
H168   H     0.08018   0.54411   0.16889   0.00000  Uiso   1.00
H169   H     0.87984   0.74870   0.16379   0.00000  Uiso   1.00
H170   H     0.85142   0.78681   0.26281   0.00000  Uiso   1.00
H171   H     0.81316   0.72952   0.08529   0.00000  Uiso   1.00
H172   H     0.97492   0.74647   0.13835   0.00000  Uiso   1.00
H173   H     0.81988   0.80274   0.38032   0.00000  Uiso   1.00
H174   H     0.73922   0.68193   0.00599   0.00000  Uiso   1.00
H175   H     0.08032   0.71768   0.11787   0.00000  Uiso   1.00
O176   O     0.80110   0.73736   0.47203   0.00000  Uiso   1.00
O177   O     0.69528   0.57887   0.98093   0.00000  Uiso   1.00
O178   O     0.14280   0.62576   0.12772   0.00000  Uiso   1.00
N179   N     0.82368   0.66479   0.40574   0.00000  Uiso   1.00
N180   N     0.74826   0.55185   0.05578   0.00000  Uiso   1.00
N181   N     0.06716   0.58526   0.16036   0.00000  Uiso   1.00
N182   N     0.82376   0.75819   0.37829   0.00000  Uiso   1.00
N183   N     0.74834   0.64525   0.02832   0.00000  Uiso   1.00
N184   N     0.06724   0.67866   0.13291   0.00000  Uiso   1.00
C185   C     0.87971   0.40758   0.79026   0.00000  Uiso   1.00
C186   C     0.86429   0.36481   0.74295   0.00000  Uiso   1.00
C187   C     0.85128   0.38087   0.68788   0.00000  Uiso   1.00
C188   C     0.83831   0.33511   0.65092   0.00000  Uiso   1.00
C189   C     0.81434   0.27778   0.57480   0.00000  Uiso   1.00
C190   C     0.84350   0.39593   0.83940   0.00000  Uiso   1.00
C191   C     0.81301   0.43817   0.86542   0.00000  Uiso   1.00
C192   C     0.78253   0.41861   0.90966   0.00000  Uiso   1.00
C193   C     0.72631   0.40962   0.98330   0.00000  Uiso   1.00
C194   C     0.93139   0.38672   0.81056   0.00000  Uiso   1.00
C195   C     0.97480   0.42122   0.81236   0.00000  Uiso   1.00
C196   C     0.01832   0.39391   0.83234   0.00000  Uiso   1.00
C197   C     0.09856   0.37061   0.86121   0.00000  Uiso   1.00
C198   C     0.87980   0.29774   0.82255   0.00000  Uiso   1.00
C199   C     0.86434   0.30515   0.76049   0.00000  Uiso   1.00
C200   C     0.85138   0.25935   0.72360   0.00000  Uiso   1.00
C201   C     0.83836   0.27535   0.66849   0.00000  Uiso   1.00
C202   C     0.84355   0.33628   0.85694   0.00000  Uiso   1.00
C203   C     0.81311   0.31665   0.90115   0.00000  Uiso   1.00
C204   C     0.78258   0.35885   0.92723   0.00000  Uiso   1.00
C205   C     0.93144   0.32706   0.82810   0.00000  Uiso   1.00
C206   C     0.97490   0.29970   0.84808   0.00000  Uiso   1.00
C207   C     0.01837   0.33415   0.84991   0.00000  Uiso   1.00
H208   H     0.87967   0.45402   0.77661   0.00000  Uiso   1.00
H209   H     0.85125   0.42705   0.67433   0.00000  Uiso   1.00
H210   H     0.81299   0.48434   0.85185   0.00000  Uiso   1.00
H211   H     0.97475   0.46738   0.79879   0.00000  Uiso   1.00
H212   H     0.81974   0.37083   0.56866   0.00000  Uiso   1.00
H213   H     0.73908   0.49163   0.94299   0.00000  Uiso   1.00
H214   H     0.08018   0.45589   0.83111   0.00000  Uiso   1.00
H215   H     0.87984   0.25130   0.83621   0.00000  Uiso   1.00
H216   H     0.85142   0.21319   0.73719   0.00000  Uiso   1.00
H217   H     0.81316   0.27048   0.91471   0.00000  Uiso   1.00
H218   H     0.97492   0.25353   0.86165   0.00000  Uiso   1.00
H219   H     0.81988   0.19726   0.61968   0.00000  Uiso   1.00
H220   H     0.73922   0.31807   0.99401   0.00000  Uiso   1.00
H221   H     0.08032   0.28232   0.88213   0.00000  Uiso   1.00
O222   O     0.80110   0.26264   0.52797   0.00000  Uiso   1.00
O223   O     0.69528   0.42113   0.01907   0.00000  Uiso   1.00
O224   O     0.14280   0.37424   0.87228   0.00000  Uiso   1.00
N225   N     0.82368   0.33521   0.59426   0.00000  Uiso   1.00
N226   N     0.74826   0.44815   0.94422   0.00000  Uiso   1.00
N227   N     0.06716   0.41474   0.83964   0.00000  Uiso   1.00
N228   N     0.82376   0.24181   0.62171   0.00000  Uiso   1.00
N229   N     0.74834   0.35475   0.97168   0.00000  Uiso   1.00
N230   N     0.06724   0.32134   0.86709   0.00000  Uiso   1.00
C231   C     0.37971   0.90758   0.79026   0.00000  Uiso   1.00
C232   C     0.36429   0.86481   0.74295   0.00000  Uiso   1.00
C233   C     0.35128   0.88087   0.68788   0.00000  Uiso   1.00
C234   C     0.33831   0.83511   0.65092   0.00000  Uiso   1.00
C235   C     0.31434   0.77778   0.57480   0.00000  Uiso   1.00
C236   C     0.34350   0.89593   0.83940   0.00000  Uiso   1.00
C237   C     0.31301   0.93817   0.86542   0.00000  Uiso   1.00
C238   C     0.28253   0.91861   0.90966   0.00000  Uiso   1.00
C239   C     0.22631   0.90962   0.98330   0.00000  Uiso   1.00
C240   C     0.43139   0.88672   0.81056   0.00000  Uiso   1.00
C241   C     0.47480   0.92122   0.81236   0.00000  Uiso   1.00
C242   C     0.51832   0.89391   0.83234   0.00000  Uiso   1.00
C243   C     0.59856   0.87061   0.86121   0.00000  Uiso   1.00
C244   C     0.37980   0.79774   0.82255   0.00000  Uiso   1.00
C245   C     0.36434   0.80515   0.76049   0.00000  Uiso   1.00
C246   C     0.35138   0.75935   0.72360   0.00000  Uiso   1.00
C247   C     0.33836   0.77535   0.66849   0.00000  Uiso   1.00
C248   C     0.34355   0.83628   0.85694   0.00000  Uiso   1.00
C249   C     0.31311   0.81665   0.90115   0.00000  Uiso   1.00
C250   C     0.28258   0.85885   0.92723   0.00000  Uiso   1.00
C251   C     0.43144   0.82706   0.82810   0.00000  Uiso   1.00
C252   C     0.47490   0.79970   0.84808   0.00000  Uiso   1.00
C253   C     0.51837   0.83415   0.84991   0.00000  Uiso   1.00
H254   H     0.37967   0.95402   0.77661   0.00000  Uiso   1.00
H255   H     0.35125   0.92705   0.67433   0.00000  Uiso   1.00
H256   H     0.31299   0.98434   0.85185   0.00000  Uiso   1.00
H257   H     0.47475   0.96738   0.79879   0.00000  Uiso   1.00
H258   H     0.31974   0.87083   0.56866   0.00000  Uiso   1.00
H259   H     0.23908   0.99163   0.94299   0.00000  Uiso   1.00
H260   H     0.58018   0.95589   0.83111   0.00000  Uiso   1.00
H261   H     0.37984   0.75130   0.83621   0.00000  Uiso   1.00
H262   H     0.35142   0.71319   0.73719   0.00000  Uiso   1.00
H263   H     0.31316   0.77048   0.91471   0.00000  Uiso   1.00
H264   H     0.47492   0.75353   0.86165   0.00000  Uiso   1.00
H265   H     0.31988   0.69726   0.61968   0.00000  Uiso   1.00
H266   H     0.23922   0.81807   0.99401   0.00000  Uiso   1.00
H267   H     0.58032   0.78232   0.88213   0.00000  Uiso   1.00
O268   O     0.30110   0.76264   0.52797   0.00000  Uiso   1.00
O269   O     0.19528   0.92113   0.01907   0.00000  Uiso   1.00
O270   O     0.64280   0.87424   0.87228   0.00000  Uiso   1.00
N271   N     0.32368   0.83521   0.59426   0.00000  Uiso   1.00
N272   N     0.24826   0.94815   0.94422   0.00000  Uiso   1.00
N273   N     0.56716   0.91474   0.83964   0.00000  Uiso   1.00
N274   N     0.32376   0.74181   0.62171   0.00000  Uiso   1.00
N275   N     0.24834   0.85475   0.97168   0.00000  Uiso   1.00
N276   N     0.56724   0.82134   0.86709   0.00000  Uiso   1.00
C277   C     0.62029   0.09242   0.79026   0.00000  Uiso   1.00
C278   C     0.63571   0.13519   0.74295   0.00000  Uiso   1.00
C279   C     0.64872   0.11913   0.68788   0.00000  Uiso   1.00
C280   C     0.66169   0.16489   0.65092   0.00000  Uiso   1.00
C281   C     0.68566   0.22222   0.57480   0.00000  Uiso   1.00
C282   C     0.65650   0.10407   0.83940   0.00000  Uiso   1.00
C283   C     0.68699   0.06183   0.86542   0.00000  Uiso   1.00
C284   C     0.71747   0.08139   0.90966   0.00000  Uiso   1.00
C285   C     0.77369   0.09038   0.98330   0.00000  Uiso   1.00
C286   C     0.56861   0.11328   0.81056   0.00000  Uiso   1.00
C287   C     0.52520   0.07878   0.81236   0.00000  Uiso   1.00
C288   C     0.48168   0.10609   0.83234   0.00000  Uiso   1.00
C289   C     0.40144   0.12939   0.86121   0.00000  Uiso   1.00
C290   C     0.62020   0.20226   0.82255   0.00000  Uiso   1.00
C291   C     0.63566   0.19485   0.76049   0.00000  Uiso   1.00
C292   C     0.64862   0.24065   0.72360   0.00000  Uiso   1.00
C293   C     0.66164   0.22465   0.66849   0.00000  Uiso   1.00
C294   C     0.65645   0.16372   0.85694   0.00000  Uiso   1.00
C295   C     0.68689   0.18335   0.90115   0.00000  Uiso   1.00
C296   C     0.71742   0.14115   0.92723   0.00000  Uiso   1.00
C297   C     0.56856   0.17294   0.82810   0.00000  Uiso   1.00
C298   C     0.52510   0.20030   0.84808   0.00000  Uiso   1.00
C299   C     0.48163   0.16585   0.84991   0.00000  Uiso   1.00
H300   H     0.62033   0.04598   0.77661   0.00000  Uiso   1.00
H301   H     0.64875   0.07295   0.67433   0.00000  Uiso   1.00
H302   H     0.68701   0.01566   0.85185   0.00000  Uiso   1.00
H303   H     0.52525   0.03262   0.79879   0.00000  Uiso   1.00
H304   H     0.68026   0.12917   0.56866   0.00000  Uiso   1.00
H305   H     0.76092   0.00837   0.94299   0.00000  Uiso   1.00
H306   H     0.41982   0.04411   0.83111   0.00000  Uiso   1.00
H307   H     0.62016   0.24870   0.83621   0.00000  Uiso   1.00
H308   H     0.64858   0.28681   0.73719   0.00000  Uiso   1.00
H309   H     0.68684   0.22952   0.91471   0.00000  Uiso   1.00
H310   H     0.52508   0.24647   0.86165   0.00000  Uiso   1.00
H311   H     0.68012   0.30274   0.61968   0.00000  Uiso   1.00
H312   H     0.76078   0.18193   0.99401   0.00000  Uiso   1.00
H313   H     0.41968   0.21768   0.88213   0.00000  Uiso   1.00
O314   O     0.69890   0.23736   0.52797   0.00000  Uiso   1.00
O315   O     0.80472   0.07887   0.01907   0.00000  Uiso   1.00
O316   O     0.35720   0.12576   0.87228   0.00000  Uiso   1.00
N317   N     0.67632   0.16479   0.59426   0.00000  Uiso   1.00
N318   N     0.75174   0.05185   0.94422   0.00000  Uiso   1.00
N319   N     0.43284   0.08526   0.83964   0.00000  Uiso   1.00
N320   N     0.67624   0.25819   0.62171   0.00000  Uiso   1.00
N321   N     0.75166   0.14525   0.97168   0.00000  Uiso   1.00
N322   N     0.43276   0.17866   0.86709   0.00000  Uiso   1.00
C323   C     0.12029   0.59242   0.79026   0.00000  Uiso   1.00
C324   C     0.13571   0.63519   0.74295   0.00000  Uiso   1.00
C325   C     0.14872   0.61913   0.68788   0.00000  Uiso   1.00
C326   C     0.16169   0.66489   0.65092   0.00000  Uiso   1.00
C327   C     0.18566   0.72222   0.57480   0.00000  Uiso   1.00
C328   C     0.15650   0.60407   0.83940   0.00000  Uiso   1.00
C329   C     0.18699   0.56183   0.86542   0.00000  Uiso   1.00
C330   C     0.21747   0.58139   0.90966   0.00000  Uiso   1.00
C331   C     0.27369   0.59038   0.98330   0.00000  Uiso   1.00
C332   C     0.06861   0.61328   0.81056   0.00000  Uiso   1.00
C333   C     0.02520   0.57878   0.81236   0.00000  Uiso   1.00
C334   C     0.98168   0.60609   0.83234   0.00000  Uiso   1.00
C335   C     0.90144   0.62939   0.86121   0.00000  Uiso   1.00
C336   C     0.12020   0.70226   0.82255   0.00000  Uiso   1.00
C337   C     0.13566   0.69485   0.76049   0.00000  Uiso   1.00
C338   C     0.14862   0.74065   0.72360   0.00000  Uiso   1.00
C339   C     0.16164   0.72465   0.66849   0.00000  Uiso   1.00
C340   C     0.15645   0.66372   0.85694   0.00000  Uiso   1.00
C341   C     0.18689   0.68335   0.90115   0.00000  Uiso   1.00
C342   C     0.21742   0.64115   0.92723   0.00000  Uiso   1.00
C343   C     0.06856   0.67294   0.82810   0.00000  Uiso   1.00
C344   C     0.02510   0.70030   0.84808   0.00000  Uiso   1.00
C345   C     0.98163   0.66585   0.84991   0.00000  Uiso   1.00
H346   H     0.12033   0.54598   0.77661   0.00000  Uiso   1.00
H347   H     0.14875   0.57295   0.67433   0.00000  Uiso   1.00
H348   H     0.18701   0.51566   0.85185   0.00000  Uiso   1.00
H349   H     0.02525   0.53262   0.79879   0.00000  Uiso   1.00
H350   H     0.18026   0.62917   0.56866   0.00000  Uiso   1.00
H351   H     0.26092   0.50837   0.94299   0.00000  Uiso   1.00
H352   H     0.91982   0.54411   0.83111   0.00000  Uiso   1.00
H353   H     0.12016   0.74870   0.83621   0.00000  Uiso   1.00
H354   H     0.14858   0.78681   0.73719   0.00000  Uiso   1.00
H355   H     0.18684   0.72952   0.91471   0.00000  Uiso   1.00
H356   H     0.02508   0.74647   0.86165   0.00000  Uiso   1.00
H357   H     0.18012   0.80274   0.61968   0.00000  Uiso   1.00
H358   H     0.26078   0.68193   0.99401   0.00000  Uiso   1.00
H359   H     0.91968   0.71768   0.88213   0.00000  Uiso   1.00
O360   O     0.19890   0.73736   0.52797   0.00000  Uiso   1.00
O361   O     0.30472   0.57887   0.01907   0.00000  Uiso   1.00
O362   O     0.85720   0.62576   0.87228   0.00000  Uiso   1.00
N363   N     0.17632   0.66479   0.59426   0.00000  Uiso   1.00
N364   N     0.25174   0.55185   0.94422   0.00000  Uiso   1.00
N365   N     0.93284   0.58526   0.83964   0.00000  Uiso   1.00
N366   N     0.17624   0.75819   0.62171   0.00000  Uiso   1.00
N367   N     0.25166   0.64525   0.97168   0.00000  Uiso   1.00
N368   N     0.93276   0.67866   0.86709   0.00000  Uiso   1.00
C369   C     0.87971   0.09242   0.29026   0.00000  Uiso   1.00
C370   C     0.86429   0.13519   0.24295   0.00000  Uiso   1.00
C371   C     0.85128   0.11913   0.18788   0.00000  Uiso   1.00
C372   C     0.83831   0.16489   0.15092   0.00000  Uiso   1.00
C373   C     0.81434   0.22222   0.07480   0.00000  Uiso   1.00
C374   C     0.84350   0.10407   0.33940   0.00000  Uiso   1.00
C375   C     0.81301   0.06183   0.36542   0.00000  Uiso   1.00
C376   C     0.78253   0.08139   0.40966   0.00000  Uiso   1.00
C377   C     0.72631   0.09038   0.48330   0.00000  Uiso   1.00
C378   C     0.93139   0.11328   0.31056   0.00000  Uiso   1.00
C379   C     0.97480   0.07878   0.31236   0.00000  Uiso   1.00
C380   C     0.01832   0.10609   0.33234   0.00000  Uiso   1.00
C381   C     0.09856   0.12939   0.36121   0.00000  Uiso   1.00
C382   C     0.87980   0.20226   0.32255   0.00000  Uiso   1.00
C383   C     0.86434   0.19485   0.26049   0.00000  Uiso   1.00
C384   C     0.85138   0.24065   0.22360   0.00000  Uiso   1.00
C385   C     0.83836   0.22465   0.16849   0.00000  Uiso   1.00
C386   C     0.84355   0.16372   0.35694   0.00000  Uiso   1.00
C387   C     0.81311   0.18335   0.40115   0.00000  Uiso   1.00
C388   C     0.78258   0.14115   0.42723   0.00000  Uiso   1.00
C389   C     0.93144   0.17294   0.32810   0.00000  Uiso   1.00
C390   C     0.97490   0.20030   0.34808   0.00000  Uiso   1.00
C391   C     0.01837   0.16585   0.34991   0.00000  Uiso   1.00
H392   H     0.87967   0.04598   0.27661   0.00000  Uiso   1.00
H393   H     0.85125   0.07295   0.17433   0.00000  Uiso   1.00
H394   H     0.81299   0.01566   0.35185   0.00000  Uiso   1.00
H395   H     0.97475   0.03262   0.29879   0.00000  Uiso   1.00
H396   H     0.81974   0.12917   0.06866   0.00000  Uiso   1.00
H397   H     0.73908   0.00837   0.44299   0.00000  Uiso   1.00
H398   H     0.08018   0.04411   0.33111   0.00000  Uiso   1.00
H399   H     0.87984   0.24870   0.33621   0.00000  Uiso   1.00
H400   H     0.85142   0.28681   0.23719   0.00000  Uiso   1.00
H401   H     0.81316   0.22952   0.41471   0.00000  Uiso   1.00
H402   H     0.97492   0.24647   0.36165   0.00000  Uiso   1.00
H403   H     0.81988   0.30274   0.11968   0.00000  Uiso   1.00
H404   H     0.73922   0.18193   0.49401   0.00000  Uiso   1.00
H405   H     0.08032   0.21768   0.38213   0.00000  Uiso   1.00
O406   O     0.80110   0.23736   0.02797   0.00000  Uiso   1.00
O407   O     0.69528   0.07887   0.51907   0.00000  Uiso   1.00
O408   O     0.14280   0.12576   0.37228   0.00000  Uiso   1.00
N409   N     0.82368   0.16479   0.09426   0.00000  Uiso   1.00
N410   N     0.74826   0.05185   0.44422   0.00000  Uiso   1.00
N411   N     0.06716   0.08526   0.33964   0.00000  Uiso   1.00
N412   N     0.82376   0.25819   0.12171   0.00000  Uiso   1.00
N413   N     0.74834   0.14525   0.47168   0.00000  Uiso   1.00
N414   N     0.06724   0.17866   0.36709   0.00000  Uiso   1.00
C415   C     0.37971   0.59242   0.29026   0.00000  Uiso   1.00
C416   C     0.36429   0.63519   0.24295   0.00000  Uiso   1.00
C417   C     0.35128   0.61913   0.18788   0.00000  Uiso   1.00
C418   C     0.33831   0.66489   0.15092   0.00000  Uiso   1.00
C419   C     0.31434   0.72222   0.07480   0.00000  Uiso   1.00
C420   C     0.34350   0.60407   0.33940   0.00000  Uiso   1.00
C421   C     0.31301   0.56183   0.36542   0.00000  Uiso   1.00
C422   C     0.28253   0.58139   0.40966   0.00000  Uiso   1.00
C423   C     0.22631   0.59038   0.48330   0.00000  Uiso   1.00
C424   C     0.43139   0.61328   0.31056   0.00000  Uiso   1.00
C425   C     0.47480   0.57878   0.31236   0.00000  Uiso   1.00
C426   C     0.51832   0.60609   0.33234   0.00000  Uiso   1.00
C427   C     0.59856   0.62939   0.36121   0.00000  Uiso   1.00
C428   C     0.37980   0.70226   0.32255   0.00000  Uiso   1.00
C429   C     0.36434   0.69485   0.26049   0.00000  Uiso   1.00
C430   C     0.35138   0.74065   0.22360   0.00000  Uiso   1.00
C431   C     0.33836   0.72465   0.16849   0.00000  Uiso   1.00
C432   C     0.34355   0.66372   0.35694   0.00000  Uiso   1.00
C433   C     0.31311   0.68335   0.40115   0.00000  Uiso   1.00
C434   C     0.28258   0.64115   0.42723   0.00000  Uiso   1.00
C435   C     0.43144   0.67294   0.32810   0.00000  Uiso   1.00
C436   C     0.47490   0.70030   0.34808   0.00000  Uiso   1.00
C437   C     0.51837   0.66585   0.34991   0.00000  Uiso   1.00
H438   H     0.37967   0.54598   0.27661   0.00000  Uiso   1.00
H439   H     0.35125   0.57295   0.17433   0.00000  Uiso   1.00
H440   H     0.31299   0.51566   0.35185   0.00000  Uiso   1.00
H441   H     0.47475   0.53262   0.29879   0.00000  Uiso   1.00
H442   H     0.31974   0.62917   0.06866   0.00000  Uiso   1.00
H443   H     0.23908   0.50837   0.44299   0.00000  Uiso   1.00
H444   H     0.58018   0.54411   0.33111   0.00000  Uiso   1.00
H445   H     0.37984   0.74870   0.33621   0.00000  Uiso   1.00
H446   H     0.35142   0.78681   0.23719   0.00000  Uiso   1.00
H447   H     0.31316   0.72952   0.41471   0.00000  Uiso   1.00
H448   H     0.47492   0.74647   0.36165   0.00000  Uiso   1.00
H449   H     0.31988   0.80274   0.11968   0.00000  Uiso   1.00
H450   H     0.23922   0.68193   0.49401   0.00000  Uiso   1.00
H451   H     0.58032   0.71768   0.38213   0.00000  Uiso   1.00
O452   O     0.30110   0.73736   0.02797   0.00000  Uiso   1.00
O453   O     0.19528   0.57887   0.51907   0.00000  Uiso   1.00
O454   O     0.64280   0.62576   0.37228   0.00000  Uiso   1.00
N455   N     0.32368   0.66479   0.09426   0.00000  Uiso   1.00
N456   N     0.24826   0.55185   0.44422   0.00000  Uiso   1.00
N457   N     0.56716   0.58526   0.33964   0.00000  Uiso   1.00
N458   N     0.32376   0.75819   0.12171   0.00000  Uiso   1.00
N459   N     0.24834   0.64525   0.47168   0.00000  Uiso   1.00
N460   N     0.56724   0.67866   0.36709   0.00000  Uiso   1.00
C461   C     0.62029   0.40758   0.29026   0.00000  Uiso   1.00
C462   C     0.63571   0.36481   0.24295   0.00000  Uiso   1.00
C463   C     0.64872   0.38087   0.18788   0.00000  Uiso   1.00
C464   C     0.66169   0.33511   0.15092   0.00000  Uiso   1.00
C465   C     0.68566   0.27778   0.07480   0.00000  Uiso   1.00
C466   C     0.65650   0.39593   0.33940   0.00000  Uiso   1.00
C467   C     0.68699   0.43817   0.36542   0.00000  Uiso   1.00
C468   C     0.71747   0.41861   0.40966   0.00000  Uiso   1.00
C469   C     0.77369   0.40962   0.48330   0.00000  Uiso   1.00
C470   C     0.56861   0.38672   0.31056   0.00000  Uiso   1.00
C471   C     0.52520   0.42122   0.31236   0.00000  Uiso   1.00
C472   C     0.48168   0.39391   0.33234   0.00000  Uiso   1.00
C473   C     0.40144   0.37061   0.36121   0.00000  Uiso   1.00
C474   C     0.62020   0.29774   0.32255   0.00000  Uiso   1.00
C475   C     0.63566   0.30515   0.26049   0.00000  Uiso   1.00
C476   C     0.64862   0.25935   0.22360   0.00000  Uiso   1.00
C477   C     0.66164   0.27535   0.16849   0.00000  Uiso   1.00
C478   C     0.65645   0.33628   0.35694   0.00000  Uiso   1.00
C479   C     0.68689   0.31665   0.40115   0.00000  Uiso   1.00
C480   C     0.71742   0.35885   0.42723   0.00000  Uiso   1.00
C481   C     0.56856   0.32706   0.32810   0.00000  Uiso   1.00
C482   C     0.52510   0.29970   0.34808   0.00000  Uiso   1.00
C483   C     0.48163   0.33415   0.34991   0.00000  Uiso   1.00
H484   H     0.62033   0.45402   0.27661   0.00000  Uiso   1.00
H485   H     0.64875   0.42705   0.17433   0.00000  Uiso   1.00
H486   H     0.68701   0.48434   0.35185   0.00000  Uiso   1.00
H487   H     0.52525   0.46738   0.29879   0.00000  Uiso   1.00
H488   H     0.68026   0.37083   0.06866   0.00000  Uiso   1.00
H489   H     0.76092   0.49163   0.44299   0.00000  Uiso   1.00
H490   H     0.41982   0.45589   0.33111   0.00000  Uiso   1.00
H491   H     0.62016   0.25130   0.33621   0.00000  Uiso   1.00
H492   H     0.64858   0.21319   0.23719   0.00000  Uiso   1.00
H493   H     0.68684   0.27048   0.41471   0.00000  Uiso   1.00
H494   H     0.52508   0.25353   0.36165   0.00000  Uiso   1.00
H495   H     0.68012   0.19726   0.11968   0.00000  Uiso   1.00
H496   H     0.76078   0.31807   0.49401   0.00000  Uiso   1.00
H497   H     0.41968   0.28232   0.38213   0.00000  Uiso   1.00
O498   O     0.69890   0.26264   0.02797   0.00000  Uiso   1.00
O499   O     0.80472   0.42113   0.51907   0.00000  Uiso   1.00
O500   O     0.35720   0.37424   0.37228   0.00000  Uiso   1.00
N501   N     0.67632   0.33521   0.09426   0.00000  Uiso   1.00
N502   N     0.75174   0.44815   0.44422   0.00000  Uiso   1.00
N503   N     0.43284   0.41474   0.33964   0.00000  Uiso   1.00
N504   N     0.67624   0.24181   0.12171   0.00000  Uiso   1.00
N505   N     0.75166   0.35475   0.47168   0.00000  Uiso   1.00
N506   N     0.43276   0.32134   0.36709   0.00000  Uiso   1.00
C507   C     0.12029   0.90758   0.29026   0.00000  Uiso   1.00
C508   C     0.13571   0.86481   0.24295   0.00000  Uiso   1.00
C509   C     0.14872   0.88087   0.18788   0.00000  Uiso   1.00
C510   C     0.16169   0.83511   0.15092   0.00000  Uiso   1.00
C511   C     0.18566   0.77778   0.07480   0.00000  Uiso   1.00
C512   C     0.15650   0.89593   0.33940   0.00000  Uiso   1.00
C513   C     0.18699   0.93817   0.36542   0.00000  Uiso   1.00
C514   C     0.21747   0.91861   0.40966   0.00000  Uiso   1.00
C515   C     0.27369   0.90962   0.48330   0.00000  Uiso   1.00
C516   C     0.06861   0.88672   0.31056   0.00000  Uiso   1.00
C517   C     0.02520   0.92122   0.31236   0.00000  Uiso   1.00
C518   C     0.98168   0.89391   0.33234   0.00000  Uiso   1.00
C519   C     0.90144   0.87061   0.36121   0.00000  Uiso   1.00
C520   C     0.12020   0.79774   0.32255   0.00000  Uiso   1.00
C521   C     0.13566   0.80515   0.26049   0.00000  Uiso   1.00
C522   C     0.14862   0.75935   0.22360   0.00000  Uiso   1.00
C523   C     0.16164   0.77535   0.16849   0.00000  Uiso   1.00
C524   C     0.15645   0.83628   0.35694   0.00000  Uiso   1.00
C525   C     0.18689   0.81665   0.40115   0.00000  Uiso   1.00
C526   C     0.21742   0.85885   0.42723   0.00000  Uiso   1.00
C527   C     0.06856   0.82706   0.32810   0.00000  Uiso   1.00
C528   C     0.02510   0.79970   0.34808   0.00000  Uiso   1.00
C529   C     0.98163   0.83415   0.34991   0.00000  Uiso   1.00
H530   H     0.12033   0.95402   0.27661   0.00000  Uiso   1.00
H531   H     0.14875   0.92705   0.17433   0.00000  Uiso   1.00
H532   H     0.18701   0.98434   0.35185   0.00000  Uiso   1.00
H533   H     0.02525   0.96738   0.29879   0.00000  Uiso   1.00
H534   H     0.18026   0.87083   0.06866   0.00000  Uiso   1.00
H535   H     0.26092   0.99163   0.44299   0.00000  Uiso   1.00
H536   H     0.91982   0.95589   0.33111   0.00000  Uiso   1.00
H537   H     0.12016   0.75130   0.33621   0.00000  Uiso   1.00
H538   H     0.14858   0.71319   0.23719   0.00000  Uiso   1.00
H539   H     0.18684   0.77048   0.41471   0.00000  Uiso   1.00
H540   H     0.02508   0.75353   0.36165   0.00000  Uiso   1.00
H541   H     0.18012   0.69726   0.11968   0.00000  Uiso   1.00
H542   H     0.26078   0.81807   0.49401   0.00000  Uiso   1.00
H543   H     0.91968   0.78232   0.38213   0.00000  Uiso   1.00
O544   O     0.19890   0.76264   0.02797   0.00000  Uiso   1.00
O545   O     0.30472   0.92113   0.51907   0.00000  Uiso   1.00
O546   O     0.85720   0.87424   0.37228   0.00000  Uiso   1.00
N547   N     0.17632   0.83521   0.09426   0.00000  Uiso   1.00
N548   N     0.25174   0.94815   0.44422   0.00000  Uiso   1.00
N549   N     0.93284   0.91474   0.33964   0.00000  Uiso   1.00
N550   N     0.17624   0.74181   0.12171   0.00000  Uiso   1.00
N551   N     0.25166   0.85475   0.47168   0.00000  Uiso   1.00
N552   N     0.93276   0.82134   0.36709   0.00000  Uiso   1.00
C553   C     0.12029   0.09242   0.70974   0.00000  Uiso   1.00
C554   C     0.13571   0.13519   0.75705   0.00000  Uiso   1.00
C555   C     0.14872   0.11913   0.81212   0.00000  Uiso   1.00
C556   C     0.16169   0.16489   0.84908   0.00000  Uiso   1.00
C557   C     0.18566   0.22222   0.92520   0.00000  Uiso   1.00
C558   C     0.15650   0.10407   0.66060   0.00000  Uiso   1.00
C559   C     0.18699   0.06183   0.63458   0.00000  Uiso   1.00
C560   C     0.21747   0.08139   0.59034   0.00000  Uiso   1.00
C561   C     0.27369   0.09038   0.51670   0.00000  Uiso   1.00
C562   C     0.06861   0.11328   0.68944   0.00000  Uiso   1.00
C563   C     0.02520   0.07878   0.68764   0.00000  Uiso   1.00
C564   C     0.98168   0.10609   0.66766   0.00000  Uiso   1.00
C565   C     0.90144   0.12939   0.63879   0.00000  Uiso   1.00
C566   C     0.12020   0.20226   0.67745   0.00000  Uiso   1.00
C567   C     0.13566   0.19485   0.73951   0.00000  Uiso   1.00
C568   C     0.14862   0.24065   0.77640   0.00000  Uiso   1.00
C569   C     0.16164   0.22465   0.83151   0.00000  Uiso   1.00
C570   C     0.15645   0.16372   0.64306   0.00000  Uiso   1.00
C571   C     0.18689   0.18335   0.59885   0.00000  Uiso   1.00
C572   C     0.21742   0.14115   0.57277   0.00000  Uiso   1.00
C573   C     0.06856   0.17294   0.67190   0.00000  Uiso   1.00
C574   C     0.02510   0.20030   0.65192   0.00000  Uiso   1.00
C575   C     0.98163   0.16585   0.65009   0.00000  Uiso   1.00
H576   H     0.12033   0.04598   0.72339   0.00000  Uiso   1.00
H577   H     0.14875   0.07295   0.82567   0.00000  Uiso   1.00
H578   H     0.18701   0.01566   0.64815   0.00000  Uiso   1.00
H579   H     0.02525   0.03262   0.70121   0.00000  Uiso   1.00
H580   H     0.18026   0.12917   0.93134   0.00000  Uiso   1.00
H581   H     0.26092   0.00837   0.55701   0.00000  Uiso   1.00
H582   H     0.91982   0.04411   0.66889   0.00000  Uiso   1.00
H583   H     0.12016   0.24870   0.66379   0.00000  Uiso   1.00
H584   H     0.14858   0.28681   0.76281   0.00000  Uiso   1.00
H585   H     0.18684   0.22952   0.58529   0.00000  Uiso   1.00
H586   H     0.02508   0.24647   0.63835   0.00000  Uiso   1.00
H587   H     0.18012   0.30274   0.88032   0.00000  Uiso   1.00
H588   H     0.26078   0.18193   0.50599   0.00000  Uiso   1.00
H589   H     0.91968   0.21768   0.61787   0.00000  Uiso   1.00
O590   O     0.19890   0.23736   0.97203   0.00000  Uiso   1.00
O591   O     0.30472   0.07887   0.48093   0.00000  Uiso   1.00
O592   O     0.85720   0.12576   0.62772   0.00000  Uiso   1.00
N593   N     0.17632   0.16479   0.90574   0.00000  Uiso   1.00
N594   N     0.25174   0.05185   0.55578   0.00000  Uiso   1.00
N595   N     0.93284   0.08526   0.66036   0.00000  Uiso   1.00
N596   N     0.17624   0.25819   0.87829   0.00000  Uiso   1.00
N597   N     0.25166   0.14525   0.52832   0.00000  Uiso   1.00
N598   N     0.93276   0.17866   0.63291   0.00000  Uiso   1.00
C599   C     0.62029   0.59242   0.70974   0.00000  Uiso   1.00
C600   C     0.63571   0.63519   0.75705   0.00000  Uiso   1.00
C601   C     0.64872   0.61913   0.81212   0.00000  Uiso   1.00
C602   C     0.66169   0.66489   0.84908   0.00000  Uiso   1.00
C603   C     0.68566   0.72222   0.92520   0.00000  Uiso   1.00
C604   C     0.65650   0.60407   0.66060   0.00000  Uiso   1.00
C605   C     0.68699   0.56183   0.63458   0.00000  Uiso   1.00
C606   C     0.71747   0.58139   0.59034   0.00000  Uiso   1.00
C607   C     0.77369   0.59038   0.51670   0.00000  Uiso   1.00
C608   C     0.56861   0.61328   0.68944   0.00000  Uiso   1.00
C609   C     0.52520   0.57878   0.68764   0.00000  Uiso   1.00
C610   C     0.48168   0.60609   0.66766   0.00000  Uiso   1.00
C611   C     0.40144   0.62939   0.63879   0.00000  Uiso   1.00
C612   C     0.62020   0.70226   0.67745   0.00000  Uiso   1.00
C613   C     0.63566   0.69485   0.73951   0.00000  Uiso   1.00
C614   C     0.64862   0.74065   0.77640   0.00000  Uiso   1.00
C615   C     0.66164   0.72465   0.83151   0.00000  Uiso   1.00
C616   C     0.65645   0.66372   0.64306   0.00000  Uiso   1.00
C617   C     0.68689   0.68335   0.59885   0.00000  Uiso   1.00
C618   C     0.71742   0.64115   0.57277   0.00000  Uiso   1.00
C619   C     0.56856   0.67294   0.67190   0.00000  Uiso   1.00
C620   C     0.52510   0.70030   0.65192   0.00000  Uiso   1.00
C621   C     0.48163   0.66585   0.65009   0.00000  Uiso   1.00
H622   H     0.62033   0.54598   0.72339   0.00000  Uiso   1.00
H623   H     0.64875   0.57295   0.82567   0.00000  Uiso   1.00
H624   H     0.68701   0.51566   0.64815   0.00000  Uiso   1.00
H625   H     0.52525   0.53262   0.70121   0.00000  Uiso   1.00
H626   H     0.68026   0.62917   0.93134   0.00000  Uiso   1.00
H627   H     0.76092   0.50837   0.55701   0.00000  Uiso   1.00
H628   H     0.41982   0.54411   0.66889   0.00000  Uiso   1.00
H629   H     0.62016   0.74870   0.66379   0.00000  Uiso   1.00
H630   H     0.64858   0.78681   0.76281   0.00000  Uiso   1.00
H631   H     0.68684   0.72952   0.58529   0.00000  Uiso   1.00
H632   H     0.52508   0.74647   0.63835   0.00000  Uiso   1.00
H633   H     0.68012   0.80274   0.88032   0.00000  Uiso   1.00
H634   H     0.76078   0.68193   0.50599   0.00000  Uiso   1.00
H635   H     0.41968   0.71768   0.61787   0.00000  Uiso   1.00
O636   O     0.69890   0.73736   0.97203   0.00000  Uiso   1.00
O637   O     0.80472   0.57887   0.48093   0.00000  Uiso   1.00
O638   O     0.35720   0.62576   0.62772   0.00000  Uiso   1.00
N639   N     0.67632   0.66479   0.90574   0.00000  Uiso   1.00
N640   N     0.75174   0.55185   0.55578   0.00000  Uiso   1.00
N641   N     0.43284   0.58526   0.66036   0.00000  Uiso   1.00
N642   N     0.67624   0.75819   0.87829   0.00000  Uiso   1.00
N643   N     0.75166   0.64525   0.52832   0.00000  Uiso   1.00
N644   N     0.43276   0.67866   0.63291   0.00000  Uiso   1.00
C645   C     0.37971   0.40758   0.70974   0.00000  Uiso   1.00
C646   C     0.36429   0.36481   0.75705   0.00000  Uiso   1.00
C647   C     0.35128   0.38087   0.81212   0.00000  Uiso   1.00
C648   C     0.33831   0.33511   0.84908   0.00000  Uiso   1.00
C649   C     0.31434   0.27778   0.92520   0.00000  Uiso   1.00
C650   C     0.34350   0.39593   0.66060   0.00000  Uiso   1.00
C651   C     0.31301   0.43817   0.63458   0.00000  Uiso   1.00
C652   C     0.28253   0.41861   0.59034   0.00000  Uiso   1.00
C653   C     0.22631   0.40962   0.51670   0.00000  Uiso   1.00
C654   C     0.43139   0.38672   0.68944   0.00000  Uiso   1.00
C655   C     0.47480   0.42122   0.68764   0.00000  Uiso   1.00
C656   C     0.51832   0.39391   0.66766   0.00000  Uiso   1.00
C657   C     0.59856   0.37061   0.63879   0.00000  Uiso   1.00
C658   C     0.37980   0.29774   0.67745   0.00000  Uiso   1.00
C659   C     0.36434   0.30515   0.73951   0.00000  Uiso   1.00
C660   C     0.35138   0.25935   0.77640   0.00000  Uiso   1.00
C661   C     0.33836   0.27535   0.83151   0.00000  Uiso   1.00
C662   C     0.34355   0.33628   0.64306   0.00000  Uiso   1.00
C663   C     0.31311   0.31665   0.59885   0.00000  Uiso   1.00
C664   C     0.28258   0.35885   0.57277   0.00000  Uiso   1.00
C665   C     0.43144   0.32706   0.67190   0.00000  Uiso   1.00
C666   C     0.47490   0.29970   0.65192   0.00000  Uiso   1.00
C667   C     0.51837   0.33415   0.65009   0.00000  Uiso   1.00
H668   H     0.37967   0.45402   0.72339   0.00000  Uiso   1.00
H669   H     0.35125   0.42705   0.82567   0.00000  Uiso   1.00
H670   H     0.31299   0.48434   0.64815   0.00000  Uiso   1.00
H671   H     0.47475   0.46738   0.70121   0.00000  Uiso   1.00
H672   H     0.31974   0.37083   0.93134   0.00000  Uiso   1.00
H673   H     0.23908   0.49163   0.55701   0.00000  Uiso   1.00
H674   H     0.58018   0.45589   0.66889   0.00000  Uiso   1.00
H675   H     0.37984   0.25130   0.66379   0.00000  Uiso   1.00
H676   H     0.35142   0.21319   0.76281   0.00000  Uiso   1.00
H677   H     0.31316   0.27048   0.58529   0.00000  Uiso   1.00
H678   H     0.47492   0.25353   0.63835   0.00000  Uiso   1.00
H679   H     0.31988   0.19726   0.88032   0.00000  Uiso   1.00
H680   H     0.23922   0.31807   0.50599   0.00000  Uiso   1.00
H681   H     0.58032   0.28232   0.61787   0.00000  Uiso   1.00
O682   O     0.30110   0.26264   0.97203   0.00000  Uiso   1.00
O683   O     0.19528   0.42113   0.48093   0.00000  Uiso   1.00
O684   O     0.64280   0.37424   0.62772   0.00000  Uiso   1.00
N685   N     0.32368   0.33521   0.90574   0.00000  Uiso   1.00
N686   N     0.24826   0.44815   0.55578   0.00000  Uiso   1.00
N687   N     0.56716   0.41474   0.66036   0.00000  Uiso   1.00
N688   N     0.32376   0.24181   0.87829   0.00000  Uiso   1.00
N689   N     0.24834   0.35475   0.52832   0.00000  Uiso   1.00
N690   N     0.56724   0.32134   0.63291   0.00000  Uiso   1.00
C691   C     0.87971   0.90758   0.70974   0.00000  Uiso   1.00
C692   C     0.86429   0.86481   0.75705   0.00000  Uiso   1.00
C693   C     0.85128   0.88087   0.81212   0.00000  Uiso   1.00
C694   C     0.83831   0.83511   0.84908   0.00000  Uiso   1.00
C695   C     0.81434   0.77778   0.92520   0.00000  Uiso   1.00
C696   C     0.84350   0.89593   0.66060   0.00000  Uiso   1.00
C697   C     0.81301   0.93817   0.63458   0.00000  Uiso   1.00
C698   C     0.78253   0.91861   0.59034   0.00000  Uiso   1.00
C699   C     0.72631   0.90962   0.51670   0.00000  Uiso   1.00
C700   C     0.93139   0.88672   0.68944   0.00000  Uiso   1.00
C701   C     0.97480   0.92122   0.68764   0.00000  Uiso   1.00
C702   C     0.01832   0.89391   0.66766   0.00000  Uiso   1.00
C703   C     0.09856   0.87061   0.63879   0.00000  Uiso   1.00
C704   C     0.87980   0.79774   0.67745   0.00000  Uiso   1.00
C705   C     0.86434   0.80515   0.73951   0.00000  Uiso   1.00
C706   C     0.85138   0.75935   0.77640   0.00000  Uiso   1.00
C707   C     0.83836   0.77535   0.83151   0.00000  Uiso   1.00
C708   C     0.84355   0.83628   0.64306   0.00000  Uiso   1.00
C709   C     0.81311   0.81665   0.59885   0.00000  Uiso   1.00
C710   C     0.78258   0.85885   0.57277   0.00000  Uiso   1.00
C711   C     0.93144   0.82706   0.67190   0.00000  Uiso   1.00
C712   C     0.97490   0.79970   0.65192   0.00000  Uiso   1.00
C713   C     0.01837   0.83415   0.65009   0.00000  Uiso   1.00
H714   H     0.87967   0.95402   0.72339   0.00000  Uiso   1.00
H715   H     0.85125   0.92705   0.82567   0.00000  Uiso   1.00
H716   H     0.81299   0.98434   0.64815   0.00000  Uiso   1.00
H717   H     0.97475   0.96738   0.70121   0.00000  Uiso   1.00
H718   H     0.81974   0.87083   0.93134   0.00000  Uiso   1.00
H719   H     0.73908   0.99163   0.55701   0.00000  Uiso   1.00
H720   H     0.08018   0.95589   0.66889   0.00000  Uiso   1.00
H721   H     0.87984   0.75130   0.66379   0.00000  Uiso   1.00
H722   H     0.85142   0.71319   0.76281   0.00000  Uiso   1.00
H723   H     0.81316   0.77048   0.58529   0.00000  Uiso   1.00
H724   H     0.97492   0.75353   0.63835   0.00000  Uiso   1.00
H725   H     0.81988   0.69726   0.88032   0.00000  Uiso   1.00
H726   H     0.73922   0.81807   0.50599   0.00000  Uiso   1.00
H727   H     0.08032   0.78232   0.61787   0.00000  Uiso   1.00
O728   O     0.80110   0.76264   0.97203   0.00000  Uiso   1.00
O729   O     0.69528   0.92113   0.48093   0.00000  Uiso   1.00
O730   O     0.14280   0.87424   0.62772   0.00000  Uiso   1.00
N731   N     0.82368   0.83521   0.90574   0.00000  Uiso   1.00
N732   N     0.74826   0.94815   0.55578   0.00000  Uiso   1.00
N733   N     0.06716   0.91474   0.66036   0.00000  Uiso   1.00
N734   N     0.82376   0.74181   0.87829   0.00000  Uiso   1.00
N735   N     0.74834   0.85475   0.52832   0.00000  Uiso   1.00
N736   N     0.06724   0.82134   0.63291   0.00000  Uiso   1.00
