data_job_03937
_audit_creation_date              2018-12-19
_audit_creation_method            'Materials Studio'
_symmetry_space_group_name_H-M    'P1'
_symmetry_Int_Tables_number       1
_symmetry_cell_setting            triclinic
loop_
_symmetry_equiv_pos_as_xyz
  x,y,z
_cell_length_a                    23.2832
_cell_length_b                    23.2832
_cell_length_c                    26.0434
_cell_angle_alpha                 90.0000
_cell_angle_beta                  90.0000
_cell_angle_gamma                 90.0000
loop_
_atom_site_label
_atom_site_type_symbol
_atom_site_fract_x
_atom_site_fract_y
_atom_site_fract_z
_atom_site_U_iso_or_equiv
_atom_site_adp_type
_atom_site_occupancy
C1     C     0.78307   0.55739   0.51179   0.00000  Uiso   1.00
C2     C     0.81973   0.55598   0.56030   0.00000  Uiso   1.00
C3     C     0.86407   0.59361   0.57196   0.00000  Uiso   1.00
C4     C     0.89240   0.58513   0.61825   0.00000  Uiso   1.00
C5     C     0.95169   0.58968   0.68848   0.00000  Uiso   1.00
C6     C     0.78899   0.49819   0.48731   0.00000  Uiso   1.00
C7     C     0.80748   0.48724   0.43761   0.00000  Uiso   1.00
C8     C     0.80992   0.43012   0.42246   0.00000  Uiso   1.00
C9     C     0.82145   0.34496   0.37936   0.00000  Uiso   1.00
C10    C     0.72094   0.56184   0.52989   0.00000  Uiso   1.00
C11    C     0.68222   0.60439   0.51597   0.00000  Uiso   1.00
C12    C     0.62737   0.60084   0.53665   0.00000  Uiso   1.00
C13    C     0.53325   0.61451   0.55966   0.00000  Uiso   1.00
C14    C     0.75453   0.47542   0.57327   0.00000  Uiso   1.00
C15    C     0.80422   0.51145   0.59369   0.00000  Uiso   1.00
C16    C     0.83249   0.50291   0.63998   0.00000  Uiso   1.00
C17    C     0.87687   0.54053   0.65171   0.00000  Uiso   1.00
C18    C     0.77348   0.45367   0.52070   0.00000  Uiso   1.00
C19    C     0.77590   0.39655   0.50562   0.00000  Uiso   1.00
C20    C     0.79439   0.38551   0.45591   0.00000  Uiso   1.00
C21    C     0.70544   0.51731   0.56328   0.00000  Uiso   1.00
C22    C     0.65064   0.51370   0.58399   0.00000  Uiso   1.00
C23    C     0.61184   0.55624   0.57010   0.00000  Uiso   1.00
H24    H     0.79514   0.59205   0.48579   0.00000  Uiso   1.00
H25    H     0.87606   0.62805   0.54611   0.00000  Uiso   1.00
H26    H     0.81947   0.52170   0.41177   0.00000  Uiso   1.00
H27    H     0.69423   0.63884   0.49013   0.00000  Uiso   1.00
H28    H     0.95895   0.64832   0.62770   0.00000  Uiso   1.00
H29    H     0.83961   0.42408   0.34444   0.00000  Uiso   1.00
H30    H     0.57551   0.67107   0.50966   0.00000  Uiso   1.00
H31    H     0.74246   0.44076   0.59926   0.00000  Uiso   1.00
H32    H     0.82048   0.46845   0.66581   0.00000  Uiso   1.00
H33    H     0.76389   0.36210   0.53147   0.00000  Uiso   1.00
H34    H     0.63866   0.47924   0.60983   0.00000  Uiso   1.00
H35    H     0.91384   0.51878   0.72485   0.00000  Uiso   1.00
H36    H     0.79450   0.29454   0.44159   0.00000  Uiso   1.00
H37    H     0.53041   0.54153   0.60681   0.00000  Uiso   1.00
O38    O     0.98869   0.60449   0.71799   0.00000  Uiso   1.00
O39    O     0.83210   0.31029   0.34637   0.00000  Uiso   1.00
O40    O     0.48562   0.63435   0.56313   0.00000  Uiso   1.00
N41    N     0.93762   0.61404   0.64143   0.00000  Uiso   1.00
N42    N     0.82605   0.40438   0.37661   0.00000  Uiso   1.00
N43    N     0.57914   0.63529   0.53106   0.00000  Uiso   1.00
N44    N     0.91335   0.54433   0.69371   0.00000  Uiso   1.00
N45    N     0.80178   0.33468   0.42889   0.00000  Uiso   1.00
N46    N     0.55487   0.56559   0.58334   0.00000  Uiso   1.00
C47    C     0.28307   0.05739   0.01179   0.00000  Uiso   1.00
C48    C     0.31973   0.05598   0.06030   0.00000  Uiso   1.00
C49    C     0.36407   0.09361   0.07196   0.00000  Uiso   1.00
C50    C     0.39240   0.08513   0.11825   0.00000  Uiso   1.00
C51    C     0.45169   0.08968   0.18848   0.00000  Uiso   1.00
C52    C     0.28899   0.99819   0.98731   0.00000  Uiso   1.00
C53    C     0.30748   0.98724   0.93761   0.00000  Uiso   1.00
C54    C     0.30992   0.93012   0.92246   0.00000  Uiso   1.00
C55    C     0.32145   0.84496   0.87936   0.00000  Uiso   1.00
C56    C     0.22094   0.06184   0.02989   0.00000  Uiso   1.00
C57    C     0.18222   0.10439   0.01597   0.00000  Uiso   1.00
C58    C     0.12737   0.10084   0.03665   0.00000  Uiso   1.00
C59    C     0.03325   0.11451   0.05966   0.00000  Uiso   1.00
C60    C     0.25453   0.97542   0.07327   0.00000  Uiso   1.00
C61    C     0.30422   0.01145   0.09369   0.00000  Uiso   1.00
C62    C     0.33249   0.00291   0.13998   0.00000  Uiso   1.00
C63    C     0.37687   0.04053   0.15171   0.00000  Uiso   1.00
C64    C     0.27348   0.95367   0.02070   0.00000  Uiso   1.00
C65    C     0.27590   0.89655   0.00562   0.00000  Uiso   1.00
C66    C     0.29439   0.88551   0.95591   0.00000  Uiso   1.00
C67    C     0.20544   0.01731   0.06328   0.00000  Uiso   1.00
C68    C     0.15064   0.01370   0.08399   0.00000  Uiso   1.00
C69    C     0.11184   0.05624   0.07010   0.00000  Uiso   1.00
H70    H     0.29514   0.09205   0.98579   0.00000  Uiso   1.00
H71    H     0.37606   0.12805   0.04611   0.00000  Uiso   1.00
H72    H     0.31947   0.02170   0.91177   0.00000  Uiso   1.00
H73    H     0.19423   0.13884   0.99013   0.00000  Uiso   1.00
H74    H     0.45895   0.14832   0.12770   0.00000  Uiso   1.00
H75    H     0.33961   0.92408   0.84444   0.00000  Uiso   1.00
H76    H     0.07551   0.17107   0.00966   0.00000  Uiso   1.00
H77    H     0.24246   0.94076   0.09926   0.00000  Uiso   1.00
H78    H     0.32048   0.96845   0.16581   0.00000  Uiso   1.00
H79    H     0.26389   0.86210   0.03147   0.00000  Uiso   1.00
H80    H     0.13866   0.97924   0.10983   0.00000  Uiso   1.00
H81    H     0.41384   0.01878   0.22485   0.00000  Uiso   1.00
H82    H     0.29450   0.79454   0.94159   0.00000  Uiso   1.00
H83    H     0.03041   0.04153   0.10681   0.00000  Uiso   1.00
O84    O     0.48869   0.10449   0.21799   0.00000  Uiso   1.00
O85    O     0.33210   0.81029   0.84637   0.00000  Uiso   1.00
O86    O     0.98562   0.13435   0.06313   0.00000  Uiso   1.00
N87    N     0.43762   0.11404   0.14143   0.00000  Uiso   1.00
N88    N     0.32605   0.90438   0.87661   0.00000  Uiso   1.00
N89    N     0.07914   0.13529   0.03106   0.00000  Uiso   1.00
N90    N     0.41335   0.04433   0.19371   0.00000  Uiso   1.00
N91    N     0.30178   0.83468   0.92889   0.00000  Uiso   1.00
N92    N     0.05487   0.06559   0.08334   0.00000  Uiso   1.00
C93    C     0.71693   0.94261   0.01179   0.00000  Uiso   1.00
C94    C     0.68027   0.94402   0.06030   0.00000  Uiso   1.00
C95    C     0.63593   0.90639   0.07196   0.00000  Uiso   1.00
C96    C     0.60760   0.91487   0.11825   0.00000  Uiso   1.00
C97    C     0.54831   0.91032   0.18848   0.00000  Uiso   1.00
C98    C     0.71101   0.00181   0.98731   0.00000  Uiso   1.00
C99    C     0.69252   0.01276   0.93761   0.00000  Uiso   1.00
C100   C     0.69008   0.06988   0.92246   0.00000  Uiso   1.00
C101   C     0.67855   0.15504   0.87936   0.00000  Uiso   1.00
C102   C     0.77906   0.93816   0.02989   0.00000  Uiso   1.00
C103   C     0.81778   0.89561   0.01597   0.00000  Uiso   1.00
C104   C     0.87263   0.89916   0.03665   0.00000  Uiso   1.00
C105   C     0.96675   0.88549   0.05966   0.00000  Uiso   1.00
C106   C     0.74547   0.02458   0.07327   0.00000  Uiso   1.00
C107   C     0.69578   0.98855   0.09369   0.00000  Uiso   1.00
C108   C     0.66751   0.99709   0.13998   0.00000  Uiso   1.00
C109   C     0.62313   0.95947   0.15171   0.00000  Uiso   1.00
C110   C     0.72652   0.04633   0.02070   0.00000  Uiso   1.00
C111   C     0.72410   0.10345   0.00562   0.00000  Uiso   1.00
C112   C     0.70561   0.11449   0.95591   0.00000  Uiso   1.00
C113   C     0.79456   0.98269   0.06328   0.00000  Uiso   1.00
C114   C     0.84936   0.98630   0.08399   0.00000  Uiso   1.00
C115   C     0.88816   0.94376   0.07010   0.00000  Uiso   1.00
H116   H     0.70486   0.90795   0.98579   0.00000  Uiso   1.00
H117   H     0.62394   0.87195   0.04611   0.00000  Uiso   1.00
H118   H     0.68053   0.97830   0.91177   0.00000  Uiso   1.00
H119   H     0.80577   0.86116   0.99013   0.00000  Uiso   1.00
H120   H     0.54105   0.85168   0.12770   0.00000  Uiso   1.00
H121   H     0.66039   0.07592   0.84444   0.00000  Uiso   1.00
H122   H     0.92449   0.82893   0.00966   0.00000  Uiso   1.00
H123   H     0.75754   0.05924   0.09926   0.00000  Uiso   1.00
H124   H     0.67952   0.03155   0.16581   0.00000  Uiso   1.00
H125   H     0.73611   0.13790   0.03147   0.00000  Uiso   1.00
H126   H     0.86134   0.02076   0.10983   0.00000  Uiso   1.00
H127   H     0.58616   0.98122   0.22485   0.00000  Uiso   1.00
H128   H     0.70550   0.20546   0.94159   0.00000  Uiso   1.00
H129   H     0.96959   0.95847   0.10681   0.00000  Uiso   1.00
O130   O     0.51131   0.89551   0.21799   0.00000  Uiso   1.00
O131   O     0.66790   0.18971   0.84637   0.00000  Uiso   1.00
O132   O     0.01438   0.86565   0.06313   0.00000  Uiso   1.00
N133   N     0.56238   0.88596   0.14143   0.00000  Uiso   1.00
N134   N     0.67395   0.09562   0.87661   0.00000  Uiso   1.00
N135   N     0.92086   0.86471   0.03106   0.00000  Uiso   1.00
N136   N     0.58665   0.95567   0.19371   0.00000  Uiso   1.00
N137   N     0.69822   0.16532   0.92889   0.00000  Uiso   1.00
N138   N     0.94513   0.93441   0.08334   0.00000  Uiso   1.00
C139   C     0.21693   0.44261   0.51179   0.00000  Uiso   1.00
C140   C     0.18027   0.44402   0.56030   0.00000  Uiso   1.00
C141   C     0.13593   0.40639   0.57196   0.00000  Uiso   1.00
C142   C     0.10760   0.41487   0.61825   0.00000  Uiso   1.00
C143   C     0.04831   0.41032   0.68848   0.00000  Uiso   1.00
C144   C     0.21101   0.50181   0.48731   0.00000  Uiso   1.00
C145   C     0.19252   0.51276   0.43761   0.00000  Uiso   1.00
C146   C     0.19008   0.56988   0.42246   0.00000  Uiso   1.00
C147   C     0.17855   0.65504   0.37936   0.00000  Uiso   1.00
C148   C     0.27906   0.43816   0.52989   0.00000  Uiso   1.00
C149   C     0.31778   0.39561   0.51597   0.00000  Uiso   1.00
C150   C     0.37263   0.39916   0.53665   0.00000  Uiso   1.00
C151   C     0.46675   0.38549   0.55966   0.00000  Uiso   1.00
C152   C     0.24547   0.52458   0.57327   0.00000  Uiso   1.00
C153   C     0.19578   0.48855   0.59369   0.00000  Uiso   1.00
C154   C     0.16751   0.49709   0.63998   0.00000  Uiso   1.00
C155   C     0.12313   0.45947   0.65171   0.00000  Uiso   1.00
C156   C     0.22652   0.54633   0.52070   0.00000  Uiso   1.00
C157   C     0.22410   0.60345   0.50562   0.00000  Uiso   1.00
C158   C     0.20561   0.61449   0.45591   0.00000  Uiso   1.00
C159   C     0.29456   0.48269   0.56328   0.00000  Uiso   1.00
C160   C     0.34936   0.48630   0.58399   0.00000  Uiso   1.00
C161   C     0.38816   0.44376   0.57010   0.00000  Uiso   1.00
H162   H     0.20486   0.40795   0.48579   0.00000  Uiso   1.00
H163   H     0.12394   0.37195   0.54611   0.00000  Uiso   1.00
H164   H     0.18053   0.47830   0.41177   0.00000  Uiso   1.00
H165   H     0.30577   0.36116   0.49013   0.00000  Uiso   1.00
H166   H     0.04105   0.35168   0.62770   0.00000  Uiso   1.00
H167   H     0.16039   0.57592   0.34444   0.00000  Uiso   1.00
H168   H     0.42449   0.32893   0.50966   0.00000  Uiso   1.00
H169   H     0.25754   0.55924   0.59926   0.00000  Uiso   1.00
H170   H     0.17952   0.53155   0.66581   0.00000  Uiso   1.00
H171   H     0.23611   0.63790   0.53147   0.00000  Uiso   1.00
H172   H     0.36134   0.52076   0.60983   0.00000  Uiso   1.00
H173   H     0.08616   0.48122   0.72485   0.00000  Uiso   1.00
H174   H     0.20550   0.70546   0.44159   0.00000  Uiso   1.00
H175   H     0.46959   0.45847   0.60681   0.00000  Uiso   1.00
O176   O     0.01131   0.39551   0.71799   0.00000  Uiso   1.00
O177   O     0.16790   0.68971   0.34637   0.00000  Uiso   1.00
O178   O     0.51438   0.36565   0.56313   0.00000  Uiso   1.00
N179   N     0.06238   0.38596   0.64143   0.00000  Uiso   1.00
N180   N     0.17395   0.59562   0.37661   0.00000  Uiso   1.00
N181   N     0.42086   0.36471   0.53106   0.00000  Uiso   1.00
N182   N     0.08665   0.45567   0.69371   0.00000  Uiso   1.00
N183   N     0.19822   0.66532   0.42889   0.00000  Uiso   1.00
N184   N     0.44513   0.43441   0.58334   0.00000  Uiso   1.00
C185   C     0.44261   0.28307   0.76179   0.00000  Uiso   1.00
C186   C     0.44402   0.31973   0.81030   0.00000  Uiso   1.00
C187   C     0.40639   0.36407   0.82196   0.00000  Uiso   1.00
C188   C     0.41487   0.39240   0.86825   0.00000  Uiso   1.00
C189   C     0.41032   0.45169   0.93848   0.00000  Uiso   1.00
C190   C     0.50181   0.28899   0.73731   0.00000  Uiso   1.00
C191   C     0.51276   0.30748   0.68761   0.00000  Uiso   1.00
C192   C     0.56988   0.30992   0.67246   0.00000  Uiso   1.00
C193   C     0.65504   0.32145   0.62936   0.00000  Uiso   1.00
C194   C     0.43816   0.22094   0.77989   0.00000  Uiso   1.00
C195   C     0.39561   0.18222   0.76597   0.00000  Uiso   1.00
C196   C     0.39916   0.12737   0.78665   0.00000  Uiso   1.00
C197   C     0.38549   0.03325   0.80966   0.00000  Uiso   1.00
C198   C     0.52458   0.25453   0.82327   0.00000  Uiso   1.00
C199   C     0.48855   0.30422   0.84369   0.00000  Uiso   1.00
C200   C     0.49709   0.33249   0.88998   0.00000  Uiso   1.00
C201   C     0.45947   0.37687   0.90171   0.00000  Uiso   1.00
C202   C     0.54633   0.27348   0.77070   0.00000  Uiso   1.00
C203   C     0.60345   0.27590   0.75562   0.00000  Uiso   1.00
C204   C     0.61449   0.29439   0.70591   0.00000  Uiso   1.00
C205   C     0.48269   0.20544   0.81328   0.00000  Uiso   1.00
C206   C     0.48630   0.15064   0.83399   0.00000  Uiso   1.00
C207   C     0.44376   0.11184   0.82010   0.00000  Uiso   1.00
H208   H     0.40795   0.29514   0.73579   0.00000  Uiso   1.00
H209   H     0.37195   0.37606   0.79611   0.00000  Uiso   1.00
H210   H     0.47830   0.31947   0.66177   0.00000  Uiso   1.00
H211   H     0.36116   0.19423   0.74013   0.00000  Uiso   1.00
H212   H     0.35168   0.45895   0.87770   0.00000  Uiso   1.00
H213   H     0.57592   0.33961   0.59444   0.00000  Uiso   1.00
H214   H     0.32893   0.07551   0.75966   0.00000  Uiso   1.00
H215   H     0.55924   0.24246   0.84926   0.00000  Uiso   1.00
H216   H     0.53155   0.32048   0.91581   0.00000  Uiso   1.00
H217   H     0.63790   0.26389   0.78147   0.00000  Uiso   1.00
H218   H     0.52076   0.13866   0.85983   0.00000  Uiso   1.00
H219   H     0.48122   0.41384   0.97485   0.00000  Uiso   1.00
H220   H     0.70546   0.29450   0.69159   0.00000  Uiso   1.00
H221   H     0.45847   0.03041   0.85681   0.00000  Uiso   1.00
O222   O     0.39551   0.48869   0.96799   0.00000  Uiso   1.00
O223   O     0.68971   0.33210   0.59637   0.00000  Uiso   1.00
O224   O     0.36565   0.98562   0.81313   0.00000  Uiso   1.00
N225   N     0.38596   0.43762   0.89143   0.00000  Uiso   1.00
N226   N     0.59562   0.32605   0.62661   0.00000  Uiso   1.00
N227   N     0.36471   0.07914   0.78106   0.00000  Uiso   1.00
N228   N     0.45567   0.41335   0.94371   0.00000  Uiso   1.00
N229   N     0.66532   0.30178   0.67889   0.00000  Uiso   1.00
N230   N     0.43441   0.05487   0.83334   0.00000  Uiso   1.00
C231   C     0.94261   0.78307   0.26179   0.00000  Uiso   1.00
C232   C     0.94402   0.81973   0.31030   0.00000  Uiso   1.00
C233   C     0.90639   0.86407   0.32196   0.00000  Uiso   1.00
C234   C     0.91487   0.89240   0.36825   0.00000  Uiso   1.00
C235   C     0.91032   0.95169   0.43848   0.00000  Uiso   1.00
C236   C     0.00181   0.78899   0.23731   0.00000  Uiso   1.00
C237   C     0.01276   0.80748   0.18761   0.00000  Uiso   1.00
C238   C     0.06988   0.80992   0.17246   0.00000  Uiso   1.00
C239   C     0.15504   0.82145   0.12936   0.00000  Uiso   1.00
C240   C     0.93816   0.72094   0.27989   0.00000  Uiso   1.00
C241   C     0.89561   0.68222   0.26597   0.00000  Uiso   1.00
C242   C     0.89916   0.62737   0.28665   0.00000  Uiso   1.00
C243   C     0.88549   0.53325   0.30966   0.00000  Uiso   1.00
C244   C     0.02458   0.75453   0.32327   0.00000  Uiso   1.00
C245   C     0.98855   0.80422   0.34369   0.00000  Uiso   1.00
C246   C     0.99709   0.83249   0.38998   0.00000  Uiso   1.00
C247   C     0.95947   0.87687   0.40171   0.00000  Uiso   1.00
C248   C     0.04633   0.77348   0.27070   0.00000  Uiso   1.00
C249   C     0.10345   0.77590   0.25562   0.00000  Uiso   1.00
C250   C     0.11449   0.79439   0.20591   0.00000  Uiso   1.00
C251   C     0.98269   0.70544   0.31328   0.00000  Uiso   1.00
C252   C     0.98630   0.65064   0.33399   0.00000  Uiso   1.00
C253   C     0.94376   0.61184   0.32010   0.00000  Uiso   1.00
H254   H     0.90795   0.79514   0.23579   0.00000  Uiso   1.00
H255   H     0.87195   0.87606   0.29611   0.00000  Uiso   1.00
H256   H     0.97830   0.81947   0.16177   0.00000  Uiso   1.00
H257   H     0.86116   0.69423   0.24013   0.00000  Uiso   1.00
H258   H     0.85168   0.95895   0.37770   0.00000  Uiso   1.00
H259   H     0.07592   0.83961   0.09444   0.00000  Uiso   1.00
H260   H     0.82893   0.57551   0.25966   0.00000  Uiso   1.00
H261   H     0.05924   0.74246   0.34926   0.00000  Uiso   1.00
H262   H     0.03155   0.82048   0.41581   0.00000  Uiso   1.00
H263   H     0.13790   0.76389   0.28147   0.00000  Uiso   1.00
H264   H     0.02076   0.63866   0.35983   0.00000  Uiso   1.00
H265   H     0.98122   0.91384   0.47485   0.00000  Uiso   1.00
H266   H     0.20546   0.79450   0.19159   0.00000  Uiso   1.00
H267   H     0.95847   0.53041   0.35681   0.00000  Uiso   1.00
O268   O     0.89551   0.98869   0.46799   0.00000  Uiso   1.00
O269   O     0.18971   0.83210   0.09637   0.00000  Uiso   1.00
O270   O     0.86565   0.48562   0.31313   0.00000  Uiso   1.00
N271   N     0.88596   0.93762   0.39143   0.00000  Uiso   1.00
N272   N     0.09562   0.82605   0.12661   0.00000  Uiso   1.00
N273   N     0.86471   0.57914   0.28106   0.00000  Uiso   1.00
N274   N     0.95567   0.91335   0.44371   0.00000  Uiso   1.00
N275   N     0.16532   0.80178   0.17889   0.00000  Uiso   1.00
N276   N     0.93441   0.55487   0.33334   0.00000  Uiso   1.00
C277   C     0.05739   0.21693   0.26179   0.00000  Uiso   1.00
C278   C     0.05598   0.18027   0.31030   0.00000  Uiso   1.00
C279   C     0.09361   0.13593   0.32196   0.00000  Uiso   1.00
C280   C     0.08513   0.10760   0.36825   0.00000  Uiso   1.00
C281   C     0.08968   0.04831   0.43848   0.00000  Uiso   1.00
C282   C     0.99819   0.21101   0.23731   0.00000  Uiso   1.00
C283   C     0.98724   0.19252   0.18761   0.00000  Uiso   1.00
C284   C     0.93012   0.19008   0.17246   0.00000  Uiso   1.00
C285   C     0.84496   0.17855   0.12936   0.00000  Uiso   1.00
C286   C     0.06184   0.27906   0.27989   0.00000  Uiso   1.00
C287   C     0.10439   0.31778   0.26597   0.00000  Uiso   1.00
C288   C     0.10084   0.37263   0.28665   0.00000  Uiso   1.00
C289   C     0.11451   0.46675   0.30966   0.00000  Uiso   1.00
C290   C     0.97542   0.24547   0.32327   0.00000  Uiso   1.00
C291   C     0.01145   0.19578   0.34369   0.00000  Uiso   1.00
C292   C     0.00291   0.16751   0.38998   0.00000  Uiso   1.00
C293   C     0.04053   0.12313   0.40171   0.00000  Uiso   1.00
C294   C     0.95367   0.22652   0.27070   0.00000  Uiso   1.00
C295   C     0.89655   0.22410   0.25562   0.00000  Uiso   1.00
C296   C     0.88551   0.20561   0.20591   0.00000  Uiso   1.00
C297   C     0.01731   0.29456   0.31328   0.00000  Uiso   1.00
C298   C     0.01370   0.34936   0.33399   0.00000  Uiso   1.00
C299   C     0.05624   0.38816   0.32010   0.00000  Uiso   1.00
H300   H     0.09205   0.20486   0.23579   0.00000  Uiso   1.00
H301   H     0.12805   0.12394   0.29611   0.00000  Uiso   1.00
H302   H     0.02170   0.18053   0.16177   0.00000  Uiso   1.00
H303   H     0.13884   0.30577   0.24013   0.00000  Uiso   1.00
H304   H     0.14832   0.04105   0.37770   0.00000  Uiso   1.00
H305   H     0.92408   0.16039   0.09444   0.00000  Uiso   1.00
H306   H     0.17107   0.42449   0.25966   0.00000  Uiso   1.00
H307   H     0.94076   0.25754   0.34926   0.00000  Uiso   1.00
H308   H     0.96845   0.17952   0.41581   0.00000  Uiso   1.00
H309   H     0.86210   0.23611   0.28147   0.00000  Uiso   1.00
H310   H     0.97924   0.36134   0.35983   0.00000  Uiso   1.00
H311   H     0.01878   0.08616   0.47485   0.00000  Uiso   1.00
H312   H     0.79454   0.20550   0.19159   0.00000  Uiso   1.00
H313   H     0.04153   0.46959   0.35681   0.00000  Uiso   1.00
O314   O     0.10449   0.01131   0.46799   0.00000  Uiso   1.00
O315   O     0.81029   0.16790   0.09637   0.00000  Uiso   1.00
O316   O     0.13435   0.51438   0.31313   0.00000  Uiso   1.00
N317   N     0.11404   0.06238   0.39143   0.00000  Uiso   1.00
N318   N     0.90438   0.17395   0.12661   0.00000  Uiso   1.00
N319   N     0.13529   0.42086   0.28106   0.00000  Uiso   1.00
N320   N     0.04433   0.08665   0.44371   0.00000  Uiso   1.00
N321   N     0.83468   0.19822   0.17889   0.00000  Uiso   1.00
N322   N     0.06559   0.44513   0.33334   0.00000  Uiso   1.00
C323   C     0.55739   0.71693   0.76179   0.00000  Uiso   1.00
C324   C     0.55598   0.68027   0.81030   0.00000  Uiso   1.00
C325   C     0.59361   0.63593   0.82196   0.00000  Uiso   1.00
C326   C     0.58513   0.60760   0.86825   0.00000  Uiso   1.00
C327   C     0.58968   0.54831   0.93848   0.00000  Uiso   1.00
C328   C     0.49819   0.71101   0.73731   0.00000  Uiso   1.00
C329   C     0.48724   0.69252   0.68761   0.00000  Uiso   1.00
C330   C     0.43012   0.69008   0.67246   0.00000  Uiso   1.00
C331   C     0.34496   0.67855   0.62936   0.00000  Uiso   1.00
C332   C     0.56184   0.77906   0.77989   0.00000  Uiso   1.00
C333   C     0.60439   0.81778   0.76597   0.00000  Uiso   1.00
C334   C     0.60084   0.87263   0.78665   0.00000  Uiso   1.00
C335   C     0.61451   0.96675   0.80966   0.00000  Uiso   1.00
C336   C     0.47542   0.74547   0.82327   0.00000  Uiso   1.00
C337   C     0.51145   0.69578   0.84369   0.00000  Uiso   1.00
C338   C     0.50291   0.66751   0.88998   0.00000  Uiso   1.00
C339   C     0.54053   0.62313   0.90171   0.00000  Uiso   1.00
C340   C     0.45367   0.72652   0.77070   0.00000  Uiso   1.00
C341   C     0.39655   0.72410   0.75562   0.00000  Uiso   1.00
C342   C     0.38551   0.70561   0.70591   0.00000  Uiso   1.00
C343   C     0.51731   0.79456   0.81328   0.00000  Uiso   1.00
C344   C     0.51370   0.84936   0.83399   0.00000  Uiso   1.00
C345   C     0.55624   0.88816   0.82010   0.00000  Uiso   1.00
H346   H     0.59205   0.70486   0.73579   0.00000  Uiso   1.00
H347   H     0.62805   0.62394   0.79611   0.00000  Uiso   1.00
H348   H     0.52170   0.68053   0.66177   0.00000  Uiso   1.00
H349   H     0.63884   0.80577   0.74013   0.00000  Uiso   1.00
H350   H     0.64832   0.54105   0.87770   0.00000  Uiso   1.00
H351   H     0.42408   0.66039   0.59444   0.00000  Uiso   1.00
H352   H     0.67107   0.92449   0.75966   0.00000  Uiso   1.00
H353   H     0.44076   0.75754   0.84926   0.00000  Uiso   1.00
H354   H     0.46845   0.67952   0.91581   0.00000  Uiso   1.00
H355   H     0.36210   0.73611   0.78147   0.00000  Uiso   1.00
H356   H     0.47924   0.86134   0.85983   0.00000  Uiso   1.00
H357   H     0.51878   0.58616   0.97485   0.00000  Uiso   1.00
H358   H     0.29454   0.70550   0.69159   0.00000  Uiso   1.00
H359   H     0.54153   0.96959   0.85681   0.00000  Uiso   1.00
O360   O     0.60449   0.51131   0.96799   0.00000  Uiso   1.00
O361   O     0.31029   0.66790   0.59637   0.00000  Uiso   1.00
O362   O     0.63435   0.01438   0.81313   0.00000  Uiso   1.00
N363   N     0.61404   0.56238   0.89143   0.00000  Uiso   1.00
N364   N     0.40438   0.67395   0.62661   0.00000  Uiso   1.00
N365   N     0.63529   0.92086   0.78106   0.00000  Uiso   1.00
N366   N     0.54433   0.58665   0.94371   0.00000  Uiso   1.00
N367   N     0.33468   0.69822   0.67889   0.00000  Uiso   1.00
N368   N     0.56559   0.94513   0.83334   0.00000  Uiso   1.00
C369   C     0.21693   0.94261   0.73821   0.00000  Uiso   1.00
C370   C     0.18027   0.94402   0.68970   0.00000  Uiso   1.00
C371   C     0.13593   0.90639   0.67804   0.00000  Uiso   1.00
C372   C     0.10760   0.91487   0.63175   0.00000  Uiso   1.00
C373   C     0.04831   0.91032   0.56152   0.00000  Uiso   1.00
C374   C     0.21101   0.00181   0.76269   0.00000  Uiso   1.00
C375   C     0.19252   0.01276   0.81239   0.00000  Uiso   1.00
C376   C     0.19008   0.06988   0.82754   0.00000  Uiso   1.00
C377   C     0.17855   0.15504   0.87064   0.00000  Uiso   1.00
C378   C     0.27906   0.93816   0.72011   0.00000  Uiso   1.00
C379   C     0.31778   0.89561   0.73403   0.00000  Uiso   1.00
C380   C     0.37263   0.89916   0.71335   0.00000  Uiso   1.00
C381   C     0.46675   0.88549   0.69034   0.00000  Uiso   1.00
C382   C     0.24547   0.02458   0.67673   0.00000  Uiso   1.00
C383   C     0.19578   0.98855   0.65631   0.00000  Uiso   1.00
C384   C     0.16751   0.99709   0.61002   0.00000  Uiso   1.00
C385   C     0.12313   0.95947   0.59829   0.00000  Uiso   1.00
C386   C     0.22652   0.04633   0.72930   0.00000  Uiso   1.00
C387   C     0.22410   0.10345   0.74438   0.00000  Uiso   1.00
C388   C     0.20561   0.11449   0.79409   0.00000  Uiso   1.00
C389   C     0.29456   0.98269   0.68672   0.00000  Uiso   1.00
C390   C     0.34936   0.98630   0.66601   0.00000  Uiso   1.00
C391   C     0.38816   0.94376   0.67990   0.00000  Uiso   1.00
H392   H     0.20486   0.90795   0.76421   0.00000  Uiso   1.00
H393   H     0.12394   0.87195   0.70389   0.00000  Uiso   1.00
H394   H     0.18053   0.97830   0.83823   0.00000  Uiso   1.00
H395   H     0.30577   0.86116   0.75987   0.00000  Uiso   1.00
H396   H     0.04105   0.85168   0.62230   0.00000  Uiso   1.00
H397   H     0.16039   0.07592   0.90556   0.00000  Uiso   1.00
H398   H     0.42449   0.82893   0.74034   0.00000  Uiso   1.00
H399   H     0.25754   0.05924   0.65074   0.00000  Uiso   1.00
H400   H     0.17952   0.03155   0.58419   0.00000  Uiso   1.00
H401   H     0.23611   0.13790   0.71853   0.00000  Uiso   1.00
H402   H     0.36134   0.02076   0.64017   0.00000  Uiso   1.00
H403   H     0.08616   0.98122   0.52515   0.00000  Uiso   1.00
H404   H     0.20550   0.20546   0.80841   0.00000  Uiso   1.00
H405   H     0.46959   0.95847   0.64319   0.00000  Uiso   1.00
O406   O     0.01131   0.89551   0.53201   0.00000  Uiso   1.00
O407   O     0.16790   0.18971   0.90363   0.00000  Uiso   1.00
O408   O     0.51438   0.86565   0.68687   0.00000  Uiso   1.00
N409   N     0.06238   0.88596   0.60857   0.00000  Uiso   1.00
N410   N     0.17395   0.09562   0.87339   0.00000  Uiso   1.00
N411   N     0.42086   0.86471   0.71894   0.00000  Uiso   1.00
N412   N     0.08665   0.95567   0.55629   0.00000  Uiso   1.00
N413   N     0.19822   0.16532   0.82111   0.00000  Uiso   1.00
N414   N     0.44513   0.93441   0.66666   0.00000  Uiso   1.00
C415   C     0.71693   0.44261   0.23821   0.00000  Uiso   1.00
C416   C     0.68027   0.44402   0.18970   0.00000  Uiso   1.00
C417   C     0.63593   0.40639   0.17804   0.00000  Uiso   1.00
C418   C     0.60760   0.41487   0.13175   0.00000  Uiso   1.00
C419   C     0.54831   0.41032   0.06152   0.00000  Uiso   1.00
C420   C     0.71101   0.50181   0.26269   0.00000  Uiso   1.00
C421   C     0.69252   0.51276   0.31239   0.00000  Uiso   1.00
C422   C     0.69008   0.56988   0.32754   0.00000  Uiso   1.00
C423   C     0.67855   0.65504   0.37064   0.00000  Uiso   1.00
C424   C     0.77906   0.43816   0.22011   0.00000  Uiso   1.00
C425   C     0.81778   0.39561   0.23403   0.00000  Uiso   1.00
C426   C     0.87263   0.39916   0.21335   0.00000  Uiso   1.00
C427   C     0.96675   0.38549   0.19034   0.00000  Uiso   1.00
C428   C     0.74547   0.52458   0.17673   0.00000  Uiso   1.00
C429   C     0.69578   0.48855   0.15631   0.00000  Uiso   1.00
C430   C     0.66751   0.49709   0.11002   0.00000  Uiso   1.00
C431   C     0.62313   0.45947   0.09829   0.00000  Uiso   1.00
C432   C     0.72652   0.54633   0.22930   0.00000  Uiso   1.00
C433   C     0.72410   0.60345   0.24438   0.00000  Uiso   1.00
C434   C     0.70561   0.61449   0.29409   0.00000  Uiso   1.00
C435   C     0.79456   0.48269   0.18672   0.00000  Uiso   1.00
C436   C     0.84936   0.48630   0.16601   0.00000  Uiso   1.00
C437   C     0.88816   0.44376   0.17990   0.00000  Uiso   1.00
H438   H     0.70486   0.40795   0.26421   0.00000  Uiso   1.00
H439   H     0.62394   0.37195   0.20389   0.00000  Uiso   1.00
H440   H     0.68053   0.47830   0.33823   0.00000  Uiso   1.00
H441   H     0.80577   0.36116   0.25987   0.00000  Uiso   1.00
H442   H     0.54105   0.35168   0.12230   0.00000  Uiso   1.00
H443   H     0.66039   0.57592   0.40556   0.00000  Uiso   1.00
H444   H     0.92449   0.32893   0.24034   0.00000  Uiso   1.00
H445   H     0.75754   0.55924   0.15074   0.00000  Uiso   1.00
H446   H     0.67952   0.53155   0.08419   0.00000  Uiso   1.00
H447   H     0.73611   0.63790   0.21853   0.00000  Uiso   1.00
H448   H     0.86134   0.52076   0.14017   0.00000  Uiso   1.00
H449   H     0.58616   0.48122   0.02515   0.00000  Uiso   1.00
H450   H     0.70550   0.70546   0.30841   0.00000  Uiso   1.00
H451   H     0.96959   0.45847   0.14319   0.00000  Uiso   1.00
O452   O     0.51131   0.39551   0.03201   0.00000  Uiso   1.00
O453   O     0.66790   0.68971   0.40363   0.00000  Uiso   1.00
O454   O     0.01438   0.36565   0.18687   0.00000  Uiso   1.00
N455   N     0.56238   0.38596   0.10857   0.00000  Uiso   1.00
N456   N     0.67395   0.59562   0.37339   0.00000  Uiso   1.00
N457   N     0.92086   0.36471   0.21894   0.00000  Uiso   1.00
N458   N     0.58665   0.45567   0.05629   0.00000  Uiso   1.00
N459   N     0.69822   0.66532   0.32111   0.00000  Uiso   1.00
N460   N     0.94513   0.43441   0.16666   0.00000  Uiso   1.00
C461   C     0.28307   0.55739   0.23821   0.00000  Uiso   1.00
C462   C     0.31973   0.55598   0.18970   0.00000  Uiso   1.00
C463   C     0.36407   0.59361   0.17804   0.00000  Uiso   1.00
C464   C     0.39240   0.58513   0.13175   0.00000  Uiso   1.00
C465   C     0.45169   0.58968   0.06152   0.00000  Uiso   1.00
C466   C     0.28899   0.49819   0.26269   0.00000  Uiso   1.00
C467   C     0.30748   0.48724   0.31239   0.00000  Uiso   1.00
C468   C     0.30992   0.43012   0.32754   0.00000  Uiso   1.00
C469   C     0.32145   0.34496   0.37064   0.00000  Uiso   1.00
C470   C     0.22094   0.56184   0.22011   0.00000  Uiso   1.00
C471   C     0.18222   0.60439   0.23403   0.00000  Uiso   1.00
C472   C     0.12737   0.60084   0.21335   0.00000  Uiso   1.00
C473   C     0.03325   0.61451   0.19034   0.00000  Uiso   1.00
C474   C     0.25453   0.47542   0.17673   0.00000  Uiso   1.00
C475   C     0.30422   0.51145   0.15631   0.00000  Uiso   1.00
C476   C     0.33249   0.50291   0.11002   0.00000  Uiso   1.00
C477   C     0.37687   0.54053   0.09829   0.00000  Uiso   1.00
C478   C     0.27348   0.45367   0.22930   0.00000  Uiso   1.00
C479   C     0.27590   0.39655   0.24438   0.00000  Uiso   1.00
C480   C     0.29439   0.38551   0.29409   0.00000  Uiso   1.00
C481   C     0.20544   0.51731   0.18672   0.00000  Uiso   1.00
C482   C     0.15064   0.51370   0.16601   0.00000  Uiso   1.00
C483   C     0.11184   0.55624   0.17990   0.00000  Uiso   1.00
H484   H     0.29514   0.59205   0.26421   0.00000  Uiso   1.00
H485   H     0.37606   0.62805   0.20389   0.00000  Uiso   1.00
H486   H     0.31947   0.52170   0.33823   0.00000  Uiso   1.00
H487   H     0.19423   0.63884   0.25987   0.00000  Uiso   1.00
H488   H     0.45895   0.64832   0.12230   0.00000  Uiso   1.00
H489   H     0.33961   0.42408   0.40556   0.00000  Uiso   1.00
H490   H     0.07551   0.67107   0.24034   0.00000  Uiso   1.00
H491   H     0.24246   0.44076   0.15074   0.00000  Uiso   1.00
H492   H     0.32048   0.46845   0.08419   0.00000  Uiso   1.00
H493   H     0.26389   0.36210   0.21853   0.00000  Uiso   1.00
H494   H     0.13866   0.47924   0.14017   0.00000  Uiso   1.00
H495   H     0.41384   0.51878   0.02515   0.00000  Uiso   1.00
H496   H     0.29450   0.29454   0.30841   0.00000  Uiso   1.00
H497   H     0.03041   0.54153   0.14319   0.00000  Uiso   1.00
O498   O     0.48869   0.60449   0.03201   0.00000  Uiso   1.00
O499   O     0.33210   0.31029   0.40363   0.00000  Uiso   1.00
O500   O     0.98562   0.63435   0.18687   0.00000  Uiso   1.00
N501   N     0.43762   0.61404   0.10857   0.00000  Uiso   1.00
N502   N     0.32605   0.40438   0.37339   0.00000  Uiso   1.00
N503   N     0.07914   0.63529   0.21894   0.00000  Uiso   1.00
N504   N     0.41335   0.54433   0.05629   0.00000  Uiso   1.00
N505   N     0.30178   0.33468   0.32111   0.00000  Uiso   1.00
N506   N     0.05487   0.56559   0.16666   0.00000  Uiso   1.00
C507   C     0.78307   0.05739   0.73821   0.00000  Uiso   1.00
C508   C     0.81973   0.05598   0.68970   0.00000  Uiso   1.00
C509   C     0.86407   0.09361   0.67804   0.00000  Uiso   1.00
C510   C     0.89240   0.08513   0.63175   0.00000  Uiso   1.00
C511   C     0.95169   0.08968   0.56152   0.00000  Uiso   1.00
C512   C     0.78899   0.99819   0.76269   0.00000  Uiso   1.00
C513   C     0.80748   0.98724   0.81239   0.00000  Uiso   1.00
C514   C     0.80992   0.93012   0.82754   0.00000  Uiso   1.00
C515   C     0.82145   0.84496   0.87064   0.00000  Uiso   1.00
C516   C     0.72094   0.06184   0.72011   0.00000  Uiso   1.00
C517   C     0.68222   0.10439   0.73403   0.00000  Uiso   1.00
C518   C     0.62737   0.10084   0.71335   0.00000  Uiso   1.00
C519   C     0.53325   0.11451   0.69034   0.00000  Uiso   1.00
C520   C     0.75453   0.97542   0.67673   0.00000  Uiso   1.00
C521   C     0.80422   0.01145   0.65631   0.00000  Uiso   1.00
C522   C     0.83249   0.00291   0.61002   0.00000  Uiso   1.00
C523   C     0.87687   0.04053   0.59829   0.00000  Uiso   1.00
C524   C     0.77348   0.95367   0.72930   0.00000  Uiso   1.00
C525   C     0.77590   0.89655   0.74438   0.00000  Uiso   1.00
C526   C     0.79439   0.88551   0.79409   0.00000  Uiso   1.00
C527   C     0.70544   0.01731   0.68672   0.00000  Uiso   1.00
C528   C     0.65064   0.01370   0.66601   0.00000  Uiso   1.00
C529   C     0.61184   0.05624   0.67990   0.00000  Uiso   1.00
H530   H     0.79514   0.09205   0.76421   0.00000  Uiso   1.00
H531   H     0.87606   0.12805   0.70389   0.00000  Uiso   1.00
H532   H     0.81947   0.02170   0.83823   0.00000  Uiso   1.00
H533   H     0.69423   0.13884   0.75987   0.00000  Uiso   1.00
H534   H     0.95895   0.14832   0.62230   0.00000  Uiso   1.00
H535   H     0.83961   0.92408   0.90556   0.00000  Uiso   1.00
H536   H     0.57551   0.17107   0.74034   0.00000  Uiso   1.00
H537   H     0.74246   0.94076   0.65074   0.00000  Uiso   1.00
H538   H     0.82048   0.96845   0.58419   0.00000  Uiso   1.00
H539   H     0.76389   0.86210   0.71853   0.00000  Uiso   1.00
H540   H     0.63866   0.97924   0.64017   0.00000  Uiso   1.00
H541   H     0.91384   0.01878   0.52515   0.00000  Uiso   1.00
H542   H     0.79450   0.79454   0.80841   0.00000  Uiso   1.00
H543   H     0.53041   0.04153   0.64319   0.00000  Uiso   1.00
O544   O     0.98869   0.10449   0.53201   0.00000  Uiso   1.00
O545   O     0.83210   0.81029   0.90363   0.00000  Uiso   1.00
O546   O     0.48562   0.13435   0.68687   0.00000  Uiso   1.00
N547   N     0.93762   0.11404   0.60857   0.00000  Uiso   1.00
N548   N     0.82605   0.90438   0.87339   0.00000  Uiso   1.00
N549   N     0.57914   0.13529   0.71894   0.00000  Uiso   1.00
N550   N     0.91335   0.04433   0.55629   0.00000  Uiso   1.00
N551   N     0.80178   0.83468   0.82111   0.00000  Uiso   1.00
N552   N     0.55487   0.06559   0.66666   0.00000  Uiso   1.00
C553   C     0.55739   0.21693   0.48821   0.00000  Uiso   1.00
C554   C     0.55598   0.18027   0.43970   0.00000  Uiso   1.00
C555   C     0.59361   0.13593   0.42804   0.00000  Uiso   1.00
C556   C     0.58513   0.10760   0.38175   0.00000  Uiso   1.00
C557   C     0.58968   0.04831   0.31152   0.00000  Uiso   1.00
C558   C     0.49819   0.21101   0.51269   0.00000  Uiso   1.00
C559   C     0.48724   0.19252   0.56239   0.00000  Uiso   1.00
C560   C     0.43012   0.19008   0.57754   0.00000  Uiso   1.00
C561   C     0.34496   0.17855   0.62064   0.00000  Uiso   1.00
C562   C     0.56184   0.27906   0.47011   0.00000  Uiso   1.00
C563   C     0.60439   0.31778   0.48403   0.00000  Uiso   1.00
C564   C     0.60084   0.37263   0.46335   0.00000  Uiso   1.00
C565   C     0.61451   0.46675   0.44034   0.00000  Uiso   1.00
C566   C     0.47542   0.24547   0.42673   0.00000  Uiso   1.00
C567   C     0.51145   0.19578   0.40631   0.00000  Uiso   1.00
C568   C     0.50291   0.16751   0.36002   0.00000  Uiso   1.00
C569   C     0.54053   0.12313   0.34829   0.00000  Uiso   1.00
C570   C     0.45367   0.22652   0.47930   0.00000  Uiso   1.00
C571   C     0.39655   0.22410   0.49438   0.00000  Uiso   1.00
C572   C     0.38551   0.20561   0.54409   0.00000  Uiso   1.00
C573   C     0.51731   0.29456   0.43672   0.00000  Uiso   1.00
C574   C     0.51370   0.34936   0.41601   0.00000  Uiso   1.00
C575   C     0.55624   0.38816   0.42990   0.00000  Uiso   1.00
H576   H     0.59205   0.20486   0.51421   0.00000  Uiso   1.00
H577   H     0.62805   0.12394   0.45389   0.00000  Uiso   1.00
H578   H     0.52170   0.18053   0.58823   0.00000  Uiso   1.00
H579   H     0.63884   0.30577   0.50987   0.00000  Uiso   1.00
H580   H     0.64832   0.04105   0.37230   0.00000  Uiso   1.00
H581   H     0.42408   0.16039   0.65556   0.00000  Uiso   1.00
H582   H     0.67107   0.42449   0.49034   0.00000  Uiso   1.00
H583   H     0.44076   0.25754   0.40074   0.00000  Uiso   1.00
H584   H     0.46845   0.17952   0.33419   0.00000  Uiso   1.00
H585   H     0.36210   0.23611   0.46853   0.00000  Uiso   1.00
H586   H     0.47924   0.36134   0.39017   0.00000  Uiso   1.00
H587   H     0.51878   0.08616   0.27515   0.00000  Uiso   1.00
H588   H     0.29454   0.20550   0.55841   0.00000  Uiso   1.00
H589   H     0.54153   0.46959   0.39319   0.00000  Uiso   1.00
O590   O     0.60449   0.01131   0.28201   0.00000  Uiso   1.00
O591   O     0.31029   0.16790   0.65363   0.00000  Uiso   1.00
O592   O     0.63435   0.51438   0.43687   0.00000  Uiso   1.00
N593   N     0.61404   0.06238   0.35857   0.00000  Uiso   1.00
N594   N     0.40438   0.17395   0.62339   0.00000  Uiso   1.00
N595   N     0.63529   0.42086   0.46894   0.00000  Uiso   1.00
N596   N     0.54433   0.08665   0.30629   0.00000  Uiso   1.00
N597   N     0.33468   0.19822   0.57111   0.00000  Uiso   1.00
N598   N     0.56559   0.44513   0.41666   0.00000  Uiso   1.00
C599   C     0.05739   0.71693   0.98821   0.00000  Uiso   1.00
C600   C     0.05598   0.68027   0.93970   0.00000  Uiso   1.00
C601   C     0.09361   0.63593   0.92804   0.00000  Uiso   1.00
C602   C     0.08513   0.60760   0.88175   0.00000  Uiso   1.00
C603   C     0.08968   0.54831   0.81152   0.00000  Uiso   1.00
C604   C     0.99819   0.71101   0.01269   0.00000  Uiso   1.00
C605   C     0.98724   0.69252   0.06239   0.00000  Uiso   1.00
C606   C     0.93012   0.69008   0.07754   0.00000  Uiso   1.00
C607   C     0.84496   0.67855   0.12064   0.00000  Uiso   1.00
C608   C     0.06184   0.77906   0.97011   0.00000  Uiso   1.00
C609   C     0.10439   0.81778   0.98403   0.00000  Uiso   1.00
C610   C     0.10084   0.87263   0.96335   0.00000  Uiso   1.00
C611   C     0.11451   0.96675   0.94034   0.00000  Uiso   1.00
C612   C     0.97542   0.74547   0.92673   0.00000  Uiso   1.00
C613   C     0.01145   0.69578   0.90631   0.00000  Uiso   1.00
C614   C     0.00291   0.66751   0.86002   0.00000  Uiso   1.00
C615   C     0.04053   0.62313   0.84829   0.00000  Uiso   1.00
C616   C     0.95367   0.72652   0.97930   0.00000  Uiso   1.00
C617   C     0.89655   0.72410   0.99438   0.00000  Uiso   1.00
C618   C     0.88551   0.70561   0.04409   0.00000  Uiso   1.00
C619   C     0.01731   0.79456   0.93672   0.00000  Uiso   1.00
C620   C     0.01370   0.84936   0.91601   0.00000  Uiso   1.00
C621   C     0.05624   0.88816   0.92990   0.00000  Uiso   1.00
H622   H     0.09205   0.70486   0.01421   0.00000  Uiso   1.00
H623   H     0.12805   0.62394   0.95389   0.00000  Uiso   1.00
H624   H     0.02170   0.68053   0.08823   0.00000  Uiso   1.00
H625   H     0.13884   0.80577   0.00987   0.00000  Uiso   1.00
H626   H     0.14832   0.54105   0.87230   0.00000  Uiso   1.00
H627   H     0.92408   0.66039   0.15556   0.00000  Uiso   1.00
H628   H     0.17107   0.92449   0.99034   0.00000  Uiso   1.00
H629   H     0.94076   0.75754   0.90074   0.00000  Uiso   1.00
H630   H     0.96845   0.67952   0.83419   0.00000  Uiso   1.00
H631   H     0.86210   0.73611   0.96853   0.00000  Uiso   1.00
H632   H     0.97924   0.86134   0.89017   0.00000  Uiso   1.00
H633   H     0.01878   0.58616   0.77515   0.00000  Uiso   1.00
H634   H     0.79454   0.70550   0.05841   0.00000  Uiso   1.00
H635   H     0.04153   0.96959   0.89319   0.00000  Uiso   1.00
O636   O     0.10449   0.51131   0.78201   0.00000  Uiso   1.00
O637   O     0.81029   0.66790   0.15363   0.00000  Uiso   1.00
O638   O     0.13435   0.01438   0.93687   0.00000  Uiso   1.00
N639   N     0.11404   0.56238   0.85857   0.00000  Uiso   1.00
N640   N     0.90438   0.67395   0.12339   0.00000  Uiso   1.00
N641   N     0.13529   0.92086   0.96894   0.00000  Uiso   1.00
N642   N     0.04433   0.58665   0.80629   0.00000  Uiso   1.00
N643   N     0.83468   0.69822   0.07111   0.00000  Uiso   1.00
N644   N     0.06559   0.94513   0.91666   0.00000  Uiso   1.00
C645   C     0.94261   0.28307   0.98821   0.00000  Uiso   1.00
C646   C     0.94402   0.31973   0.93970   0.00000  Uiso   1.00
C647   C     0.90639   0.36407   0.92804   0.00000  Uiso   1.00
C648   C     0.91487   0.39240   0.88175   0.00000  Uiso   1.00
C649   C     0.91032   0.45169   0.81152   0.00000  Uiso   1.00
C650   C     0.00181   0.28899   0.01269   0.00000  Uiso   1.00
C651   C     0.01276   0.30748   0.06239   0.00000  Uiso   1.00
C652   C     0.06988   0.30992   0.07754   0.00000  Uiso   1.00
C653   C     0.15504   0.32145   0.12064   0.00000  Uiso   1.00
C654   C     0.93816   0.22094   0.97011   0.00000  Uiso   1.00
C655   C     0.89561   0.18222   0.98403   0.00000  Uiso   1.00
C656   C     0.89916   0.12737   0.96335   0.00000  Uiso   1.00
C657   C     0.88549   0.03325   0.94034   0.00000  Uiso   1.00
C658   C     0.02458   0.25453   0.92673   0.00000  Uiso   1.00
C659   C     0.98855   0.30422   0.90631   0.00000  Uiso   1.00
C660   C     0.99709   0.33249   0.86002   0.00000  Uiso   1.00
C661   C     0.95947   0.37687   0.84829   0.00000  Uiso   1.00
C662   C     0.04633   0.27348   0.97930   0.00000  Uiso   1.00
C663   C     0.10345   0.27590   0.99438   0.00000  Uiso   1.00
C664   C     0.11449   0.29439   0.04409   0.00000  Uiso   1.00
C665   C     0.98269   0.20544   0.93672   0.00000  Uiso   1.00
C666   C     0.98630   0.15064   0.91601   0.00000  Uiso   1.00
C667   C     0.94376   0.11184   0.92990   0.00000  Uiso   1.00
H668   H     0.90795   0.29514   0.01421   0.00000  Uiso   1.00
H669   H     0.87195   0.37606   0.95389   0.00000  Uiso   1.00
H670   H     0.97830   0.31947   0.08823   0.00000  Uiso   1.00
H671   H     0.86116   0.19423   0.00987   0.00000  Uiso   1.00
H672   H     0.85168   0.45895   0.87230   0.00000  Uiso   1.00
H673   H     0.07592   0.33961   0.15556   0.00000  Uiso   1.00
H674   H     0.82893   0.07551   0.99034   0.00000  Uiso   1.00
H675   H     0.05924   0.24246   0.90074   0.00000  Uiso   1.00
H676   H     0.03155   0.32048   0.83419   0.00000  Uiso   1.00
H677   H     0.13790   0.26389   0.96853   0.00000  Uiso   1.00
H678   H     0.02076   0.13866   0.89017   0.00000  Uiso   1.00
H679   H     0.98122   0.41384   0.77515   0.00000  Uiso   1.00
H680   H     0.20546   0.29450   0.05841   0.00000  Uiso   1.00
H681   H     0.95847   0.03041   0.89319   0.00000  Uiso   1.00
O682   O     0.89551   0.48869   0.78201   0.00000  Uiso   1.00
O683   O     0.18971   0.33210   0.15363   0.00000  Uiso   1.00
O684   O     0.86565   0.98562   0.93687   0.00000  Uiso   1.00
N685   N     0.88596   0.43762   0.85857   0.00000  Uiso   1.00
N686   N     0.09562   0.32605   0.12339   0.00000  Uiso   1.00
N687   N     0.86471   0.07914   0.96894   0.00000  Uiso   1.00
N688   N     0.95567   0.41335   0.80629   0.00000  Uiso   1.00
N689   N     0.16532   0.30178   0.07111   0.00000  Uiso   1.00
N690   N     0.93441   0.05487   0.91666   0.00000  Uiso   1.00
C691   C     0.44261   0.78307   0.48821   0.00000  Uiso   1.00
C692   C     0.44402   0.81973   0.43970   0.00000  Uiso   1.00
C693   C     0.40639   0.86407   0.42804   0.00000  Uiso   1.00
C694   C     0.41487   0.89240   0.38175   0.00000  Uiso   1.00
C695   C     0.41032   0.95169   0.31152   0.00000  Uiso   1.00
C696   C     0.50181   0.78899   0.51269   0.00000  Uiso   1.00
C697   C     0.51276   0.80748   0.56239   0.00000  Uiso   1.00
C698   C     0.56988   0.80992   0.57754   0.00000  Uiso   1.00
C699   C     0.65504   0.82145   0.62064   0.00000  Uiso   1.00
C700   C     0.43816   0.72094   0.47011   0.00000  Uiso   1.00
C701   C     0.39561   0.68222   0.48403   0.00000  Uiso   1.00
C702   C     0.39916   0.62737   0.46335   0.00000  Uiso   1.00
C703   C     0.38549   0.53325   0.44034   0.00000  Uiso   1.00
C704   C     0.52458   0.75453   0.42673   0.00000  Uiso   1.00
C705   C     0.48855   0.80422   0.40631   0.00000  Uiso   1.00
C706   C     0.49709   0.83249   0.36002   0.00000  Uiso   1.00
C707   C     0.45947   0.87687   0.34829   0.00000  Uiso   1.00
C708   C     0.54633   0.77348   0.47930   0.00000  Uiso   1.00
C709   C     0.60345   0.77590   0.49438   0.00000  Uiso   1.00
C710   C     0.61449   0.79439   0.54409   0.00000  Uiso   1.00
C711   C     0.48269   0.70544   0.43672   0.00000  Uiso   1.00
C712   C     0.48630   0.65064   0.41601   0.00000  Uiso   1.00
C713   C     0.44376   0.61184   0.42990   0.00000  Uiso   1.00
H714   H     0.40795   0.79514   0.51421   0.00000  Uiso   1.00
H715   H     0.37195   0.87606   0.45389   0.00000  Uiso   1.00
H716   H     0.47830   0.81947   0.58823   0.00000  Uiso   1.00
H717   H     0.36116   0.69423   0.50987   0.00000  Uiso   1.00
H718   H     0.35168   0.95895   0.37230   0.00000  Uiso   1.00
H719   H     0.57592   0.83961   0.65556   0.00000  Uiso   1.00
H720   H     0.32893   0.57551   0.49034   0.00000  Uiso   1.00
H721   H     0.55924   0.74246   0.40074   0.00000  Uiso   1.00
H722   H     0.53155   0.82048   0.33419   0.00000  Uiso   1.00
H723   H     0.63790   0.76389   0.46853   0.00000  Uiso   1.00
H724   H     0.52076   0.63866   0.39017   0.00000  Uiso   1.00
H725   H     0.48122   0.91384   0.27515   0.00000  Uiso   1.00
H726   H     0.70546   0.79450   0.55841   0.00000  Uiso   1.00
H727   H     0.45847   0.53041   0.39319   0.00000  Uiso   1.00
O728   O     0.39551   0.98869   0.28201   0.00000  Uiso   1.00
O729   O     0.68971   0.83210   0.65363   0.00000  Uiso   1.00
O730   O     0.36565   0.48562   0.43687   0.00000  Uiso   1.00
N731   N     0.38596   0.93762   0.35857   0.00000  Uiso   1.00
N732   N     0.59562   0.82605   0.62339   0.00000  Uiso   1.00
N733   N     0.36471   0.57914   0.46894   0.00000  Uiso   1.00
N734   N     0.45567   0.91335   0.30629   0.00000  Uiso   1.00
N735   N     0.66532   0.80178   0.57111   0.00000  Uiso   1.00
N736   N     0.43441   0.55487   0.41666   0.00000  Uiso   1.00
