data_job_03286
_audit_creation_date              2018-12-19
_audit_creation_method            'Materials Studio'
_symmetry_space_group_name_H-M    'P1'
_symmetry_Int_Tables_number       1
_symmetry_cell_setting            triclinic
loop_
_symmetry_equiv_pos_as_xyz
  x,y,z
_cell_length_a                    10.1827
_cell_length_b                    29.9912
_cell_length_c                    37.9660
_cell_angle_alpha                 90.0000
_cell_angle_beta                  90.0000
_cell_angle_gamma                 90.0000
loop_
_atom_site_label
_atom_site_type_symbol
_atom_site_fract_x
_atom_site_fract_y
_atom_site_fract_z
_atom_site_U_iso_or_equiv
_atom_site_adp_type
_atom_site_occupancy
C1     C     0.08428   0.12980   0.87106   0.00000  Uiso   1.00
C2     C     0.00159   0.16045   0.89420   0.00000  Uiso   1.00
C3     C     0.98033   0.20558   0.88848   0.00000  Uiso   1.00
C4     C     0.90169   0.22776   0.91268   0.00000  Uiso   1.00
C5     C     0.78176   0.27873   0.94423   0.00000  Uiso   1.00
C6     C     0.18741   0.10930   0.89526   0.00000  Uiso   1.00
C7     C     0.32237   0.11141   0.89044   0.00000  Uiso   1.00
C8     C     0.40015   0.09052   0.91554   0.00000  Uiso   1.00
C9     C     0.56871   0.06205   0.94873   0.00000  Uiso   1.00
C10    C     0.99406   0.09165   0.86013   0.00000  Uiso   1.00
C11    C     0.96648   0.07892   0.82578   0.00000  Uiso   1.00
C12    C     0.88149   0.04316   0.82130   0.00000  Uiso   1.00
C13    C     0.74985   0.98729   0.79994   0.00000  Uiso   1.00
C14    C     0.98244   0.08893   0.92419   0.00000  Uiso   1.00
C15    C     0.94628   0.13825   0.92306   0.00000  Uiso   1.00
C16    C     0.86765   0.16036   0.94727   0.00000  Uiso   1.00
C17    C     0.84626   0.20552   0.94159   0.00000  Uiso   1.00
C18    C     0.13210   0.08710   0.92412   0.00000  Uiso   1.00
C19    C     0.20969   0.06620   0.94923   0.00000  Uiso   1.00
C20    C     0.34474   0.06828   0.94446   0.00000  Uiso   1.00
C21    C     0.93874   0.06945   0.88899   0.00000  Uiso   1.00
C22    C     0.85379   0.03371   0.88457   0.00000  Uiso   1.00
C23    C     0.82608   0.02092   0.85021   0.00000  Uiso   1.00
H24    H     0.12736   0.14709   0.84859   0.00000  Uiso   1.00
H25    H     0.02316   0.22275   0.86615   0.00000  Uiso   1.00
H26    H     0.36515   0.12859   0.86811   0.00000  Uiso   1.00
H27    H     0.00931   0.09611   0.80345   0.00000  Uiso   1.00
H28    H     0.88329   0.29685   0.89834   0.00000  Uiso   1.00
H29    H     0.60439   0.09830   0.90247   0.00000  Uiso   1.00
H30    H     0.85402   0.02980   0.76613   0.00000  Uiso   1.00
H31    H     0.93937   0.07165   0.94666   0.00000  Uiso   1.00
H32    H     0.82485   0.14317   0.96960   0.00000  Uiso   1.00
H33    H     0.16685   0.04902   0.97156   0.00000  Uiso   1.00
H34    H     0.81100   0.01653   0.90691   0.00000  Uiso   1.00
H35    H     0.72234   0.23227   0.98231   0.00000  Uiso   1.00
H36    H     0.44344   0.03371   0.98644   0.00000  Uiso   1.00
H37    H     0.69307   0.96522   0.85010   0.00000  Uiso   1.00
O38    O     0.73091   0.31298   0.95366   0.00000  Uiso   1.00
O39    O     0.67696   0.05248   0.95906   0.00000  Uiso   1.00
O40    O     0.69250   0.96261   0.78019   0.00000  Uiso   1.00
N41    N     0.86110   0.27184   0.91495   0.00000  Uiso   1.00
N42    N     0.53529   0.08621   0.91882   0.00000  Uiso   1.00
N43    N     0.83379   0.02216   0.79135   0.00000  Uiso   1.00
N44    N     0.77450   0.23708   0.96014   0.00000  Uiso   1.00
N45    N     0.44868   0.05145   0.96400   0.00000  Uiso   1.00
N46    N     0.74718   0.98741   0.83653   0.00000  Uiso   1.00
C47    C     0.00804   0.12782   0.12815   0.00000  Uiso   1.00
C48    C     0.09394   0.15787   0.10537   0.00000  Uiso   1.00
C49    C     0.11521   0.20307   0.11071   0.00000  Uiso   1.00
C50    C     0.19706   0.22464   0.08694   0.00000  Uiso   1.00
C51    C     0.32150   0.27479   0.05583   0.00000  Uiso   1.00
C52    C     0.90755   0.10701   0.10332   0.00000  Uiso   1.00
C53    C     0.77211   0.10944   0.10694   0.00000  Uiso   1.00
C54    C     0.69705   0.08818   0.08144   0.00000  Uiso   1.00
C55    C     0.53212   0.05933   0.04717   0.00000  Uiso   1.00
C56    C     0.09630   0.08974   0.14031   0.00000  Uiso   1.00
C57    C     0.11955   0.07765   0.17504   0.00000  Uiso   1.00
C58    C     0.20340   0.04185   0.18069   0.00000  Uiso   1.00
C59    C     0.33154   0.98619   0.20385   0.00000  Uiso   1.00
C60    C     0.11556   0.08574   0.07643   0.00000  Uiso   1.00
C61    C     0.15233   0.13501   0.07727   0.00000  Uiso   1.00
C62    C     0.23417   0.15652   0.05349   0.00000  Uiso   1.00
C63    C     0.25557   0.20174   0.05879   0.00000  Uiso   1.00
C64    C     0.96594   0.08415   0.07523   0.00000  Uiso   1.00
C65    C     0.89107   0.06288   0.04972   0.00000  Uiso   1.00
C66    C     0.75556   0.06528   0.05330   0.00000  Uiso   1.00
C67    C     0.15471   0.06689   0.11222   0.00000  Uiso   1.00
C68    C     0.23852   0.03109   0.11782   0.00000  Uiso   1.00
C69    C     0.26190   0.01895   0.15255   0.00000  Uiso   1.00
H70    H     0.96256   0.14561   0.15002   0.00000  Uiso   1.00
H71    H     0.06999   0.22075   0.13245   0.00000  Uiso   1.00
H72    H     0.72694   0.12713   0.12869   0.00000  Uiso   1.00
H73    H     0.07434   0.09534   0.19677   0.00000  Uiso   1.00
H74    H     0.21481   0.29398   0.10058   0.00000  Uiso   1.00
H75    H     0.49148   0.09655   0.09265   0.00000  Uiso   1.00
H76    H     0.22403   0.02953   0.23622   0.00000  Uiso   1.00
H77    H     0.16102   0.06794   0.05455   0.00000  Uiso   1.00
H78    H     0.27935   0.13882   0.03175   0.00000  Uiso   1.00
H79    H     0.93630   0.04519   0.02798   0.00000  Uiso   1.00
H80    H     0.28370   0.01341   0.09607   0.00000  Uiso   1.00
H81    H     0.38473   0.22748   0.01884   0.00000  Uiso   1.00
H82    H     0.66139   0.03005   0.01091   0.00000  Uiso   1.00
H83    H     0.39395   0.96303   0.15449   0.00000  Uiso   1.00
O84    O     0.37399   0.30876   0.04643   0.00000  Uiso   1.00
O85    O     0.42501   0.04974   0.03602   0.00000  Uiso   1.00
O86    O     0.38611   0.96181   0.22439   0.00000  Uiso   1.00
N87    N     0.23858   0.26860   0.08448   0.00000  Uiso   1.00
N88    N     0.56231   0.08402   0.07706   0.00000  Uiso   1.00
N89    N     0.24716   0.02136   0.21129   0.00000  Uiso   1.00
N90    N     0.33001   0.23282   0.04050   0.00000  Uiso   1.00
N91    N     0.65374   0.04824   0.03307   0.00000  Uiso   1.00
N92    N     0.33859   0.98557   0.16731   0.00000  Uiso   1.00
C93    C     0.08428   0.62980   0.37106   0.00000  Uiso   1.00
C94    C     0.00159   0.66045   0.39420   0.00000  Uiso   1.00
C95    C     0.98033   0.70558   0.38848   0.00000  Uiso   1.00
C96    C     0.90169   0.72776   0.41268   0.00000  Uiso   1.00
C97    C     0.78176   0.77873   0.44423   0.00000  Uiso   1.00
C98    C     0.18741   0.60930   0.39526   0.00000  Uiso   1.00
C99    C     0.32237   0.61141   0.39044   0.00000  Uiso   1.00
C100   C     0.40015   0.59052   0.41554   0.00000  Uiso   1.00
C101   C     0.56871   0.56205   0.44873   0.00000  Uiso   1.00
C102   C     0.99406   0.59165   0.36013   0.00000  Uiso   1.00
C103   C     0.96648   0.57892   0.32578   0.00000  Uiso   1.00
C104   C     0.88149   0.54316   0.32130   0.00000  Uiso   1.00
C105   C     0.74985   0.48729   0.29994   0.00000  Uiso   1.00
C106   C     0.98244   0.58893   0.42419   0.00000  Uiso   1.00
C107   C     0.94628   0.63825   0.42306   0.00000  Uiso   1.00
C108   C     0.86765   0.66036   0.44727   0.00000  Uiso   1.00
C109   C     0.84626   0.70552   0.44159   0.00000  Uiso   1.00
C110   C     0.13210   0.58710   0.42412   0.00000  Uiso   1.00
C111   C     0.20969   0.56620   0.44923   0.00000  Uiso   1.00
C112   C     0.34474   0.56828   0.44446   0.00000  Uiso   1.00
C113   C     0.93874   0.56945   0.38899   0.00000  Uiso   1.00
C114   C     0.85379   0.53371   0.38457   0.00000  Uiso   1.00
C115   C     0.82608   0.52092   0.35021   0.00000  Uiso   1.00
H116   H     0.12736   0.64709   0.34859   0.00000  Uiso   1.00
H117   H     0.02316   0.72275   0.36615   0.00000  Uiso   1.00
H118   H     0.36515   0.62859   0.36811   0.00000  Uiso   1.00
H119   H     0.00931   0.59611   0.30345   0.00000  Uiso   1.00
H120   H     0.88329   0.79685   0.39834   0.00000  Uiso   1.00
H121   H     0.60439   0.59830   0.40247   0.00000  Uiso   1.00
H122   H     0.85402   0.52980   0.26613   0.00000  Uiso   1.00
H123   H     0.93937   0.57165   0.44666   0.00000  Uiso   1.00
H124   H     0.82485   0.64317   0.46960   0.00000  Uiso   1.00
H125   H     0.16685   0.54902   0.47156   0.00000  Uiso   1.00
H126   H     0.81100   0.51653   0.40691   0.00000  Uiso   1.00
H127   H     0.72234   0.73227   0.48231   0.00000  Uiso   1.00
H128   H     0.44344   0.53371   0.48644   0.00000  Uiso   1.00
H129   H     0.69307   0.46522   0.35010   0.00000  Uiso   1.00
O130   O     0.73091   0.81298   0.45366   0.00000  Uiso   1.00
O131   O     0.67696   0.55248   0.45906   0.00000  Uiso   1.00
O132   O     0.69250   0.46261   0.28019   0.00000  Uiso   1.00
N133   N     0.86110   0.77184   0.41495   0.00000  Uiso   1.00
N134   N     0.53529   0.58621   0.41882   0.00000  Uiso   1.00
N135   N     0.83379   0.52216   0.29135   0.00000  Uiso   1.00
N136   N     0.77450   0.73708   0.46014   0.00000  Uiso   1.00
N137   N     0.44868   0.55145   0.46400   0.00000  Uiso   1.00
N138   N     0.74718   0.48741   0.33653   0.00000  Uiso   1.00
C139   C     0.00804   0.62782   0.62815   0.00000  Uiso   1.00
C140   C     0.09394   0.65787   0.60537   0.00000  Uiso   1.00
C141   C     0.11521   0.70307   0.61071   0.00000  Uiso   1.00
C142   C     0.19706   0.72464   0.58694   0.00000  Uiso   1.00
C143   C     0.32150   0.77479   0.55583   0.00000  Uiso   1.00
C144   C     0.90755   0.60701   0.60332   0.00000  Uiso   1.00
C145   C     0.77211   0.60944   0.60694   0.00000  Uiso   1.00
C146   C     0.69705   0.58818   0.58144   0.00000  Uiso   1.00
C147   C     0.53212   0.55933   0.54717   0.00000  Uiso   1.00
C148   C     0.09630   0.58974   0.64031   0.00000  Uiso   1.00
C149   C     0.11955   0.57765   0.67504   0.00000  Uiso   1.00
C150   C     0.20340   0.54185   0.68069   0.00000  Uiso   1.00
C151   C     0.33154   0.48619   0.70385   0.00000  Uiso   1.00
C152   C     0.11556   0.58574   0.57643   0.00000  Uiso   1.00
C153   C     0.15233   0.63501   0.57727   0.00000  Uiso   1.00
C154   C     0.23417   0.65652   0.55349   0.00000  Uiso   1.00
C155   C     0.25557   0.70174   0.55879   0.00000  Uiso   1.00
C156   C     0.96594   0.58415   0.57523   0.00000  Uiso   1.00
C157   C     0.89107   0.56288   0.54972   0.00000  Uiso   1.00
C158   C     0.75556   0.56528   0.55330   0.00000  Uiso   1.00
C159   C     0.15471   0.56689   0.61222   0.00000  Uiso   1.00
C160   C     0.23852   0.53109   0.61782   0.00000  Uiso   1.00
C161   C     0.26190   0.51895   0.65255   0.00000  Uiso   1.00
H162   H     0.96256   0.64561   0.65002   0.00000  Uiso   1.00
H163   H     0.06999   0.72075   0.63245   0.00000  Uiso   1.00
H164   H     0.72694   0.62713   0.62869   0.00000  Uiso   1.00
H165   H     0.07434   0.59534   0.69677   0.00000  Uiso   1.00
H166   H     0.21481   0.79398   0.60058   0.00000  Uiso   1.00
H167   H     0.49148   0.59655   0.59265   0.00000  Uiso   1.00
H168   H     0.22403   0.52953   0.73622   0.00000  Uiso   1.00
H169   H     0.16102   0.56794   0.55455   0.00000  Uiso   1.00
H170   H     0.27935   0.63882   0.53175   0.00000  Uiso   1.00
H171   H     0.93630   0.54519   0.52798   0.00000  Uiso   1.00
H172   H     0.28370   0.51341   0.59607   0.00000  Uiso   1.00
H173   H     0.38473   0.72748   0.51884   0.00000  Uiso   1.00
H174   H     0.66139   0.53005   0.51091   0.00000  Uiso   1.00
H175   H     0.39395   0.46303   0.65449   0.00000  Uiso   1.00
O176   O     0.37399   0.80876   0.54643   0.00000  Uiso   1.00
O177   O     0.42501   0.54974   0.53602   0.00000  Uiso   1.00
O178   O     0.38611   0.46181   0.72439   0.00000  Uiso   1.00
N179   N     0.23858   0.76860   0.58448   0.00000  Uiso   1.00
N180   N     0.56231   0.58402   0.57706   0.00000  Uiso   1.00
N181   N     0.24716   0.52136   0.71129   0.00000  Uiso   1.00
N182   N     0.33001   0.73282   0.54050   0.00000  Uiso   1.00
N183   N     0.65374   0.54824   0.53307   0.00000  Uiso   1.00
N184   N     0.33859   0.48557   0.66731   0.00000  Uiso   1.00
C185   C     0.91572   0.87020   0.87106   0.00000  Uiso   1.00
C186   C     0.99841   0.83955   0.89420   0.00000  Uiso   1.00
C187   C     0.01967   0.79442   0.88848   0.00000  Uiso   1.00
C188   C     0.09831   0.77224   0.91268   0.00000  Uiso   1.00
C189   C     0.21824   0.72127   0.94423   0.00000  Uiso   1.00
C190   C     0.81259   0.89070   0.89526   0.00000  Uiso   1.00
C191   C     0.67763   0.88859   0.89044   0.00000  Uiso   1.00
C192   C     0.59985   0.90948   0.91554   0.00000  Uiso   1.00
C193   C     0.43129   0.93795   0.94873   0.00000  Uiso   1.00
C194   C     0.00594   0.90835   0.86013   0.00000  Uiso   1.00
C195   C     0.03352   0.92108   0.82578   0.00000  Uiso   1.00
C196   C     0.11851   0.95684   0.82130   0.00000  Uiso   1.00
C197   C     0.25015   0.01271   0.79994   0.00000  Uiso   1.00
C198   C     0.01756   0.91107   0.92419   0.00000  Uiso   1.00
C199   C     0.05372   0.86175   0.92306   0.00000  Uiso   1.00
C200   C     0.13235   0.83964   0.94727   0.00000  Uiso   1.00
C201   C     0.15374   0.79448   0.94159   0.00000  Uiso   1.00
C202   C     0.86790   0.91290   0.92412   0.00000  Uiso   1.00
C203   C     0.79031   0.93380   0.94923   0.00000  Uiso   1.00
C204   C     0.65526   0.93172   0.94446   0.00000  Uiso   1.00
C205   C     0.06126   0.93055   0.88899   0.00000  Uiso   1.00
C206   C     0.14621   0.96629   0.88457   0.00000  Uiso   1.00
C207   C     0.17392   0.97908   0.85021   0.00000  Uiso   1.00
H208   H     0.87264   0.85291   0.84859   0.00000  Uiso   1.00
H209   H     0.97684   0.77725   0.86615   0.00000  Uiso   1.00
H210   H     0.63485   0.87141   0.86811   0.00000  Uiso   1.00
H211   H     0.99069   0.90389   0.80345   0.00000  Uiso   1.00
H212   H     0.11671   0.70315   0.89834   0.00000  Uiso   1.00
H213   H     0.39561   0.90170   0.90247   0.00000  Uiso   1.00
H214   H     0.14598   0.97020   0.76613   0.00000  Uiso   1.00
H215   H     0.06063   0.92835   0.94666   0.00000  Uiso   1.00
H216   H     0.17515   0.85683   0.96960   0.00000  Uiso   1.00
H217   H     0.83315   0.95098   0.97156   0.00000  Uiso   1.00
H218   H     0.18900   0.98347   0.90691   0.00000  Uiso   1.00
H219   H     0.27766   0.76773   0.98231   0.00000  Uiso   1.00
H220   H     0.55656   0.96629   0.98644   0.00000  Uiso   1.00
H221   H     0.30693   0.03478   0.85010   0.00000  Uiso   1.00
O222   O     0.26909   0.68702   0.95366   0.00000  Uiso   1.00
O223   O     0.32304   0.94752   0.95906   0.00000  Uiso   1.00
O224   O     0.30750   0.03739   0.78019   0.00000  Uiso   1.00
N225   N     0.13890   0.72816   0.91495   0.00000  Uiso   1.00
N226   N     0.46471   0.91379   0.91882   0.00000  Uiso   1.00
N227   N     0.16621   0.97784   0.79135   0.00000  Uiso   1.00
N228   N     0.22550   0.76292   0.96014   0.00000  Uiso   1.00
N229   N     0.55132   0.94855   0.96400   0.00000  Uiso   1.00
N230   N     0.25282   0.01259   0.83653   0.00000  Uiso   1.00
C231   C     0.99196   0.87218   0.12815   0.00000  Uiso   1.00
C232   C     0.90606   0.84213   0.10537   0.00000  Uiso   1.00
C233   C     0.88479   0.79693   0.11071   0.00000  Uiso   1.00
C234   C     0.80294   0.77536   0.08694   0.00000  Uiso   1.00
C235   C     0.67850   0.72521   0.05583   0.00000  Uiso   1.00
C236   C     0.09245   0.89299   0.10332   0.00000  Uiso   1.00
C237   C     0.22789   0.89056   0.10694   0.00000  Uiso   1.00
C238   C     0.30295   0.91182   0.08144   0.00000  Uiso   1.00
C239   C     0.46788   0.94067   0.04717   0.00000  Uiso   1.00
C240   C     0.90370   0.91026   0.14031   0.00000  Uiso   1.00
C241   C     0.88045   0.92235   0.17504   0.00000  Uiso   1.00
C242   C     0.79660   0.95815   0.18069   0.00000  Uiso   1.00
C243   C     0.66846   0.01381   0.20385   0.00000  Uiso   1.00
C244   C     0.88444   0.91426   0.07643   0.00000  Uiso   1.00
C245   C     0.84767   0.86499   0.07727   0.00000  Uiso   1.00
C246   C     0.76583   0.84348   0.05349   0.00000  Uiso   1.00
C247   C     0.74443   0.79826   0.05879   0.00000  Uiso   1.00
C248   C     0.03406   0.91585   0.07523   0.00000  Uiso   1.00
C249   C     0.10893   0.93712   0.04972   0.00000  Uiso   1.00
C250   C     0.24444   0.93472   0.05330   0.00000  Uiso   1.00
C251   C     0.84529   0.93311   0.11222   0.00000  Uiso   1.00
C252   C     0.76148   0.96891   0.11782   0.00000  Uiso   1.00
C253   C     0.73810   0.98105   0.15255   0.00000  Uiso   1.00
H254   H     0.03744   0.85439   0.15002   0.00000  Uiso   1.00
H255   H     0.93001   0.77925   0.13245   0.00000  Uiso   1.00
H256   H     0.27306   0.87287   0.12869   0.00000  Uiso   1.00
H257   H     0.92566   0.90466   0.19677   0.00000  Uiso   1.00
H258   H     0.78519   0.70602   0.10058   0.00000  Uiso   1.00
H259   H     0.50852   0.90345   0.09265   0.00000  Uiso   1.00
H260   H     0.77597   0.97047   0.23622   0.00000  Uiso   1.00
H261   H     0.83898   0.93206   0.05455   0.00000  Uiso   1.00
H262   H     0.72065   0.86118   0.03175   0.00000  Uiso   1.00
H263   H     0.06370   0.95481   0.02798   0.00000  Uiso   1.00
H264   H     0.71630   0.98659   0.09607   0.00000  Uiso   1.00
H265   H     0.61527   0.77252   0.01884   0.00000  Uiso   1.00
H266   H     0.33861   0.96995   0.01091   0.00000  Uiso   1.00
H267   H     0.60605   0.03697   0.15449   0.00000  Uiso   1.00
O268   O     0.62601   0.69124   0.04643   0.00000  Uiso   1.00
O269   O     0.57499   0.95026   0.03602   0.00000  Uiso   1.00
O270   O     0.61389   0.03819   0.22439   0.00000  Uiso   1.00
N271   N     0.76142   0.73140   0.08448   0.00000  Uiso   1.00
N272   N     0.43769   0.91598   0.07706   0.00000  Uiso   1.00
N273   N     0.75284   0.97864   0.21129   0.00000  Uiso   1.00
N274   N     0.66999   0.76718   0.04050   0.00000  Uiso   1.00
N275   N     0.34626   0.95176   0.03307   0.00000  Uiso   1.00
N276   N     0.66141   0.01443   0.16731   0.00000  Uiso   1.00
C277   C     0.91572   0.37020   0.37106   0.00000  Uiso   1.00
C278   C     0.99841   0.33955   0.39420   0.00000  Uiso   1.00
C279   C     0.01967   0.29442   0.38848   0.00000  Uiso   1.00
C280   C     0.09831   0.27224   0.41268   0.00000  Uiso   1.00
C281   C     0.21824   0.22127   0.44423   0.00000  Uiso   1.00
C282   C     0.81259   0.39070   0.39526   0.00000  Uiso   1.00
C283   C     0.67763   0.38859   0.39044   0.00000  Uiso   1.00
C284   C     0.59985   0.40948   0.41554   0.00000  Uiso   1.00
C285   C     0.43129   0.43795   0.44873   0.00000  Uiso   1.00
C286   C     0.00594   0.40835   0.36013   0.00000  Uiso   1.00
C287   C     0.03352   0.42108   0.32578   0.00000  Uiso   1.00
C288   C     0.11851   0.45684   0.32130   0.00000  Uiso   1.00
C289   C     0.25015   0.51271   0.29994   0.00000  Uiso   1.00
C290   C     0.01756   0.41107   0.42419   0.00000  Uiso   1.00
C291   C     0.05372   0.36175   0.42306   0.00000  Uiso   1.00
C292   C     0.13235   0.33964   0.44727   0.00000  Uiso   1.00
C293   C     0.15374   0.29448   0.44159   0.00000  Uiso   1.00
C294   C     0.86790   0.41290   0.42412   0.00000  Uiso   1.00
C295   C     0.79031   0.43380   0.44923   0.00000  Uiso   1.00
C296   C     0.65526   0.43172   0.44446   0.00000  Uiso   1.00
C297   C     0.06126   0.43055   0.38899   0.00000  Uiso   1.00
C298   C     0.14621   0.46629   0.38457   0.00000  Uiso   1.00
C299   C     0.17392   0.47908   0.35021   0.00000  Uiso   1.00
H300   H     0.87264   0.35291   0.34859   0.00000  Uiso   1.00
H301   H     0.97684   0.27725   0.36615   0.00000  Uiso   1.00
H302   H     0.63485   0.37141   0.36811   0.00000  Uiso   1.00
H303   H     0.99069   0.40389   0.30345   0.00000  Uiso   1.00
H304   H     0.11671   0.20315   0.39834   0.00000  Uiso   1.00
H305   H     0.39561   0.40170   0.40247   0.00000  Uiso   1.00
H306   H     0.14598   0.47020   0.26613   0.00000  Uiso   1.00
H307   H     0.06063   0.42835   0.44666   0.00000  Uiso   1.00
H308   H     0.17515   0.35683   0.46960   0.00000  Uiso   1.00
H309   H     0.83315   0.45098   0.47156   0.00000  Uiso   1.00
H310   H     0.18900   0.48347   0.40691   0.00000  Uiso   1.00
H311   H     0.27766   0.26773   0.48231   0.00000  Uiso   1.00
H312   H     0.55656   0.46629   0.48644   0.00000  Uiso   1.00
H313   H     0.30693   0.53478   0.35010   0.00000  Uiso   1.00
O314   O     0.26909   0.18702   0.45366   0.00000  Uiso   1.00
O315   O     0.32304   0.44752   0.45906   0.00000  Uiso   1.00
O316   O     0.30750   0.53739   0.28019   0.00000  Uiso   1.00
N317   N     0.13890   0.22816   0.41495   0.00000  Uiso   1.00
N318   N     0.46471   0.41379   0.41882   0.00000  Uiso   1.00
N319   N     0.16621   0.47784   0.29135   0.00000  Uiso   1.00
N320   N     0.22550   0.26292   0.46014   0.00000  Uiso   1.00
N321   N     0.55132   0.44855   0.46400   0.00000  Uiso   1.00
N322   N     0.25282   0.51259   0.33653   0.00000  Uiso   1.00
C323   C     0.99196   0.37218   0.62815   0.00000  Uiso   1.00
C324   C     0.90606   0.34213   0.60537   0.00000  Uiso   1.00
C325   C     0.88479   0.29693   0.61071   0.00000  Uiso   1.00
C326   C     0.80294   0.27536   0.58694   0.00000  Uiso   1.00
C327   C     0.67850   0.22521   0.55583   0.00000  Uiso   1.00
C328   C     0.09245   0.39299   0.60332   0.00000  Uiso   1.00
C329   C     0.22789   0.39056   0.60694   0.00000  Uiso   1.00
C330   C     0.30295   0.41182   0.58144   0.00000  Uiso   1.00
C331   C     0.46788   0.44067   0.54717   0.00000  Uiso   1.00
C332   C     0.90370   0.41026   0.64031   0.00000  Uiso   1.00
C333   C     0.88045   0.42235   0.67504   0.00000  Uiso   1.00
C334   C     0.79660   0.45815   0.68069   0.00000  Uiso   1.00
C335   C     0.66846   0.51381   0.70385   0.00000  Uiso   1.00
C336   C     0.88444   0.41426   0.57643   0.00000  Uiso   1.00
C337   C     0.84767   0.36499   0.57727   0.00000  Uiso   1.00
C338   C     0.76583   0.34348   0.55349   0.00000  Uiso   1.00
C339   C     0.74443   0.29826   0.55879   0.00000  Uiso   1.00
C340   C     0.03406   0.41585   0.57523   0.00000  Uiso   1.00
C341   C     0.10893   0.43712   0.54972   0.00000  Uiso   1.00
C342   C     0.24444   0.43472   0.55330   0.00000  Uiso   1.00
C343   C     0.84529   0.43311   0.61222   0.00000  Uiso   1.00
C344   C     0.76148   0.46891   0.61782   0.00000  Uiso   1.00
C345   C     0.73810   0.48105   0.65255   0.00000  Uiso   1.00
H346   H     0.03744   0.35439   0.65002   0.00000  Uiso   1.00
H347   H     0.93001   0.27925   0.63245   0.00000  Uiso   1.00
H348   H     0.27306   0.37287   0.62869   0.00000  Uiso   1.00
H349   H     0.92566   0.40466   0.69677   0.00000  Uiso   1.00
H350   H     0.78519   0.20602   0.60058   0.00000  Uiso   1.00
H351   H     0.50852   0.40345   0.59265   0.00000  Uiso   1.00
H352   H     0.77597   0.47047   0.73622   0.00000  Uiso   1.00
H353   H     0.83898   0.43206   0.55455   0.00000  Uiso   1.00
H354   H     0.72065   0.36118   0.53175   0.00000  Uiso   1.00
H355   H     0.06370   0.45481   0.52798   0.00000  Uiso   1.00
H356   H     0.71630   0.48659   0.59607   0.00000  Uiso   1.00
H357   H     0.61527   0.27252   0.51884   0.00000  Uiso   1.00
H358   H     0.33861   0.46995   0.51091   0.00000  Uiso   1.00
H359   H     0.60605   0.53697   0.65449   0.00000  Uiso   1.00
O360   O     0.62601   0.19124   0.54643   0.00000  Uiso   1.00
O361   O     0.57499   0.45026   0.53602   0.00000  Uiso   1.00
O362   O     0.61389   0.53819   0.72439   0.00000  Uiso   1.00
N363   N     0.76142   0.23140   0.58448   0.00000  Uiso   1.00
N364   N     0.43769   0.41598   0.57706   0.00000  Uiso   1.00
N365   N     0.75284   0.47864   0.71129   0.00000  Uiso   1.00
N366   N     0.66999   0.26718   0.54050   0.00000  Uiso   1.00
N367   N     0.34626   0.45176   0.53307   0.00000  Uiso   1.00
N368   N     0.66141   0.51443   0.66731   0.00000  Uiso   1.00
C369   C     0.58428   0.37020   0.87106   0.00000  Uiso   1.00
C370   C     0.50159   0.33955   0.89420   0.00000  Uiso   1.00
C371   C     0.48033   0.29442   0.88848   0.00000  Uiso   1.00
C372   C     0.40169   0.27224   0.91268   0.00000  Uiso   1.00
C373   C     0.28176   0.22127   0.94423   0.00000  Uiso   1.00
C374   C     0.68741   0.39070   0.89526   0.00000  Uiso   1.00
C375   C     0.82237   0.38859   0.89044   0.00000  Uiso   1.00
C376   C     0.90015   0.40948   0.91554   0.00000  Uiso   1.00
C377   C     0.06871   0.43795   0.94873   0.00000  Uiso   1.00
C378   C     0.49406   0.40835   0.86013   0.00000  Uiso   1.00
C379   C     0.46648   0.42108   0.82578   0.00000  Uiso   1.00
C380   C     0.38149   0.45684   0.82130   0.00000  Uiso   1.00
C381   C     0.24985   0.51271   0.79994   0.00000  Uiso   1.00
C382   C     0.48244   0.41107   0.92419   0.00000  Uiso   1.00
C383   C     0.44628   0.36175   0.92306   0.00000  Uiso   1.00
C384   C     0.36765   0.33964   0.94727   0.00000  Uiso   1.00
C385   C     0.34626   0.29448   0.94159   0.00000  Uiso   1.00
C386   C     0.63210   0.41290   0.92412   0.00000  Uiso   1.00
C387   C     0.70969   0.43380   0.94923   0.00000  Uiso   1.00
C388   C     0.84474   0.43172   0.94446   0.00000  Uiso   1.00
C389   C     0.43874   0.43055   0.88899   0.00000  Uiso   1.00
C390   C     0.35379   0.46629   0.88457   0.00000  Uiso   1.00
C391   C     0.32608   0.47908   0.85021   0.00000  Uiso   1.00
H392   H     0.62736   0.35291   0.84859   0.00000  Uiso   1.00
H393   H     0.52316   0.27725   0.86615   0.00000  Uiso   1.00
H394   H     0.86515   0.37141   0.86811   0.00000  Uiso   1.00
H395   H     0.50931   0.40389   0.80345   0.00000  Uiso   1.00
H396   H     0.38329   0.20315   0.89834   0.00000  Uiso   1.00
H397   H     0.10439   0.40170   0.90247   0.00000  Uiso   1.00
H398   H     0.35402   0.47020   0.76613   0.00000  Uiso   1.00
H399   H     0.43937   0.42835   0.94666   0.00000  Uiso   1.00
H400   H     0.32485   0.35683   0.96960   0.00000  Uiso   1.00
H401   H     0.66685   0.45098   0.97156   0.00000  Uiso   1.00
H402   H     0.31100   0.48347   0.90691   0.00000  Uiso   1.00
H403   H     0.22234   0.26773   0.98231   0.00000  Uiso   1.00
H404   H     0.94344   0.46629   0.98644   0.00000  Uiso   1.00
H405   H     0.19307   0.53478   0.85010   0.00000  Uiso   1.00
O406   O     0.23091   0.18702   0.95366   0.00000  Uiso   1.00
O407   O     0.17696   0.44752   0.95906   0.00000  Uiso   1.00
O408   O     0.19250   0.53739   0.78019   0.00000  Uiso   1.00
N409   N     0.36110   0.22816   0.91495   0.00000  Uiso   1.00
N410   N     0.03529   0.41379   0.91882   0.00000  Uiso   1.00
N411   N     0.33379   0.47784   0.79135   0.00000  Uiso   1.00
N412   N     0.27450   0.26292   0.96014   0.00000  Uiso   1.00
N413   N     0.94868   0.44855   0.96400   0.00000  Uiso   1.00
N414   N     0.24718   0.51259   0.83653   0.00000  Uiso   1.00
C415   C     0.50804   0.37218   0.12815   0.00000  Uiso   1.00
C416   C     0.59394   0.34213   0.10537   0.00000  Uiso   1.00
C417   C     0.61521   0.29693   0.11071   0.00000  Uiso   1.00
C418   C     0.69706   0.27536   0.08694   0.00000  Uiso   1.00
C419   C     0.82150   0.22521   0.05583   0.00000  Uiso   1.00
C420   C     0.40755   0.39299   0.10332   0.00000  Uiso   1.00
C421   C     0.27211   0.39056   0.10694   0.00000  Uiso   1.00
C422   C     0.19705   0.41182   0.08144   0.00000  Uiso   1.00
C423   C     0.03212   0.44067   0.04717   0.00000  Uiso   1.00
C424   C     0.59630   0.41026   0.14031   0.00000  Uiso   1.00
C425   C     0.61955   0.42235   0.17504   0.00000  Uiso   1.00
C426   C     0.70340   0.45815   0.18069   0.00000  Uiso   1.00
C427   C     0.83154   0.51381   0.20385   0.00000  Uiso   1.00
C428   C     0.61556   0.41426   0.07643   0.00000  Uiso   1.00
C429   C     0.65233   0.36499   0.07727   0.00000  Uiso   1.00
C430   C     0.73417   0.34348   0.05349   0.00000  Uiso   1.00
C431   C     0.75557   0.29826   0.05879   0.00000  Uiso   1.00
C432   C     0.46594   0.41585   0.07523   0.00000  Uiso   1.00
C433   C     0.39107   0.43712   0.04972   0.00000  Uiso   1.00
C434   C     0.25556   0.43472   0.05330   0.00000  Uiso   1.00
C435   C     0.65471   0.43311   0.11222   0.00000  Uiso   1.00
C436   C     0.73852   0.46891   0.11782   0.00000  Uiso   1.00
C437   C     0.76190   0.48105   0.15255   0.00000  Uiso   1.00
H438   H     0.46256   0.35439   0.15002   0.00000  Uiso   1.00
H439   H     0.56999   0.27925   0.13245   0.00000  Uiso   1.00
H440   H     0.22694   0.37287   0.12869   0.00000  Uiso   1.00
H441   H     0.57434   0.40466   0.19677   0.00000  Uiso   1.00
H442   H     0.71481   0.20602   0.10058   0.00000  Uiso   1.00
H443   H     0.99148   0.40345   0.09265   0.00000  Uiso   1.00
H444   H     0.72403   0.47047   0.23622   0.00000  Uiso   1.00
H445   H     0.66102   0.43206   0.05455   0.00000  Uiso   1.00
H446   H     0.77935   0.36118   0.03175   0.00000  Uiso   1.00
H447   H     0.43630   0.45481   0.02798   0.00000  Uiso   1.00
H448   H     0.78370   0.48659   0.09607   0.00000  Uiso   1.00
H449   H     0.88473   0.27252   0.01884   0.00000  Uiso   1.00
H450   H     0.16139   0.46995   0.01091   0.00000  Uiso   1.00
H451   H     0.89395   0.53697   0.15449   0.00000  Uiso   1.00
O452   O     0.87399   0.19124   0.04643   0.00000  Uiso   1.00
O453   O     0.92501   0.45026   0.03602   0.00000  Uiso   1.00
O454   O     0.88611   0.53819   0.22439   0.00000  Uiso   1.00
N455   N     0.73858   0.23140   0.08448   0.00000  Uiso   1.00
N456   N     0.06231   0.41598   0.07706   0.00000  Uiso   1.00
N457   N     0.74716   0.47864   0.21129   0.00000  Uiso   1.00
N458   N     0.83001   0.26718   0.04050   0.00000  Uiso   1.00
N459   N     0.15374   0.45176   0.03307   0.00000  Uiso   1.00
N460   N     0.83859   0.51443   0.16731   0.00000  Uiso   1.00
C461   C     0.58428   0.87020   0.37106   0.00000  Uiso   1.00
C462   C     0.50159   0.83955   0.39420   0.00000  Uiso   1.00
C463   C     0.48033   0.79442   0.38848   0.00000  Uiso   1.00
C464   C     0.40169   0.77224   0.41268   0.00000  Uiso   1.00
C465   C     0.28176   0.72127   0.44423   0.00000  Uiso   1.00
C466   C     0.68741   0.89070   0.39526   0.00000  Uiso   1.00
C467   C     0.82237   0.88859   0.39044   0.00000  Uiso   1.00
C468   C     0.90015   0.90948   0.41554   0.00000  Uiso   1.00
C469   C     0.06871   0.93795   0.44873   0.00000  Uiso   1.00
C470   C     0.49406   0.90835   0.36013   0.00000  Uiso   1.00
C471   C     0.46648   0.92108   0.32578   0.00000  Uiso   1.00
C472   C     0.38149   0.95684   0.32130   0.00000  Uiso   1.00
C473   C     0.24985   0.01271   0.29994   0.00000  Uiso   1.00
C474   C     0.48244   0.91107   0.42419   0.00000  Uiso   1.00
C475   C     0.44628   0.86175   0.42306   0.00000  Uiso   1.00
C476   C     0.36765   0.83964   0.44727   0.00000  Uiso   1.00
C477   C     0.34626   0.79448   0.44159   0.00000  Uiso   1.00
C478   C     0.63210   0.91290   0.42412   0.00000  Uiso   1.00
C479   C     0.70969   0.93380   0.44923   0.00000  Uiso   1.00
C480   C     0.84474   0.93172   0.44446   0.00000  Uiso   1.00
C481   C     0.43874   0.93055   0.38899   0.00000  Uiso   1.00
C482   C     0.35379   0.96629   0.38457   0.00000  Uiso   1.00
C483   C     0.32608   0.97908   0.35021   0.00000  Uiso   1.00
H484   H     0.62736   0.85291   0.34859   0.00000  Uiso   1.00
H485   H     0.52316   0.77725   0.36615   0.00000  Uiso   1.00
H486   H     0.86515   0.87141   0.36811   0.00000  Uiso   1.00
H487   H     0.50931   0.90389   0.30345   0.00000  Uiso   1.00
H488   H     0.38329   0.70315   0.39834   0.00000  Uiso   1.00
H489   H     0.10439   0.90170   0.40247   0.00000  Uiso   1.00
H490   H     0.35402   0.97020   0.26613   0.00000  Uiso   1.00
H491   H     0.43937   0.92835   0.44666   0.00000  Uiso   1.00
H492   H     0.32485   0.85683   0.46960   0.00000  Uiso   1.00
H493   H     0.66685   0.95098   0.47156   0.00000  Uiso   1.00
H494   H     0.31100   0.98347   0.40691   0.00000  Uiso   1.00
H495   H     0.22234   0.76773   0.48231   0.00000  Uiso   1.00
H496   H     0.94344   0.96629   0.48644   0.00000  Uiso   1.00
H497   H     0.19307   0.03478   0.35010   0.00000  Uiso   1.00
O498   O     0.23091   0.68702   0.45366   0.00000  Uiso   1.00
O499   O     0.17696   0.94752   0.45906   0.00000  Uiso   1.00
O500   O     0.19250   0.03739   0.28019   0.00000  Uiso   1.00
N501   N     0.36110   0.72816   0.41495   0.00000  Uiso   1.00
N502   N     0.03529   0.91379   0.41882   0.00000  Uiso   1.00
N503   N     0.33379   0.97784   0.29135   0.00000  Uiso   1.00
N504   N     0.27450   0.76292   0.46014   0.00000  Uiso   1.00
N505   N     0.94868   0.94855   0.46400   0.00000  Uiso   1.00
N506   N     0.24718   0.01259   0.33653   0.00000  Uiso   1.00
C507   C     0.50804   0.87218   0.62815   0.00000  Uiso   1.00
C508   C     0.59394   0.84213   0.60537   0.00000  Uiso   1.00
C509   C     0.61521   0.79693   0.61071   0.00000  Uiso   1.00
C510   C     0.69706   0.77536   0.58694   0.00000  Uiso   1.00
C511   C     0.82150   0.72521   0.55583   0.00000  Uiso   1.00
C512   C     0.40755   0.89299   0.60332   0.00000  Uiso   1.00
C513   C     0.27211   0.89056   0.60694   0.00000  Uiso   1.00
C514   C     0.19705   0.91182   0.58144   0.00000  Uiso   1.00
C515   C     0.03212   0.94067   0.54717   0.00000  Uiso   1.00
C516   C     0.59630   0.91026   0.64031   0.00000  Uiso   1.00
C517   C     0.61955   0.92235   0.67504   0.00000  Uiso   1.00
C518   C     0.70340   0.95815   0.68069   0.00000  Uiso   1.00
C519   C     0.83154   0.01381   0.70385   0.00000  Uiso   1.00
C520   C     0.61556   0.91426   0.57643   0.00000  Uiso   1.00
C521   C     0.65233   0.86499   0.57727   0.00000  Uiso   1.00
C522   C     0.73417   0.84348   0.55349   0.00000  Uiso   1.00
C523   C     0.75557   0.79826   0.55879   0.00000  Uiso   1.00
C524   C     0.46594   0.91585   0.57523   0.00000  Uiso   1.00
C525   C     0.39107   0.93712   0.54972   0.00000  Uiso   1.00
C526   C     0.25556   0.93472   0.55330   0.00000  Uiso   1.00
C527   C     0.65471   0.93311   0.61222   0.00000  Uiso   1.00
C528   C     0.73852   0.96891   0.61782   0.00000  Uiso   1.00
C529   C     0.76190   0.98105   0.65255   0.00000  Uiso   1.00
H530   H     0.46256   0.85439   0.65002   0.00000  Uiso   1.00
H531   H     0.56999   0.77925   0.63245   0.00000  Uiso   1.00
H532   H     0.22694   0.87287   0.62869   0.00000  Uiso   1.00
H533   H     0.57434   0.90466   0.69677   0.00000  Uiso   1.00
H534   H     0.71481   0.70602   0.60058   0.00000  Uiso   1.00
H535   H     0.99148   0.90345   0.59265   0.00000  Uiso   1.00
H536   H     0.72403   0.97047   0.73622   0.00000  Uiso   1.00
H537   H     0.66102   0.93206   0.55455   0.00000  Uiso   1.00
H538   H     0.77935   0.86118   0.53175   0.00000  Uiso   1.00
H539   H     0.43630   0.95481   0.52798   0.00000  Uiso   1.00
H540   H     0.78370   0.98659   0.59607   0.00000  Uiso   1.00
H541   H     0.88473   0.77252   0.51884   0.00000  Uiso   1.00
H542   H     0.16139   0.96995   0.51091   0.00000  Uiso   1.00
H543   H     0.89395   0.03697   0.65449   0.00000  Uiso   1.00
O544   O     0.87399   0.69124   0.54643   0.00000  Uiso   1.00
O545   O     0.92501   0.95026   0.53602   0.00000  Uiso   1.00
O546   O     0.88611   0.03819   0.72439   0.00000  Uiso   1.00
N547   N     0.73858   0.73140   0.58448   0.00000  Uiso   1.00
N548   N     0.06231   0.91598   0.57706   0.00000  Uiso   1.00
N549   N     0.74716   0.97864   0.71129   0.00000  Uiso   1.00
N550   N     0.83001   0.76718   0.54050   0.00000  Uiso   1.00
N551   N     0.15374   0.95176   0.53307   0.00000  Uiso   1.00
N552   N     0.83859   0.01443   0.66731   0.00000  Uiso   1.00
C553   C     0.41572   0.62980   0.87106   0.00000  Uiso   1.00
C554   C     0.49841   0.66045   0.89420   0.00000  Uiso   1.00
C555   C     0.51967   0.70558   0.88848   0.00000  Uiso   1.00
C556   C     0.59831   0.72776   0.91268   0.00000  Uiso   1.00
C557   C     0.71824   0.77873   0.94423   0.00000  Uiso   1.00
C558   C     0.31259   0.60930   0.89526   0.00000  Uiso   1.00
C559   C     0.17763   0.61141   0.89044   0.00000  Uiso   1.00
C560   C     0.09985   0.59052   0.91554   0.00000  Uiso   1.00
C561   C     0.93129   0.56205   0.94873   0.00000  Uiso   1.00
C562   C     0.50594   0.59165   0.86013   0.00000  Uiso   1.00
C563   C     0.53352   0.57892   0.82578   0.00000  Uiso   1.00
C564   C     0.61851   0.54316   0.82130   0.00000  Uiso   1.00
C565   C     0.75015   0.48729   0.79994   0.00000  Uiso   1.00
C566   C     0.51756   0.58893   0.92419   0.00000  Uiso   1.00
C567   C     0.55372   0.63825   0.92306   0.00000  Uiso   1.00
C568   C     0.63235   0.66036   0.94727   0.00000  Uiso   1.00
C569   C     0.65374   0.70552   0.94159   0.00000  Uiso   1.00
C570   C     0.36790   0.58710   0.92412   0.00000  Uiso   1.00
C571   C     0.29031   0.56620   0.94923   0.00000  Uiso   1.00
C572   C     0.15526   0.56828   0.94446   0.00000  Uiso   1.00
C573   C     0.56126   0.56945   0.88899   0.00000  Uiso   1.00
C574   C     0.64621   0.53371   0.88457   0.00000  Uiso   1.00
C575   C     0.67392   0.52092   0.85021   0.00000  Uiso   1.00
H576   H     0.37264   0.64709   0.84859   0.00000  Uiso   1.00
H577   H     0.47684   0.72275   0.86615   0.00000  Uiso   1.00
H578   H     0.13485   0.62859   0.86811   0.00000  Uiso   1.00
H579   H     0.49069   0.59611   0.80345   0.00000  Uiso   1.00
H580   H     0.61671   0.79685   0.89834   0.00000  Uiso   1.00
H581   H     0.89561   0.59830   0.90247   0.00000  Uiso   1.00
H582   H     0.64598   0.52980   0.76613   0.00000  Uiso   1.00
H583   H     0.56063   0.57165   0.94666   0.00000  Uiso   1.00
H584   H     0.67515   0.64317   0.96960   0.00000  Uiso   1.00
H585   H     0.33315   0.54902   0.97156   0.00000  Uiso   1.00
H586   H     0.68900   0.51653   0.90691   0.00000  Uiso   1.00
H587   H     0.77766   0.73227   0.98231   0.00000  Uiso   1.00
H588   H     0.05656   0.53371   0.98644   0.00000  Uiso   1.00
H589   H     0.80693   0.46522   0.85010   0.00000  Uiso   1.00
O590   O     0.76909   0.81298   0.95366   0.00000  Uiso   1.00
O591   O     0.82304   0.55248   0.95906   0.00000  Uiso   1.00
O592   O     0.80750   0.46261   0.78019   0.00000  Uiso   1.00
N593   N     0.63890   0.77184   0.91495   0.00000  Uiso   1.00
N594   N     0.96471   0.58621   0.91882   0.00000  Uiso   1.00
N595   N     0.66621   0.52216   0.79135   0.00000  Uiso   1.00
N596   N     0.72550   0.73708   0.96014   0.00000  Uiso   1.00
N597   N     0.05132   0.55145   0.96400   0.00000  Uiso   1.00
N598   N     0.75282   0.48741   0.83653   0.00000  Uiso   1.00
C599   C     0.49196   0.62782   0.12815   0.00000  Uiso   1.00
C600   C     0.40606   0.65787   0.10537   0.00000  Uiso   1.00
C601   C     0.38479   0.70307   0.11071   0.00000  Uiso   1.00
C602   C     0.30294   0.72464   0.08694   0.00000  Uiso   1.00
C603   C     0.17850   0.77479   0.05583   0.00000  Uiso   1.00
C604   C     0.59245   0.60701   0.10332   0.00000  Uiso   1.00
C605   C     0.72789   0.60944   0.10694   0.00000  Uiso   1.00
C606   C     0.80295   0.58818   0.08144   0.00000  Uiso   1.00
C607   C     0.96788   0.55933   0.04717   0.00000  Uiso   1.00
C608   C     0.40370   0.58974   0.14031   0.00000  Uiso   1.00
C609   C     0.38045   0.57765   0.17504   0.00000  Uiso   1.00
C610   C     0.29660   0.54185   0.18069   0.00000  Uiso   1.00
C611   C     0.16846   0.48619   0.20385   0.00000  Uiso   1.00
C612   C     0.38444   0.58574   0.07643   0.00000  Uiso   1.00
C613   C     0.34767   0.63501   0.07727   0.00000  Uiso   1.00
C614   C     0.26583   0.65652   0.05349   0.00000  Uiso   1.00
C615   C     0.24443   0.70174   0.05879   0.00000  Uiso   1.00
C616   C     0.53406   0.58415   0.07523   0.00000  Uiso   1.00
C617   C     0.60893   0.56288   0.04972   0.00000  Uiso   1.00
C618   C     0.74444   0.56528   0.05330   0.00000  Uiso   1.00
C619   C     0.34529   0.56689   0.11222   0.00000  Uiso   1.00
C620   C     0.26148   0.53109   0.11782   0.00000  Uiso   1.00
C621   C     0.23810   0.51895   0.15255   0.00000  Uiso   1.00
H622   H     0.53744   0.64561   0.15002   0.00000  Uiso   1.00
H623   H     0.43001   0.72075   0.13245   0.00000  Uiso   1.00
H624   H     0.77306   0.62713   0.12869   0.00000  Uiso   1.00
H625   H     0.42566   0.59534   0.19677   0.00000  Uiso   1.00
H626   H     0.28519   0.79398   0.10058   0.00000  Uiso   1.00
H627   H     0.00852   0.59655   0.09265   0.00000  Uiso   1.00
H628   H     0.27597   0.52953   0.23622   0.00000  Uiso   1.00
H629   H     0.33898   0.56794   0.05455   0.00000  Uiso   1.00
H630   H     0.22065   0.63882   0.03175   0.00000  Uiso   1.00
H631   H     0.56370   0.54519   0.02798   0.00000  Uiso   1.00
H632   H     0.21630   0.51341   0.09607   0.00000  Uiso   1.00
H633   H     0.11527   0.72748   0.01884   0.00000  Uiso   1.00
H634   H     0.83861   0.53005   0.01091   0.00000  Uiso   1.00
H635   H     0.10605   0.46303   0.15449   0.00000  Uiso   1.00
O636   O     0.12601   0.80876   0.04643   0.00000  Uiso   1.00
O637   O     0.07499   0.54974   0.03602   0.00000  Uiso   1.00
O638   O     0.11389   0.46181   0.22439   0.00000  Uiso   1.00
N639   N     0.26142   0.76860   0.08448   0.00000  Uiso   1.00
N640   N     0.93769   0.58402   0.07706   0.00000  Uiso   1.00
N641   N     0.25284   0.52136   0.21129   0.00000  Uiso   1.00
N642   N     0.16999   0.73282   0.04050   0.00000  Uiso   1.00
N643   N     0.84626   0.54824   0.03307   0.00000  Uiso   1.00
N644   N     0.16141   0.48557   0.16731   0.00000  Uiso   1.00
C645   C     0.41572   0.12980   0.37106   0.00000  Uiso   1.00
C646   C     0.49841   0.16045   0.39420   0.00000  Uiso   1.00
C647   C     0.51967   0.20558   0.38848   0.00000  Uiso   1.00
C648   C     0.59831   0.22776   0.41268   0.00000  Uiso   1.00
C649   C     0.71824   0.27873   0.44423   0.00000  Uiso   1.00
C650   C     0.31259   0.10930   0.39526   0.00000  Uiso   1.00
C651   C     0.17763   0.11141   0.39044   0.00000  Uiso   1.00
C652   C     0.09985   0.09052   0.41554   0.00000  Uiso   1.00
C653   C     0.93129   0.06205   0.44873   0.00000  Uiso   1.00
C654   C     0.50594   0.09165   0.36013   0.00000  Uiso   1.00
C655   C     0.53352   0.07892   0.32578   0.00000  Uiso   1.00
C656   C     0.61851   0.04316   0.32130   0.00000  Uiso   1.00
C657   C     0.75015   0.98729   0.29994   0.00000  Uiso   1.00
C658   C     0.51756   0.08893   0.42419   0.00000  Uiso   1.00
C659   C     0.55372   0.13825   0.42306   0.00000  Uiso   1.00
C660   C     0.63235   0.16036   0.44727   0.00000  Uiso   1.00
C661   C     0.65374   0.20552   0.44159   0.00000  Uiso   1.00
C662   C     0.36790   0.08710   0.42412   0.00000  Uiso   1.00
C663   C     0.29031   0.06620   0.44923   0.00000  Uiso   1.00
C664   C     0.15526   0.06828   0.44446   0.00000  Uiso   1.00
C665   C     0.56126   0.06945   0.38899   0.00000  Uiso   1.00
C666   C     0.64621   0.03371   0.38457   0.00000  Uiso   1.00
C667   C     0.67392   0.02092   0.35021   0.00000  Uiso   1.00
H668   H     0.37264   0.14709   0.34859   0.00000  Uiso   1.00
H669   H     0.47684   0.22275   0.36615   0.00000  Uiso   1.00
H670   H     0.13485   0.12859   0.36811   0.00000  Uiso   1.00
H671   H     0.49069   0.09611   0.30345   0.00000  Uiso   1.00
H672   H     0.61671   0.29685   0.39834   0.00000  Uiso   1.00
H673   H     0.89561   0.09830   0.40247   0.00000  Uiso   1.00
H674   H     0.64598   0.02980   0.26613   0.00000  Uiso   1.00
H675   H     0.56063   0.07165   0.44666   0.00000  Uiso   1.00
H676   H     0.67515   0.14317   0.46960   0.00000  Uiso   1.00
H677   H     0.33315   0.04902   0.47156   0.00000  Uiso   1.00
H678   H     0.68900   0.01653   0.40691   0.00000  Uiso   1.00
H679   H     0.77766   0.23227   0.48231   0.00000  Uiso   1.00
H680   H     0.05656   0.03371   0.48644   0.00000  Uiso   1.00
H681   H     0.80693   0.96522   0.35010   0.00000  Uiso   1.00
O682   O     0.76909   0.31298   0.45366   0.00000  Uiso   1.00
O683   O     0.82304   0.05248   0.45906   0.00000  Uiso   1.00
O684   O     0.80750   0.96261   0.28019   0.00000  Uiso   1.00
N685   N     0.63890   0.27184   0.41495   0.00000  Uiso   1.00
N686   N     0.96471   0.08621   0.41882   0.00000  Uiso   1.00
N687   N     0.66621   0.02216   0.29135   0.00000  Uiso   1.00
N688   N     0.72550   0.23708   0.46014   0.00000  Uiso   1.00
N689   N     0.05132   0.05145   0.46400   0.00000  Uiso   1.00
N690   N     0.75282   0.98741   0.33653   0.00000  Uiso   1.00
C691   C     0.49196   0.12782   0.62815   0.00000  Uiso   1.00
C692   C     0.40606   0.15787   0.60537   0.00000  Uiso   1.00
C693   C     0.38479   0.20307   0.61071   0.00000  Uiso   1.00
C694   C     0.30294   0.22464   0.58694   0.00000  Uiso   1.00
C695   C     0.17850   0.27479   0.55583   0.00000  Uiso   1.00
C696   C     0.59245   0.10701   0.60332   0.00000  Uiso   1.00
C697   C     0.72789   0.10944   0.60694   0.00000  Uiso   1.00
C698   C     0.80295   0.08818   0.58144   0.00000  Uiso   1.00
C699   C     0.96788   0.05933   0.54717   0.00000  Uiso   1.00
C700   C     0.40370   0.08974   0.64031   0.00000  Uiso   1.00
C701   C     0.38045   0.07765   0.67504   0.00000  Uiso   1.00
C702   C     0.29660   0.04185   0.68069   0.00000  Uiso   1.00
C703   C     0.16846   0.98619   0.70385   0.00000  Uiso   1.00
C704   C     0.38444   0.08574   0.57643   0.00000  Uiso   1.00
C705   C     0.34767   0.13501   0.57727   0.00000  Uiso   1.00
C706   C     0.26583   0.15652   0.55349   0.00000  Uiso   1.00
C707   C     0.24443   0.20174   0.55879   0.00000  Uiso   1.00
C708   C     0.53406   0.08415   0.57523   0.00000  Uiso   1.00
C709   C     0.60893   0.06288   0.54972   0.00000  Uiso   1.00
C710   C     0.74444   0.06528   0.55330   0.00000  Uiso   1.00
C711   C     0.34529   0.06689   0.61222   0.00000  Uiso   1.00
C712   C     0.26148   0.03109   0.61782   0.00000  Uiso   1.00
C713   C     0.23810   0.01895   0.65255   0.00000  Uiso   1.00
H714   H     0.53744   0.14561   0.65002   0.00000  Uiso   1.00
H715   H     0.43001   0.22075   0.63245   0.00000  Uiso   1.00
H716   H     0.77306   0.12713   0.62869   0.00000  Uiso   1.00
H717   H     0.42566   0.09534   0.69677   0.00000  Uiso   1.00
H718   H     0.28519   0.29398   0.60058   0.00000  Uiso   1.00
H719   H     0.00852   0.09655   0.59265   0.00000  Uiso   1.00
H720   H     0.27597   0.02953   0.73622   0.00000  Uiso   1.00
H721   H     0.33898   0.06794   0.55455   0.00000  Uiso   1.00
H722   H     0.22065   0.13882   0.53175   0.00000  Uiso   1.00
H723   H     0.56370   0.04519   0.52798   0.00000  Uiso   1.00
H724   H     0.21630   0.01341   0.59607   0.00000  Uiso   1.00
H725   H     0.11527   0.22748   0.51884   0.00000  Uiso   1.00
H726   H     0.83861   0.03005   0.51091   0.00000  Uiso   1.00
H727   H     0.10605   0.96303   0.65449   0.00000  Uiso   1.00
O728   O     0.12601   0.30876   0.54643   0.00000  Uiso   1.00
O729   O     0.07499   0.04974   0.53602   0.00000  Uiso   1.00
O730   O     0.11389   0.96181   0.72439   0.00000  Uiso   1.00
N731   N     0.26142   0.26860   0.58448   0.00000  Uiso   1.00
N732   N     0.93769   0.08402   0.57706   0.00000  Uiso   1.00
N733   N     0.25284   0.02136   0.71129   0.00000  Uiso   1.00
N734   N     0.16999   0.23282   0.54050   0.00000  Uiso   1.00
N735   N     0.84626   0.04824   0.53307   0.00000  Uiso   1.00
N736   N     0.16141   0.98557   0.66731   0.00000  Uiso   1.00
