data_job_03808
_audit_creation_date              2018-12-19
_audit_creation_method            'Materials Studio'
_symmetry_space_group_name_H-M    'P1'
_symmetry_Int_Tables_number       1
_symmetry_cell_setting            triclinic
loop_
_symmetry_equiv_pos_as_xyz
  x,y,z
_cell_length_a                    17.3629
_cell_length_b                    17.3629
_cell_length_c                    41.1483
_cell_angle_alpha                 90.0000
_cell_angle_beta                  90.0000
_cell_angle_gamma                 90.0000
loop_
_atom_site_label
_atom_site_type_symbol
_atom_site_fract_x
_atom_site_fract_y
_atom_site_fract_z
_atom_site_U_iso_or_equiv
_atom_site_adp_type
_atom_site_occupancy
C1     C     0.79498   0.69504   0.50882   0.00000  Uiso   1.00
C2     C     0.73579   0.75584   0.49926   0.00000  Uiso   1.00
C3     C     0.74810   0.83481   0.49876   0.00000  Uiso   1.00
C4     C     0.68662   0.88078   0.48931   0.00000  Uiso   1.00
C5     C     0.60553   0.98005   0.47580   0.00000  Uiso   1.00
C6     C     0.75854   0.64881   0.53632   0.00000  Uiso   1.00
C7     C     0.78999   0.63777   0.56697   0.00000  Uiso   1.00
C8     C     0.74767   0.59363   0.58872   0.00000  Uiso   1.00
C9     C     0.70194   0.52668   0.63274   0.00000  Uiso   1.00
C10    C     0.80079   0.64019   0.47998   0.00000  Uiso   1.00
C11    C     0.86777   0.62189   0.46327   0.00000  Uiso   1.00
C12    C     0.86102   0.57047   0.43758   0.00000  Uiso   1.00
C13    C     0.88088   0.49014   0.39412   0.00000  Uiso   1.00
C14    C     0.66392   0.63626   0.49292   0.00000  Uiso   1.00
C15    C     0.66460   0.72392   0.49063   0.00000  Uiso   1.00
C16    C     0.60309   0.76978   0.48117   0.00000  Uiso   1.00
C17    C     0.61531   0.84880   0.48066   0.00000  Uiso   1.00
C18    C     0.68736   0.61688   0.52769   0.00000  Uiso   1.00
C19    C     0.64499   0.57274   0.54939   0.00000  Uiso   1.00
C20    C     0.67636   0.56164   0.58007   0.00000  Uiso   1.00
C21    C     0.72961   0.60826   0.47134   0.00000  Uiso   1.00
C22    C     0.72276   0.55686   0.44568   0.00000  Uiso   1.00
C23    C     0.78971   0.53849   0.42893   0.00000  Uiso   1.00
H24    H     0.85040   0.71989   0.51554   0.00000  Uiso   1.00
H25    H     0.80319   0.85949   0.50545   0.00000  Uiso   1.00
H26    H     0.84508   0.66248   0.57365   0.00000  Uiso   1.00
H27    H     0.92284   0.64660   0.46996   0.00000  Uiso   1.00
H28    H     0.71945   0.00019   0.49046   0.00000  Uiso   1.00
H29    H     0.80779   0.58475   0.63426   0.00000  Uiso   1.00
H30    H     0.97177   0.55127   0.41561   0.00000  Uiso   1.00
H31    H     0.60850   0.61140   0.48620   0.00000  Uiso   1.00
H32    H     0.54801   0.74506   0.47449   0.00000  Uiso   1.00
H33    H     0.58990   0.54804   0.54270   0.00000  Uiso   1.00
H34    H     0.66766   0.53217   0.43900   0.00000  Uiso   1.00
H35    H     0.51234   0.90731   0.46534   0.00000  Uiso   1.00
H36    H     0.60068   0.49186   0.60914   0.00000  Uiso   1.00
H37    H     0.76465   0.45839   0.39049   0.00000  Uiso   1.00
O38    O     0.58047   0.04363   0.47074   0.00000  Uiso   1.00
O39    O     0.69637   0.49857   0.65940   0.00000  Uiso   1.00
O40    O     0.91150   0.45466   0.37253   0.00000  Uiso   1.00
N41    N     0.67901   0.95999   0.48615   0.00000  Uiso   1.00
N42    N     0.76160   0.57159   0.62060   0.00000  Uiso   1.00
N43    N     0.91490   0.54027   0.41618   0.00000  Uiso   1.00
N44    N     0.56757   0.91001   0.47263   0.00000  Uiso   1.00
N45    N     0.65015   0.52161   0.60708   0.00000  Uiso   1.00
N46    N     0.80346   0.49029   0.40266   0.00000  Uiso   1.00
C47    C     0.29498   0.19504   0.00882   0.00000  Uiso   1.00
C48    C     0.23579   0.25584   0.99926   0.00000  Uiso   1.00
C49    C     0.24810   0.33481   0.99876   0.00000  Uiso   1.00
C50    C     0.18662   0.38078   0.98931   0.00000  Uiso   1.00
C51    C     0.10553   0.48005   0.97580   0.00000  Uiso   1.00
C52    C     0.25854   0.14881   0.03632   0.00000  Uiso   1.00
C53    C     0.28999   0.13777   0.06697   0.00000  Uiso   1.00
C54    C     0.24767   0.09363   0.08872   0.00000  Uiso   1.00
C55    C     0.20194   0.02668   0.13274   0.00000  Uiso   1.00
C56    C     0.30079   0.14019   0.97998   0.00000  Uiso   1.00
C57    C     0.36777   0.12189   0.96327   0.00000  Uiso   1.00
C58    C     0.36102   0.07047   0.93758   0.00000  Uiso   1.00
C59    C     0.38088   0.99014   0.89412   0.00000  Uiso   1.00
C60    C     0.16392   0.13626   0.99292   0.00000  Uiso   1.00
C61    C     0.16460   0.22392   0.99063   0.00000  Uiso   1.00
C62    C     0.10309   0.26978   0.98117   0.00000  Uiso   1.00
C63    C     0.11531   0.34880   0.98066   0.00000  Uiso   1.00
C64    C     0.18736   0.11688   0.02769   0.00000  Uiso   1.00
C65    C     0.14499   0.07274   0.04939   0.00000  Uiso   1.00
C66    C     0.17636   0.06164   0.08007   0.00000  Uiso   1.00
C67    C     0.22961   0.10826   0.97134   0.00000  Uiso   1.00
C68    C     0.22276   0.05686   0.94568   0.00000  Uiso   1.00
C69    C     0.28971   0.03849   0.92893   0.00000  Uiso   1.00
H70    H     0.35040   0.21989   0.01554   0.00000  Uiso   1.00
H71    H     0.30319   0.35949   0.00545   0.00000  Uiso   1.00
H72    H     0.34508   0.16248   0.07365   0.00000  Uiso   1.00
H73    H     0.42284   0.14660   0.96996   0.00000  Uiso   1.00
H74    H     0.21945   0.50019   0.99046   0.00000  Uiso   1.00
H75    H     0.30779   0.08475   0.13426   0.00000  Uiso   1.00
H76    H     0.47177   0.05127   0.91561   0.00000  Uiso   1.00
H77    H     0.10850   0.11140   0.98620   0.00000  Uiso   1.00
H78    H     0.04801   0.24506   0.97449   0.00000  Uiso   1.00
H79    H     0.08990   0.04804   0.04270   0.00000  Uiso   1.00
H80    H     0.16766   0.03217   0.93900   0.00000  Uiso   1.00
H81    H     0.01234   0.40731   0.96534   0.00000  Uiso   1.00
H82    H     0.10068   0.99186   0.10914   0.00000  Uiso   1.00
H83    H     0.26465   0.95839   0.89049   0.00000  Uiso   1.00
O84    O     0.08047   0.54363   0.97074   0.00000  Uiso   1.00
O85    O     0.19637   0.99857   0.15940   0.00000  Uiso   1.00
O86    O     0.41150   0.95466   0.87253   0.00000  Uiso   1.00
N87    N     0.17901   0.45999   0.98615   0.00000  Uiso   1.00
N88    N     0.26160   0.07159   0.12060   0.00000  Uiso   1.00
N89    N     0.41490   0.04027   0.91618   0.00000  Uiso   1.00
N90    N     0.06757   0.41001   0.97263   0.00000  Uiso   1.00
N91    N     0.15015   0.02161   0.10708   0.00000  Uiso   1.00
N92    N     0.30346   0.99029   0.90266   0.00000  Uiso   1.00
C93    C     0.70502   0.80496   0.00882   0.00000  Uiso   1.00
C94    C     0.76421   0.74416   0.99926   0.00000  Uiso   1.00
C95    C     0.75190   0.66519   0.99876   0.00000  Uiso   1.00
C96    C     0.81338   0.61922   0.98931   0.00000  Uiso   1.00
C97    C     0.89447   0.51995   0.97580   0.00000  Uiso   1.00
C98    C     0.74146   0.85119   0.03632   0.00000  Uiso   1.00
C99    C     0.71001   0.86223   0.06697   0.00000  Uiso   1.00
C100   C     0.75233   0.90637   0.08872   0.00000  Uiso   1.00
C101   C     0.79806   0.97332   0.13274   0.00000  Uiso   1.00
C102   C     0.69921   0.85981   0.97998   0.00000  Uiso   1.00
C103   C     0.63223   0.87811   0.96327   0.00000  Uiso   1.00
C104   C     0.63898   0.92953   0.93758   0.00000  Uiso   1.00
C105   C     0.61912   0.00986   0.89412   0.00000  Uiso   1.00
C106   C     0.83608   0.86374   0.99292   0.00000  Uiso   1.00
C107   C     0.83540   0.77608   0.99063   0.00000  Uiso   1.00
C108   C     0.89691   0.73022   0.98117   0.00000  Uiso   1.00
C109   C     0.88469   0.65120   0.98066   0.00000  Uiso   1.00
C110   C     0.81264   0.88312   0.02769   0.00000  Uiso   1.00
C111   C     0.85501   0.92726   0.04939   0.00000  Uiso   1.00
C112   C     0.82364   0.93836   0.08007   0.00000  Uiso   1.00
C113   C     0.77039   0.89174   0.97134   0.00000  Uiso   1.00
C114   C     0.77724   0.94314   0.94568   0.00000  Uiso   1.00
C115   C     0.71029   0.96151   0.92893   0.00000  Uiso   1.00
H116   H     0.64960   0.78011   0.01554   0.00000  Uiso   1.00
H117   H     0.69681   0.64051   0.00545   0.00000  Uiso   1.00
H118   H     0.65492   0.83752   0.07365   0.00000  Uiso   1.00
H119   H     0.57716   0.85340   0.96996   0.00000  Uiso   1.00
H120   H     0.78055   0.49981   0.99046   0.00000  Uiso   1.00
H121   H     0.69221   0.91525   0.13426   0.00000  Uiso   1.00
H122   H     0.52823   0.94873   0.91561   0.00000  Uiso   1.00
H123   H     0.89150   0.88860   0.98620   0.00000  Uiso   1.00
H124   H     0.95199   0.75494   0.97449   0.00000  Uiso   1.00
H125   H     0.91010   0.95196   0.04270   0.00000  Uiso   1.00
H126   H     0.83234   0.96783   0.93900   0.00000  Uiso   1.00
H127   H     0.98766   0.59269   0.96534   0.00000  Uiso   1.00
H128   H     0.89932   0.00814   0.10914   0.00000  Uiso   1.00
H129   H     0.73535   0.04161   0.89049   0.00000  Uiso   1.00
O130   O     0.91953   0.45637   0.97074   0.00000  Uiso   1.00
O131   O     0.80363   0.00143   0.15940   0.00000  Uiso   1.00
O132   O     0.58850   0.04534   0.87253   0.00000  Uiso   1.00
N133   N     0.82099   0.54001   0.98615   0.00000  Uiso   1.00
N134   N     0.73840   0.92841   0.12060   0.00000  Uiso   1.00
N135   N     0.58510   0.95973   0.91618   0.00000  Uiso   1.00
N136   N     0.93243   0.58999   0.97263   0.00000  Uiso   1.00
N137   N     0.84985   0.97839   0.10708   0.00000  Uiso   1.00
N138   N     0.69654   0.00971   0.90266   0.00000  Uiso   1.00
C139   C     0.20502   0.30496   0.50882   0.00000  Uiso   1.00
C140   C     0.26421   0.24416   0.49926   0.00000  Uiso   1.00
C141   C     0.25190   0.16519   0.49876   0.00000  Uiso   1.00
C142   C     0.31338   0.11922   0.48931   0.00000  Uiso   1.00
C143   C     0.39447   0.01995   0.47580   0.00000  Uiso   1.00
C144   C     0.24146   0.35119   0.53632   0.00000  Uiso   1.00
C145   C     0.21001   0.36223   0.56697   0.00000  Uiso   1.00
C146   C     0.25233   0.40637   0.58872   0.00000  Uiso   1.00
C147   C     0.29806   0.47332   0.63274   0.00000  Uiso   1.00
C148   C     0.19921   0.35981   0.47998   0.00000  Uiso   1.00
C149   C     0.13223   0.37811   0.46327   0.00000  Uiso   1.00
C150   C     0.13898   0.42953   0.43758   0.00000  Uiso   1.00
C151   C     0.11912   0.50986   0.39412   0.00000  Uiso   1.00
C152   C     0.33608   0.36374   0.49292   0.00000  Uiso   1.00
C153   C     0.33540   0.27608   0.49063   0.00000  Uiso   1.00
C154   C     0.39691   0.23022   0.48117   0.00000  Uiso   1.00
C155   C     0.38469   0.15120   0.48066   0.00000  Uiso   1.00
C156   C     0.31264   0.38312   0.52769   0.00000  Uiso   1.00
C157   C     0.35501   0.42726   0.54939   0.00000  Uiso   1.00
C158   C     0.32364   0.43836   0.58007   0.00000  Uiso   1.00
C159   C     0.27039   0.39174   0.47134   0.00000  Uiso   1.00
C160   C     0.27724   0.44314   0.44568   0.00000  Uiso   1.00
C161   C     0.21029   0.46151   0.42893   0.00000  Uiso   1.00
H162   H     0.14960   0.28011   0.51554   0.00000  Uiso   1.00
H163   H     0.19681   0.14051   0.50545   0.00000  Uiso   1.00
H164   H     0.15492   0.33752   0.57365   0.00000  Uiso   1.00
H165   H     0.07716   0.35340   0.46996   0.00000  Uiso   1.00
H166   H     0.28055   0.99981   0.49046   0.00000  Uiso   1.00
H167   H     0.19221   0.41525   0.63426   0.00000  Uiso   1.00
H168   H     0.02823   0.44873   0.41561   0.00000  Uiso   1.00
H169   H     0.39150   0.38860   0.48620   0.00000  Uiso   1.00
H170   H     0.45199   0.25494   0.47449   0.00000  Uiso   1.00
H171   H     0.41010   0.45196   0.54270   0.00000  Uiso   1.00
H172   H     0.33234   0.46783   0.43900   0.00000  Uiso   1.00
H173   H     0.48766   0.09269   0.46534   0.00000  Uiso   1.00
H174   H     0.39932   0.50814   0.60914   0.00000  Uiso   1.00
H175   H     0.23535   0.54161   0.39049   0.00000  Uiso   1.00
O176   O     0.41953   0.95637   0.47074   0.00000  Uiso   1.00
O177   O     0.30363   0.50143   0.65940   0.00000  Uiso   1.00
O178   O     0.08850   0.54534   0.37253   0.00000  Uiso   1.00
N179   N     0.32099   0.04001   0.48615   0.00000  Uiso   1.00
N180   N     0.23840   0.42841   0.62060   0.00000  Uiso   1.00
N181   N     0.08510   0.45973   0.41618   0.00000  Uiso   1.00
N182   N     0.43243   0.08999   0.47263   0.00000  Uiso   1.00
N183   N     0.34985   0.47839   0.60708   0.00000  Uiso   1.00
N184   N     0.19654   0.50971   0.40266   0.00000  Uiso   1.00
C185   C     0.30496   0.29498   0.75882   0.00000  Uiso   1.00
C186   C     0.24416   0.23579   0.74926   0.00000  Uiso   1.00
C187   C     0.16519   0.24810   0.74876   0.00000  Uiso   1.00
C188   C     0.11922   0.18662   0.73931   0.00000  Uiso   1.00
C189   C     0.01995   0.10553   0.72580   0.00000  Uiso   1.00
C190   C     0.35119   0.25854   0.78632   0.00000  Uiso   1.00
C191   C     0.36223   0.28999   0.81697   0.00000  Uiso   1.00
C192   C     0.40637   0.24767   0.83872   0.00000  Uiso   1.00
C193   C     0.47332   0.20194   0.88274   0.00000  Uiso   1.00
C194   C     0.35981   0.30079   0.72998   0.00000  Uiso   1.00
C195   C     0.37811   0.36777   0.71327   0.00000  Uiso   1.00
C196   C     0.42953   0.36102   0.68758   0.00000  Uiso   1.00
C197   C     0.50986   0.38088   0.64412   0.00000  Uiso   1.00
C198   C     0.36374   0.16392   0.74292   0.00000  Uiso   1.00
C199   C     0.27608   0.16460   0.74063   0.00000  Uiso   1.00
C200   C     0.23022   0.10309   0.73117   0.00000  Uiso   1.00
C201   C     0.15120   0.11531   0.73066   0.00000  Uiso   1.00
C202   C     0.38312   0.18736   0.77769   0.00000  Uiso   1.00
C203   C     0.42726   0.14499   0.79939   0.00000  Uiso   1.00
C204   C     0.43836   0.17636   0.83007   0.00000  Uiso   1.00
C205   C     0.39174   0.22961   0.72134   0.00000  Uiso   1.00
C206   C     0.44314   0.22276   0.69568   0.00000  Uiso   1.00
C207   C     0.46151   0.28971   0.67893   0.00000  Uiso   1.00
H208   H     0.28011   0.35040   0.76554   0.00000  Uiso   1.00
H209   H     0.14051   0.30319   0.75545   0.00000  Uiso   1.00
H210   H     0.33752   0.34508   0.82365   0.00000  Uiso   1.00
H211   H     0.35340   0.42284   0.71996   0.00000  Uiso   1.00
H212   H     0.99981   0.21945   0.74046   0.00000  Uiso   1.00
H213   H     0.41525   0.30779   0.88426   0.00000  Uiso   1.00
H214   H     0.44873   0.47177   0.66561   0.00000  Uiso   1.00
H215   H     0.38860   0.10850   0.73620   0.00000  Uiso   1.00
H216   H     0.25494   0.04801   0.72449   0.00000  Uiso   1.00
H217   H     0.45196   0.08990   0.79270   0.00000  Uiso   1.00
H218   H     0.46783   0.16766   0.68900   0.00000  Uiso   1.00
H219   H     0.09269   0.01234   0.71534   0.00000  Uiso   1.00
H220   H     0.50814   0.10068   0.85914   0.00000  Uiso   1.00
H221   H     0.54161   0.26465   0.64049   0.00000  Uiso   1.00
O222   O     0.95637   0.08047   0.72074   0.00000  Uiso   1.00
O223   O     0.50143   0.19637   0.90940   0.00000  Uiso   1.00
O224   O     0.54534   0.41150   0.62253   0.00000  Uiso   1.00
N225   N     0.04001   0.17901   0.73615   0.00000  Uiso   1.00
N226   N     0.42841   0.26160   0.87060   0.00000  Uiso   1.00
N227   N     0.45973   0.41490   0.66618   0.00000  Uiso   1.00
N228   N     0.08999   0.06757   0.72263   0.00000  Uiso   1.00
N229   N     0.47839   0.15015   0.85708   0.00000  Uiso   1.00
N230   N     0.50971   0.30346   0.65266   0.00000  Uiso   1.00
C231   C     0.80496   0.79498   0.25882   0.00000  Uiso   1.00
C232   C     0.74416   0.73579   0.24926   0.00000  Uiso   1.00
C233   C     0.66519   0.74810   0.24876   0.00000  Uiso   1.00
C234   C     0.61922   0.68662   0.23931   0.00000  Uiso   1.00
C235   C     0.51995   0.60553   0.22580   0.00000  Uiso   1.00
C236   C     0.85119   0.75854   0.28632   0.00000  Uiso   1.00
C237   C     0.86223   0.78999   0.31697   0.00000  Uiso   1.00
C238   C     0.90637   0.74767   0.33872   0.00000  Uiso   1.00
C239   C     0.97332   0.70194   0.38274   0.00000  Uiso   1.00
C240   C     0.85981   0.80079   0.22998   0.00000  Uiso   1.00
C241   C     0.87811   0.86777   0.21327   0.00000  Uiso   1.00
C242   C     0.92953   0.86102   0.18758   0.00000  Uiso   1.00
C243   C     0.00986   0.88088   0.14412   0.00000  Uiso   1.00
C244   C     0.86374   0.66392   0.24292   0.00000  Uiso   1.00
C245   C     0.77608   0.66460   0.24063   0.00000  Uiso   1.00
C246   C     0.73022   0.60309   0.23117   0.00000  Uiso   1.00
C247   C     0.65120   0.61531   0.23066   0.00000  Uiso   1.00
C248   C     0.88312   0.68736   0.27769   0.00000  Uiso   1.00
C249   C     0.92726   0.64499   0.29939   0.00000  Uiso   1.00
C250   C     0.93836   0.67636   0.33007   0.00000  Uiso   1.00
C251   C     0.89174   0.72961   0.22134   0.00000  Uiso   1.00
C252   C     0.94314   0.72276   0.19568   0.00000  Uiso   1.00
C253   C     0.96151   0.78971   0.17893   0.00000  Uiso   1.00
H254   H     0.78011   0.85040   0.26554   0.00000  Uiso   1.00
H255   H     0.64051   0.80319   0.25545   0.00000  Uiso   1.00
H256   H     0.83752   0.84508   0.32365   0.00000  Uiso   1.00
H257   H     0.85340   0.92284   0.21996   0.00000  Uiso   1.00
H258   H     0.49981   0.71945   0.24046   0.00000  Uiso   1.00
H259   H     0.91525   0.80779   0.38426   0.00000  Uiso   1.00
H260   H     0.94873   0.97177   0.16561   0.00000  Uiso   1.00
H261   H     0.88860   0.60850   0.23620   0.00000  Uiso   1.00
H262   H     0.75494   0.54801   0.22449   0.00000  Uiso   1.00
H263   H     0.95196   0.58990   0.29270   0.00000  Uiso   1.00
H264   H     0.96783   0.66766   0.18900   0.00000  Uiso   1.00
H265   H     0.59269   0.51234   0.21534   0.00000  Uiso   1.00
H266   H     0.00814   0.60068   0.35914   0.00000  Uiso   1.00
H267   H     0.04161   0.76465   0.14049   0.00000  Uiso   1.00
O268   O     0.45637   0.58047   0.22074   0.00000  Uiso   1.00
O269   O     0.00143   0.69637   0.40940   0.00000  Uiso   1.00
O270   O     0.04534   0.91150   0.12253   0.00000  Uiso   1.00
N271   N     0.54001   0.67901   0.23615   0.00000  Uiso   1.00
N272   N     0.92841   0.76160   0.37060   0.00000  Uiso   1.00
N273   N     0.95973   0.91490   0.16618   0.00000  Uiso   1.00
N274   N     0.58999   0.56757   0.22263   0.00000  Uiso   1.00
N275   N     0.97839   0.65015   0.35708   0.00000  Uiso   1.00
N276   N     0.00971   0.80346   0.15266   0.00000  Uiso   1.00
C277   C     0.19504   0.20502   0.25882   0.00000  Uiso   1.00
C278   C     0.25584   0.26421   0.24926   0.00000  Uiso   1.00
C279   C     0.33481   0.25190   0.24876   0.00000  Uiso   1.00
C280   C     0.38078   0.31338   0.23931   0.00000  Uiso   1.00
C281   C     0.48005   0.39447   0.22580   0.00000  Uiso   1.00
C282   C     0.14881   0.24146   0.28632   0.00000  Uiso   1.00
C283   C     0.13777   0.21001   0.31697   0.00000  Uiso   1.00
C284   C     0.09363   0.25233   0.33872   0.00000  Uiso   1.00
C285   C     0.02668   0.29806   0.38274   0.00000  Uiso   1.00
C286   C     0.14019   0.19921   0.22998   0.00000  Uiso   1.00
C287   C     0.12189   0.13223   0.21327   0.00000  Uiso   1.00
C288   C     0.07047   0.13898   0.18758   0.00000  Uiso   1.00
C289   C     0.99014   0.11912   0.14412   0.00000  Uiso   1.00
C290   C     0.13626   0.33608   0.24292   0.00000  Uiso   1.00
C291   C     0.22392   0.33540   0.24063   0.00000  Uiso   1.00
C292   C     0.26978   0.39691   0.23117   0.00000  Uiso   1.00
C293   C     0.34880   0.38469   0.23066   0.00000  Uiso   1.00
C294   C     0.11688   0.31264   0.27769   0.00000  Uiso   1.00
C295   C     0.07274   0.35501   0.29939   0.00000  Uiso   1.00
C296   C     0.06164   0.32364   0.33007   0.00000  Uiso   1.00
C297   C     0.10826   0.27039   0.22134   0.00000  Uiso   1.00
C298   C     0.05686   0.27724   0.19568   0.00000  Uiso   1.00
C299   C     0.03849   0.21029   0.17893   0.00000  Uiso   1.00
H300   H     0.21989   0.14960   0.26554   0.00000  Uiso   1.00
H301   H     0.35949   0.19681   0.25545   0.00000  Uiso   1.00
H302   H     0.16248   0.15492   0.32365   0.00000  Uiso   1.00
H303   H     0.14660   0.07716   0.21996   0.00000  Uiso   1.00
H304   H     0.50019   0.28055   0.24046   0.00000  Uiso   1.00
H305   H     0.08475   0.19221   0.38426   0.00000  Uiso   1.00
H306   H     0.05127   0.02823   0.16561   0.00000  Uiso   1.00
H307   H     0.11140   0.39150   0.23620   0.00000  Uiso   1.00
H308   H     0.24506   0.45199   0.22449   0.00000  Uiso   1.00
H309   H     0.04804   0.41010   0.29270   0.00000  Uiso   1.00
H310   H     0.03217   0.33234   0.18900   0.00000  Uiso   1.00
H311   H     0.40731   0.48766   0.21534   0.00000  Uiso   1.00
H312   H     0.99186   0.39932   0.35914   0.00000  Uiso   1.00
H313   H     0.95839   0.23535   0.14049   0.00000  Uiso   1.00
O314   O     0.54363   0.41953   0.22074   0.00000  Uiso   1.00
O315   O     0.99857   0.30363   0.40940   0.00000  Uiso   1.00
O316   O     0.95466   0.08850   0.12253   0.00000  Uiso   1.00
N317   N     0.45999   0.32099   0.23615   0.00000  Uiso   1.00
N318   N     0.07159   0.23840   0.37060   0.00000  Uiso   1.00
N319   N     0.04027   0.08510   0.16618   0.00000  Uiso   1.00
N320   N     0.41001   0.43243   0.22263   0.00000  Uiso   1.00
N321   N     0.02161   0.34985   0.35708   0.00000  Uiso   1.00
N322   N     0.99029   0.19654   0.15266   0.00000  Uiso   1.00
C323   C     0.69504   0.70502   0.75882   0.00000  Uiso   1.00
C324   C     0.75584   0.76421   0.74926   0.00000  Uiso   1.00
C325   C     0.83481   0.75190   0.74876   0.00000  Uiso   1.00
C326   C     0.88078   0.81338   0.73931   0.00000  Uiso   1.00
C327   C     0.98005   0.89447   0.72580   0.00000  Uiso   1.00
C328   C     0.64881   0.74146   0.78632   0.00000  Uiso   1.00
C329   C     0.63777   0.71001   0.81697   0.00000  Uiso   1.00
C330   C     0.59363   0.75233   0.83872   0.00000  Uiso   1.00
C331   C     0.52668   0.79806   0.88274   0.00000  Uiso   1.00
C332   C     0.64019   0.69921   0.72998   0.00000  Uiso   1.00
C333   C     0.62189   0.63223   0.71327   0.00000  Uiso   1.00
C334   C     0.57047   0.63898   0.68758   0.00000  Uiso   1.00
C335   C     0.49014   0.61912   0.64412   0.00000  Uiso   1.00
C336   C     0.63626   0.83608   0.74292   0.00000  Uiso   1.00
C337   C     0.72392   0.83540   0.74063   0.00000  Uiso   1.00
C338   C     0.76978   0.89691   0.73117   0.00000  Uiso   1.00
C339   C     0.84880   0.88469   0.73066   0.00000  Uiso   1.00
C340   C     0.61688   0.81264   0.77769   0.00000  Uiso   1.00
C341   C     0.57274   0.85501   0.79939   0.00000  Uiso   1.00
C342   C     0.56164   0.82364   0.83007   0.00000  Uiso   1.00
C343   C     0.60826   0.77039   0.72134   0.00000  Uiso   1.00
C344   C     0.55686   0.77724   0.69568   0.00000  Uiso   1.00
C345   C     0.53849   0.71029   0.67893   0.00000  Uiso   1.00
H346   H     0.71989   0.64960   0.76554   0.00000  Uiso   1.00
H347   H     0.85949   0.69681   0.75545   0.00000  Uiso   1.00
H348   H     0.66248   0.65492   0.82365   0.00000  Uiso   1.00
H349   H     0.64660   0.57716   0.71996   0.00000  Uiso   1.00
H350   H     0.00019   0.78055   0.74046   0.00000  Uiso   1.00
H351   H     0.58475   0.69221   0.88426   0.00000  Uiso   1.00
H352   H     0.55127   0.52823   0.66561   0.00000  Uiso   1.00
H353   H     0.61140   0.89150   0.73620   0.00000  Uiso   1.00
H354   H     0.74506   0.95199   0.72449   0.00000  Uiso   1.00
H355   H     0.54804   0.91010   0.79270   0.00000  Uiso   1.00
H356   H     0.53217   0.83234   0.68900   0.00000  Uiso   1.00
H357   H     0.90731   0.98766   0.71534   0.00000  Uiso   1.00
H358   H     0.49186   0.89932   0.85914   0.00000  Uiso   1.00
H359   H     0.45839   0.73535   0.64049   0.00000  Uiso   1.00
O360   O     0.04363   0.91953   0.72074   0.00000  Uiso   1.00
O361   O     0.49857   0.80363   0.90940   0.00000  Uiso   1.00
O362   O     0.45466   0.58850   0.62253   0.00000  Uiso   1.00
N363   N     0.95999   0.82099   0.73615   0.00000  Uiso   1.00
N364   N     0.57159   0.73840   0.87060   0.00000  Uiso   1.00
N365   N     0.54027   0.58510   0.66618   0.00000  Uiso   1.00
N366   N     0.91001   0.93243   0.72263   0.00000  Uiso   1.00
N367   N     0.52161   0.84985   0.85708   0.00000  Uiso   1.00
N368   N     0.49029   0.69654   0.65266   0.00000  Uiso   1.00
C369   C     0.20502   0.80496   0.74118   0.00000  Uiso   1.00
C370   C     0.26421   0.74416   0.75074   0.00000  Uiso   1.00
C371   C     0.25190   0.66519   0.75124   0.00000  Uiso   1.00
C372   C     0.31338   0.61922   0.76069   0.00000  Uiso   1.00
C373   C     0.39447   0.51995   0.77420   0.00000  Uiso   1.00
C374   C     0.24146   0.85119   0.71368   0.00000  Uiso   1.00
C375   C     0.21001   0.86223   0.68303   0.00000  Uiso   1.00
C376   C     0.25233   0.90637   0.66128   0.00000  Uiso   1.00
C377   C     0.29806   0.97332   0.61726   0.00000  Uiso   1.00
C378   C     0.19921   0.85981   0.77002   0.00000  Uiso   1.00
C379   C     0.13223   0.87811   0.78673   0.00000  Uiso   1.00
C380   C     0.13898   0.92953   0.81242   0.00000  Uiso   1.00
C381   C     0.11912   0.00986   0.85588   0.00000  Uiso   1.00
C382   C     0.33608   0.86374   0.75708   0.00000  Uiso   1.00
C383   C     0.33540   0.77608   0.75937   0.00000  Uiso   1.00
C384   C     0.39691   0.73022   0.76883   0.00000  Uiso   1.00
C385   C     0.38469   0.65120   0.76934   0.00000  Uiso   1.00
C386   C     0.31264   0.88312   0.72231   0.00000  Uiso   1.00
C387   C     0.35501   0.92726   0.70061   0.00000  Uiso   1.00
C388   C     0.32364   0.93836   0.66993   0.00000  Uiso   1.00
C389   C     0.27039   0.89174   0.77866   0.00000  Uiso   1.00
C390   C     0.27724   0.94314   0.80432   0.00000  Uiso   1.00
C391   C     0.21029   0.96151   0.82107   0.00000  Uiso   1.00
H392   H     0.14960   0.78011   0.73446   0.00000  Uiso   1.00
H393   H     0.19681   0.64051   0.74455   0.00000  Uiso   1.00
H394   H     0.15492   0.83752   0.67635   0.00000  Uiso   1.00
H395   H     0.07716   0.85340   0.78004   0.00000  Uiso   1.00
H396   H     0.28055   0.49981   0.75954   0.00000  Uiso   1.00
H397   H     0.19221   0.91525   0.61574   0.00000  Uiso   1.00
H398   H     0.02823   0.94873   0.83439   0.00000  Uiso   1.00
H399   H     0.39150   0.88860   0.76380   0.00000  Uiso   1.00
H400   H     0.45199   0.75494   0.77551   0.00000  Uiso   1.00
H401   H     0.41010   0.95196   0.70730   0.00000  Uiso   1.00
H402   H     0.33234   0.96783   0.81100   0.00000  Uiso   1.00
H403   H     0.48766   0.59269   0.78466   0.00000  Uiso   1.00
H404   H     0.39932   0.00814   0.64086   0.00000  Uiso   1.00
H405   H     0.23535   0.04161   0.85951   0.00000  Uiso   1.00
O406   O     0.41953   0.45637   0.77926   0.00000  Uiso   1.00
O407   O     0.30363   0.00143   0.59060   0.00000  Uiso   1.00
O408   O     0.08850   0.04534   0.87747   0.00000  Uiso   1.00
N409   N     0.32099   0.54001   0.76385   0.00000  Uiso   1.00
N410   N     0.23840   0.92841   0.62940   0.00000  Uiso   1.00
N411   N     0.08510   0.95973   0.83382   0.00000  Uiso   1.00
N412   N     0.43243   0.58999   0.77737   0.00000  Uiso   1.00
N413   N     0.34985   0.97839   0.64292   0.00000  Uiso   1.00
N414   N     0.19654   0.00971   0.84734   0.00000  Uiso   1.00
C415   C     0.70502   0.30496   0.24118   0.00000  Uiso   1.00
C416   C     0.76421   0.24416   0.25074   0.00000  Uiso   1.00
C417   C     0.75190   0.16519   0.25124   0.00000  Uiso   1.00
C418   C     0.81338   0.11922   0.26069   0.00000  Uiso   1.00
C419   C     0.89447   0.01995   0.27420   0.00000  Uiso   1.00
C420   C     0.74146   0.35119   0.21368   0.00000  Uiso   1.00
C421   C     0.71001   0.36223   0.18303   0.00000  Uiso   1.00
C422   C     0.75233   0.40637   0.16128   0.00000  Uiso   1.00
C423   C     0.79806   0.47332   0.11726   0.00000  Uiso   1.00
C424   C     0.69921   0.35981   0.27002   0.00000  Uiso   1.00
C425   C     0.63223   0.37811   0.28673   0.00000  Uiso   1.00
C426   C     0.63898   0.42953   0.31242   0.00000  Uiso   1.00
C427   C     0.61912   0.50986   0.35588   0.00000  Uiso   1.00
C428   C     0.83608   0.36374   0.25708   0.00000  Uiso   1.00
C429   C     0.83540   0.27608   0.25937   0.00000  Uiso   1.00
C430   C     0.89691   0.23022   0.26883   0.00000  Uiso   1.00
C431   C     0.88469   0.15120   0.26934   0.00000  Uiso   1.00
C432   C     0.81264   0.38312   0.22231   0.00000  Uiso   1.00
C433   C     0.85501   0.42726   0.20061   0.00000  Uiso   1.00
C434   C     0.82364   0.43836   0.16993   0.00000  Uiso   1.00
C435   C     0.77039   0.39174   0.27866   0.00000  Uiso   1.00
C436   C     0.77724   0.44314   0.30432   0.00000  Uiso   1.00
C437   C     0.71029   0.46151   0.32107   0.00000  Uiso   1.00
H438   H     0.64960   0.28011   0.23446   0.00000  Uiso   1.00
H439   H     0.69681   0.14051   0.24455   0.00000  Uiso   1.00
H440   H     0.65492   0.33752   0.17635   0.00000  Uiso   1.00
H441   H     0.57716   0.35340   0.28004   0.00000  Uiso   1.00
H442   H     0.78055   0.99981   0.25954   0.00000  Uiso   1.00
H443   H     0.69221   0.41525   0.11574   0.00000  Uiso   1.00
H444   H     0.52823   0.44873   0.33439   0.00000  Uiso   1.00
H445   H     0.89150   0.38860   0.26380   0.00000  Uiso   1.00
H446   H     0.95199   0.25494   0.27551   0.00000  Uiso   1.00
H447   H     0.91010   0.45196   0.20730   0.00000  Uiso   1.00
H448   H     0.83234   0.46783   0.31100   0.00000  Uiso   1.00
H449   H     0.98766   0.09269   0.28466   0.00000  Uiso   1.00
H450   H     0.89932   0.50814   0.14086   0.00000  Uiso   1.00
H451   H     0.73535   0.54161   0.35951   0.00000  Uiso   1.00
O452   O     0.91953   0.95637   0.27926   0.00000  Uiso   1.00
O453   O     0.80363   0.50143   0.09060   0.00000  Uiso   1.00
O454   O     0.58850   0.54534   0.37747   0.00000  Uiso   1.00
N455   N     0.82099   0.04001   0.26385   0.00000  Uiso   1.00
N456   N     0.73840   0.42841   0.12940   0.00000  Uiso   1.00
N457   N     0.58510   0.45973   0.33382   0.00000  Uiso   1.00
N458   N     0.93243   0.08999   0.27737   0.00000  Uiso   1.00
N459   N     0.84985   0.47839   0.14292   0.00000  Uiso   1.00
N460   N     0.69654   0.50971   0.34734   0.00000  Uiso   1.00
C461   C     0.29498   0.69504   0.24118   0.00000  Uiso   1.00
C462   C     0.23579   0.75584   0.25074   0.00000  Uiso   1.00
C463   C     0.24810   0.83481   0.25124   0.00000  Uiso   1.00
C464   C     0.18662   0.88078   0.26069   0.00000  Uiso   1.00
C465   C     0.10553   0.98005   0.27420   0.00000  Uiso   1.00
C466   C     0.25854   0.64881   0.21368   0.00000  Uiso   1.00
C467   C     0.28999   0.63777   0.18303   0.00000  Uiso   1.00
C468   C     0.24767   0.59363   0.16128   0.00000  Uiso   1.00
C469   C     0.20194   0.52668   0.11726   0.00000  Uiso   1.00
C470   C     0.30079   0.64019   0.27002   0.00000  Uiso   1.00
C471   C     0.36777   0.62189   0.28673   0.00000  Uiso   1.00
C472   C     0.36102   0.57047   0.31242   0.00000  Uiso   1.00
C473   C     0.38088   0.49014   0.35588   0.00000  Uiso   1.00
C474   C     0.16392   0.63626   0.25708   0.00000  Uiso   1.00
C475   C     0.16460   0.72392   0.25937   0.00000  Uiso   1.00
C476   C     0.10309   0.76978   0.26883   0.00000  Uiso   1.00
C477   C     0.11531   0.84880   0.26934   0.00000  Uiso   1.00
C478   C     0.18736   0.61688   0.22231   0.00000  Uiso   1.00
C479   C     0.14499   0.57274   0.20061   0.00000  Uiso   1.00
C480   C     0.17636   0.56164   0.16993   0.00000  Uiso   1.00
C481   C     0.22961   0.60826   0.27866   0.00000  Uiso   1.00
C482   C     0.22276   0.55686   0.30432   0.00000  Uiso   1.00
C483   C     0.28971   0.53849   0.32107   0.00000  Uiso   1.00
H484   H     0.35040   0.71989   0.23446   0.00000  Uiso   1.00
H485   H     0.30319   0.85949   0.24455   0.00000  Uiso   1.00
H486   H     0.34508   0.66248   0.17635   0.00000  Uiso   1.00
H487   H     0.42284   0.64660   0.28004   0.00000  Uiso   1.00
H488   H     0.21945   0.00019   0.25954   0.00000  Uiso   1.00
H489   H     0.30779   0.58475   0.11574   0.00000  Uiso   1.00
H490   H     0.47177   0.55127   0.33439   0.00000  Uiso   1.00
H491   H     0.10850   0.61140   0.26380   0.00000  Uiso   1.00
H492   H     0.04801   0.74506   0.27551   0.00000  Uiso   1.00
H493   H     0.08990   0.54804   0.20730   0.00000  Uiso   1.00
H494   H     0.16766   0.53217   0.31100   0.00000  Uiso   1.00
H495   H     0.01234   0.90731   0.28466   0.00000  Uiso   1.00
H496   H     0.10068   0.49186   0.14086   0.00000  Uiso   1.00
H497   H     0.26465   0.45839   0.35951   0.00000  Uiso   1.00
O498   O     0.08047   0.04363   0.27926   0.00000  Uiso   1.00
O499   O     0.19637   0.49857   0.09060   0.00000  Uiso   1.00
O500   O     0.41150   0.45466   0.37747   0.00000  Uiso   1.00
N501   N     0.17901   0.95999   0.26385   0.00000  Uiso   1.00
N502   N     0.26160   0.57159   0.12940   0.00000  Uiso   1.00
N503   N     0.41490   0.54027   0.33382   0.00000  Uiso   1.00
N504   N     0.06757   0.91001   0.27737   0.00000  Uiso   1.00
N505   N     0.15015   0.52161   0.14292   0.00000  Uiso   1.00
N506   N     0.30346   0.49029   0.34734   0.00000  Uiso   1.00
C507   C     0.79498   0.19504   0.74118   0.00000  Uiso   1.00
C508   C     0.73579   0.25584   0.75074   0.00000  Uiso   1.00
C509   C     0.74810   0.33481   0.75124   0.00000  Uiso   1.00
C510   C     0.68662   0.38078   0.76069   0.00000  Uiso   1.00
C511   C     0.60553   0.48005   0.77420   0.00000  Uiso   1.00
C512   C     0.75854   0.14881   0.71368   0.00000  Uiso   1.00
C513   C     0.78999   0.13777   0.68303   0.00000  Uiso   1.00
C514   C     0.74767   0.09363   0.66128   0.00000  Uiso   1.00
C515   C     0.70194   0.02668   0.61726   0.00000  Uiso   1.00
C516   C     0.80079   0.14019   0.77002   0.00000  Uiso   1.00
C517   C     0.86777   0.12189   0.78673   0.00000  Uiso   1.00
C518   C     0.86102   0.07047   0.81242   0.00000  Uiso   1.00
C519   C     0.88088   0.99014   0.85588   0.00000  Uiso   1.00
C520   C     0.66392   0.13626   0.75708   0.00000  Uiso   1.00
C521   C     0.66460   0.22392   0.75937   0.00000  Uiso   1.00
C522   C     0.60309   0.26978   0.76883   0.00000  Uiso   1.00
C523   C     0.61531   0.34880   0.76934   0.00000  Uiso   1.00
C524   C     0.68736   0.11688   0.72231   0.00000  Uiso   1.00
C525   C     0.64499   0.07274   0.70061   0.00000  Uiso   1.00
C526   C     0.67636   0.06164   0.66993   0.00000  Uiso   1.00
C527   C     0.72961   0.10826   0.77866   0.00000  Uiso   1.00
C528   C     0.72276   0.05686   0.80432   0.00000  Uiso   1.00
C529   C     0.78971   0.03849   0.82107   0.00000  Uiso   1.00
H530   H     0.85040   0.21989   0.73446   0.00000  Uiso   1.00
H531   H     0.80319   0.35949   0.74455   0.00000  Uiso   1.00
H532   H     0.84508   0.16248   0.67635   0.00000  Uiso   1.00
H533   H     0.92284   0.14660   0.78004   0.00000  Uiso   1.00
H534   H     0.71945   0.50019   0.75954   0.00000  Uiso   1.00
H535   H     0.80779   0.08475   0.61574   0.00000  Uiso   1.00
H536   H     0.97177   0.05127   0.83439   0.00000  Uiso   1.00
H537   H     0.60850   0.11140   0.76380   0.00000  Uiso   1.00
H538   H     0.54801   0.24506   0.77551   0.00000  Uiso   1.00
H539   H     0.58990   0.04804   0.70730   0.00000  Uiso   1.00
H540   H     0.66766   0.03217   0.81100   0.00000  Uiso   1.00
H541   H     0.51234   0.40731   0.78466   0.00000  Uiso   1.00
H542   H     0.60068   0.99186   0.64086   0.00000  Uiso   1.00
H543   H     0.76465   0.95839   0.85951   0.00000  Uiso   1.00
O544   O     0.58047   0.54363   0.77926   0.00000  Uiso   1.00
O545   O     0.69637   0.99857   0.59060   0.00000  Uiso   1.00
O546   O     0.91150   0.95466   0.87747   0.00000  Uiso   1.00
N547   N     0.67901   0.45999   0.76385   0.00000  Uiso   1.00
N548   N     0.76160   0.07159   0.62940   0.00000  Uiso   1.00
N549   N     0.91490   0.04027   0.83382   0.00000  Uiso   1.00
N550   N     0.56757   0.41001   0.77737   0.00000  Uiso   1.00
N551   N     0.65015   0.02161   0.64292   0.00000  Uiso   1.00
N552   N     0.80346   0.99029   0.84734   0.00000  Uiso   1.00
C553   C     0.69504   0.20502   0.49118   0.00000  Uiso   1.00
C554   C     0.75584   0.26421   0.50074   0.00000  Uiso   1.00
C555   C     0.83481   0.25190   0.50124   0.00000  Uiso   1.00
C556   C     0.88078   0.31338   0.51069   0.00000  Uiso   1.00
C557   C     0.98005   0.39447   0.52420   0.00000  Uiso   1.00
C558   C     0.64881   0.24146   0.46368   0.00000  Uiso   1.00
C559   C     0.63777   0.21001   0.43303   0.00000  Uiso   1.00
C560   C     0.59363   0.25233   0.41128   0.00000  Uiso   1.00
C561   C     0.52668   0.29806   0.36726   0.00000  Uiso   1.00
C562   C     0.64019   0.19921   0.52002   0.00000  Uiso   1.00
C563   C     0.62189   0.13223   0.53673   0.00000  Uiso   1.00
C564   C     0.57047   0.13898   0.56242   0.00000  Uiso   1.00
C565   C     0.49014   0.11912   0.60588   0.00000  Uiso   1.00
C566   C     0.63626   0.33608   0.50708   0.00000  Uiso   1.00
C567   C     0.72392   0.33540   0.50937   0.00000  Uiso   1.00
C568   C     0.76978   0.39691   0.51883   0.00000  Uiso   1.00
C569   C     0.84880   0.38469   0.51934   0.00000  Uiso   1.00
C570   C     0.61688   0.31264   0.47231   0.00000  Uiso   1.00
C571   C     0.57274   0.35501   0.45061   0.00000  Uiso   1.00
C572   C     0.56164   0.32364   0.41993   0.00000  Uiso   1.00
C573   C     0.60826   0.27039   0.52866   0.00000  Uiso   1.00
C574   C     0.55686   0.27724   0.55432   0.00000  Uiso   1.00
C575   C     0.53849   0.21029   0.57107   0.00000  Uiso   1.00
H576   H     0.71989   0.14960   0.48446   0.00000  Uiso   1.00
H577   H     0.85949   0.19681   0.49455   0.00000  Uiso   1.00
H578   H     0.66248   0.15492   0.42635   0.00000  Uiso   1.00
H579   H     0.64660   0.07716   0.53004   0.00000  Uiso   1.00
H580   H     0.00019   0.28055   0.50954   0.00000  Uiso   1.00
H581   H     0.58475   0.19221   0.36574   0.00000  Uiso   1.00
H582   H     0.55127   0.02823   0.58439   0.00000  Uiso   1.00
H583   H     0.61140   0.39150   0.51380   0.00000  Uiso   1.00
H584   H     0.74506   0.45199   0.52551   0.00000  Uiso   1.00
H585   H     0.54804   0.41010   0.45730   0.00000  Uiso   1.00
H586   H     0.53217   0.33234   0.56100   0.00000  Uiso   1.00
H587   H     0.90731   0.48766   0.53466   0.00000  Uiso   1.00
H588   H     0.49186   0.39932   0.39086   0.00000  Uiso   1.00
H589   H     0.45839   0.23535   0.60951   0.00000  Uiso   1.00
O590   O     0.04363   0.41953   0.52926   0.00000  Uiso   1.00
O591   O     0.49857   0.30363   0.34060   0.00000  Uiso   1.00
O592   O     0.45466   0.08850   0.62747   0.00000  Uiso   1.00
N593   N     0.95999   0.32099   0.51385   0.00000  Uiso   1.00
N594   N     0.57159   0.23840   0.37940   0.00000  Uiso   1.00
N595   N     0.54027   0.08510   0.58382   0.00000  Uiso   1.00
N596   N     0.91001   0.43243   0.52737   0.00000  Uiso   1.00
N597   N     0.52161   0.34985   0.39292   0.00000  Uiso   1.00
N598   N     0.49029   0.19654   0.59734   0.00000  Uiso   1.00
C599   C     0.19504   0.70502   0.99118   0.00000  Uiso   1.00
C600   C     0.25584   0.76421   0.00074   0.00000  Uiso   1.00
C601   C     0.33481   0.75190   0.00124   0.00000  Uiso   1.00
C602   C     0.38078   0.81338   0.01069   0.00000  Uiso   1.00
C603   C     0.48005   0.89447   0.02420   0.00000  Uiso   1.00
C604   C     0.14881   0.74146   0.96368   0.00000  Uiso   1.00
C605   C     0.13777   0.71001   0.93303   0.00000  Uiso   1.00
C606   C     0.09363   0.75233   0.91128   0.00000  Uiso   1.00
C607   C     0.02668   0.79806   0.86726   0.00000  Uiso   1.00
C608   C     0.14019   0.69921   0.02002   0.00000  Uiso   1.00
C609   C     0.12189   0.63223   0.03673   0.00000  Uiso   1.00
C610   C     0.07047   0.63898   0.06242   0.00000  Uiso   1.00
C611   C     0.99014   0.61912   0.10588   0.00000  Uiso   1.00
C612   C     0.13626   0.83608   0.00708   0.00000  Uiso   1.00
C613   C     0.22392   0.83540   0.00937   0.00000  Uiso   1.00
C614   C     0.26978   0.89691   0.01883   0.00000  Uiso   1.00
C615   C     0.34880   0.88469   0.01934   0.00000  Uiso   1.00
C616   C     0.11688   0.81264   0.97231   0.00000  Uiso   1.00
C617   C     0.07274   0.85501   0.95061   0.00000  Uiso   1.00
C618   C     0.06164   0.82364   0.91993   0.00000  Uiso   1.00
C619   C     0.10826   0.77039   0.02866   0.00000  Uiso   1.00
C620   C     0.05686   0.77724   0.05432   0.00000  Uiso   1.00
C621   C     0.03849   0.71029   0.07107   0.00000  Uiso   1.00
H622   H     0.21989   0.64960   0.98446   0.00000  Uiso   1.00
H623   H     0.35949   0.69681   0.99455   0.00000  Uiso   1.00
H624   H     0.16248   0.65492   0.92635   0.00000  Uiso   1.00
H625   H     0.14660   0.57716   0.03004   0.00000  Uiso   1.00
H626   H     0.50019   0.78055   0.00954   0.00000  Uiso   1.00
H627   H     0.08475   0.69221   0.86574   0.00000  Uiso   1.00
H628   H     0.05127   0.52823   0.08439   0.00000  Uiso   1.00
H629   H     0.11140   0.89150   0.01380   0.00000  Uiso   1.00
H630   H     0.24506   0.95199   0.02551   0.00000  Uiso   1.00
H631   H     0.04804   0.91010   0.95730   0.00000  Uiso   1.00
H632   H     0.03217   0.83234   0.06100   0.00000  Uiso   1.00
H633   H     0.40731   0.98766   0.03466   0.00000  Uiso   1.00
H634   H     0.99186   0.89932   0.89086   0.00000  Uiso   1.00
H635   H     0.95839   0.73535   0.10951   0.00000  Uiso   1.00
O636   O     0.54363   0.91953   0.02926   0.00000  Uiso   1.00
O637   O     0.99857   0.80363   0.84060   0.00000  Uiso   1.00
O638   O     0.95466   0.58850   0.12747   0.00000  Uiso   1.00
N639   N     0.45999   0.82099   0.01385   0.00000  Uiso   1.00
N640   N     0.07159   0.73840   0.87940   0.00000  Uiso   1.00
N641   N     0.04027   0.58510   0.08382   0.00000  Uiso   1.00
N642   N     0.41001   0.93243   0.02737   0.00000  Uiso   1.00
N643   N     0.02161   0.84985   0.89292   0.00000  Uiso   1.00
N644   N     0.99029   0.69654   0.09734   0.00000  Uiso   1.00
C645   C     0.80496   0.29498   0.99118   0.00000  Uiso   1.00
C646   C     0.74416   0.23579   0.00074   0.00000  Uiso   1.00
C647   C     0.66519   0.24810   0.00124   0.00000  Uiso   1.00
C648   C     0.61922   0.18662   0.01069   0.00000  Uiso   1.00
C649   C     0.51995   0.10553   0.02420   0.00000  Uiso   1.00
C650   C     0.85119   0.25854   0.96368   0.00000  Uiso   1.00
C651   C     0.86223   0.28999   0.93303   0.00000  Uiso   1.00
C652   C     0.90637   0.24767   0.91128   0.00000  Uiso   1.00
C653   C     0.97332   0.20194   0.86726   0.00000  Uiso   1.00
C654   C     0.85981   0.30079   0.02002   0.00000  Uiso   1.00
C655   C     0.87811   0.36777   0.03673   0.00000  Uiso   1.00
C656   C     0.92953   0.36102   0.06242   0.00000  Uiso   1.00
C657   C     0.00986   0.38088   0.10588   0.00000  Uiso   1.00
C658   C     0.86374   0.16392   0.00708   0.00000  Uiso   1.00
C659   C     0.77608   0.16460   0.00937   0.00000  Uiso   1.00
C660   C     0.73022   0.10309   0.01883   0.00000  Uiso   1.00
C661   C     0.65120   0.11531   0.01934   0.00000  Uiso   1.00
C662   C     0.88312   0.18736   0.97231   0.00000  Uiso   1.00
C663   C     0.92726   0.14499   0.95061   0.00000  Uiso   1.00
C664   C     0.93836   0.17636   0.91993   0.00000  Uiso   1.00
C665   C     0.89174   0.22961   0.02866   0.00000  Uiso   1.00
C666   C     0.94314   0.22276   0.05432   0.00000  Uiso   1.00
C667   C     0.96151   0.28971   0.07107   0.00000  Uiso   1.00
H668   H     0.78011   0.35040   0.98446   0.00000  Uiso   1.00
H669   H     0.64051   0.30319   0.99455   0.00000  Uiso   1.00
H670   H     0.83752   0.34508   0.92635   0.00000  Uiso   1.00
H671   H     0.85340   0.42284   0.03004   0.00000  Uiso   1.00
H672   H     0.49981   0.21945   0.00954   0.00000  Uiso   1.00
H673   H     0.91525   0.30779   0.86574   0.00000  Uiso   1.00
H674   H     0.94873   0.47177   0.08439   0.00000  Uiso   1.00
H675   H     0.88860   0.10850   0.01380   0.00000  Uiso   1.00
H676   H     0.75494   0.04801   0.02551   0.00000  Uiso   1.00
H677   H     0.95196   0.08990   0.95730   0.00000  Uiso   1.00
H678   H     0.96783   0.16766   0.06100   0.00000  Uiso   1.00
H679   H     0.59269   0.01234   0.03466   0.00000  Uiso   1.00
H680   H     0.00814   0.10068   0.89086   0.00000  Uiso   1.00
H681   H     0.04161   0.26465   0.10951   0.00000  Uiso   1.00
O682   O     0.45637   0.08047   0.02926   0.00000  Uiso   1.00
O683   O     0.00143   0.19637   0.84060   0.00000  Uiso   1.00
O684   O     0.04534   0.41150   0.12747   0.00000  Uiso   1.00
N685   N     0.54001   0.17901   0.01385   0.00000  Uiso   1.00
N686   N     0.92841   0.26160   0.87940   0.00000  Uiso   1.00
N687   N     0.95973   0.41490   0.08382   0.00000  Uiso   1.00
N688   N     0.58999   0.06757   0.02737   0.00000  Uiso   1.00
N689   N     0.97839   0.15015   0.89292   0.00000  Uiso   1.00
N690   N     0.00971   0.30346   0.09734   0.00000  Uiso   1.00
C691   C     0.30496   0.79498   0.49118   0.00000  Uiso   1.00
C692   C     0.24416   0.73579   0.50074   0.00000  Uiso   1.00
C693   C     0.16519   0.74810   0.50124   0.00000  Uiso   1.00
C694   C     0.11922   0.68662   0.51069   0.00000  Uiso   1.00
C695   C     0.01995   0.60553   0.52420   0.00000  Uiso   1.00
C696   C     0.35119   0.75854   0.46368   0.00000  Uiso   1.00
C697   C     0.36223   0.78999   0.43303   0.00000  Uiso   1.00
C698   C     0.40637   0.74767   0.41128   0.00000  Uiso   1.00
C699   C     0.47332   0.70194   0.36726   0.00000  Uiso   1.00
C700   C     0.35981   0.80079   0.52002   0.00000  Uiso   1.00
C701   C     0.37811   0.86777   0.53673   0.00000  Uiso   1.00
C702   C     0.42953   0.86102   0.56242   0.00000  Uiso   1.00
C703   C     0.50986   0.88088   0.60588   0.00000  Uiso   1.00
C704   C     0.36374   0.66392   0.50708   0.00000  Uiso   1.00
C705   C     0.27608   0.66460   0.50937   0.00000  Uiso   1.00
C706   C     0.23022   0.60309   0.51883   0.00000  Uiso   1.00
C707   C     0.15120   0.61531   0.51934   0.00000  Uiso   1.00
C708   C     0.38312   0.68736   0.47231   0.00000  Uiso   1.00
C709   C     0.42726   0.64499   0.45061   0.00000  Uiso   1.00
C710   C     0.43836   0.67636   0.41993   0.00000  Uiso   1.00
C711   C     0.39174   0.72961   0.52866   0.00000  Uiso   1.00
C712   C     0.44314   0.72276   0.55432   0.00000  Uiso   1.00
C713   C     0.46151   0.78971   0.57107   0.00000  Uiso   1.00
H714   H     0.28011   0.85040   0.48446   0.00000  Uiso   1.00
H715   H     0.14051   0.80319   0.49455   0.00000  Uiso   1.00
H716   H     0.33752   0.84508   0.42635   0.00000  Uiso   1.00
H717   H     0.35340   0.92284   0.53004   0.00000  Uiso   1.00
H718   H     0.99981   0.71945   0.50954   0.00000  Uiso   1.00
H719   H     0.41525   0.80779   0.36574   0.00000  Uiso   1.00
H720   H     0.44873   0.97177   0.58439   0.00000  Uiso   1.00
H721   H     0.38860   0.60850   0.51380   0.00000  Uiso   1.00
H722   H     0.25494   0.54801   0.52551   0.00000  Uiso   1.00
H723   H     0.45196   0.58990   0.45730   0.00000  Uiso   1.00
H724   H     0.46783   0.66766   0.56100   0.00000  Uiso   1.00
H725   H     0.09269   0.51234   0.53466   0.00000  Uiso   1.00
H726   H     0.50814   0.60068   0.39086   0.00000  Uiso   1.00
H727   H     0.54161   0.76465   0.60951   0.00000  Uiso   1.00
O728   O     0.95637   0.58047   0.52926   0.00000  Uiso   1.00
O729   O     0.50143   0.69637   0.34060   0.00000  Uiso   1.00
O730   O     0.54534   0.91150   0.62747   0.00000  Uiso   1.00
N731   N     0.04001   0.67901   0.51385   0.00000  Uiso   1.00
N732   N     0.42841   0.76160   0.37940   0.00000  Uiso   1.00
N733   N     0.45973   0.91490   0.58382   0.00000  Uiso   1.00
N734   N     0.08999   0.56757   0.52737   0.00000  Uiso   1.00
N735   N     0.47839   0.65015   0.39292   0.00000  Uiso   1.00
N736   N     0.50971   0.80346   0.59734   0.00000  Uiso   1.00
