data_job_02026
_audit_creation_date              2018-12-19
_audit_creation_method            'Materials Studio'
_symmetry_space_group_name_H-M    'P1'
_symmetry_Int_Tables_number       1
_symmetry_cell_setting            triclinic
loop_
_symmetry_equiv_pos_as_xyz
  x,y,z
_cell_length_a                    22.6112
_cell_length_b                    22.6112
_cell_length_c                    25.7246
_cell_angle_alpha                 90.0000
_cell_angle_beta                  90.0000
_cell_angle_gamma                 90.0000
loop_
_atom_site_label
_atom_site_type_symbol
_atom_site_fract_x
_atom_site_fract_y
_atom_site_fract_z
_atom_site_U_iso_or_equiv
_atom_site_adp_type
_atom_site_occupancy
C1     C     0.36033   0.94908   0.47662   0.00000  Uiso   1.00
C2     C     0.29314   0.95446   0.47852   0.00000  Uiso   1.00
C3     C     0.25389   0.92976   0.44319   0.00000  Uiso   1.00
C4     C     0.19409   0.93978   0.45171   0.00000  Uiso   1.00
C5     C     0.09277   0.94306   0.44821   0.00000  Uiso   1.00
C6     C     0.38406   0.01220   0.47600   0.00000  Uiso   1.00
C7     C     0.42127   0.03604   0.43855   0.00000  Uiso   1.00
C8     C     0.43801   0.09466   0.44496   0.00000  Uiso   1.00
C9     C     0.47788   0.18758   0.43757   0.00000  Uiso   1.00
C10    C     0.37885   0.92287   0.52876   0.00000  Uiso   1.00
C11    C     0.41168   0.87161   0.53567   0.00000  Uiso   1.00
C12    C     0.42405   0.85504   0.58649   0.00000  Uiso   1.00
C13    C     0.45582   0.80926   0.66101   0.00000  Uiso   1.00
C14    C     0.32393   0.01080   0.55458   0.00000  Uiso   1.00
C15    C     0.27337   0.98799   0.52087   0.00000  Uiso   1.00
C16    C     0.21362   0.99805   0.52945   0.00000  Uiso   1.00
C17    C     0.17428   0.97336   0.49413   0.00000  Uiso   1.00
C18    C     0.36430   0.04573   0.51835   0.00000  Uiso   1.00
C19    C     0.38099   0.10433   0.52481   0.00000  Uiso   1.00
C20    C     0.41821   0.12825   0.48738   0.00000  Uiso   1.00
C21    C     0.35908   0.95640   0.57111   0.00000  Uiso   1.00
C22    C     0.37140   0.93990   0.62193   0.00000  Uiso   1.00
C23    C     0.40424   0.88863   0.62891   0.00000  Uiso   1.00
H24    H     0.37573   0.92298   0.44365   0.00000  Uiso   1.00
H25    H     0.26921   0.90382   0.41042   0.00000  Uiso   1.00
H26    H     0.43656   0.01008   0.40579   0.00000  Uiso   1.00
H27    H     0.42697   0.84568   0.50289   0.00000  Uiso   1.00
H28    H     0.14239   0.89738   0.39224   0.00000  Uiso   1.00
H29    H     0.49528   0.12144   0.38249   0.00000  Uiso   1.00
H30    H     0.47507   0.77476   0.58724   0.00000  Uiso   1.00
H31    H     0.30854   0.03690   0.58755   0.00000  Uiso   1.00
H32    H     0.19833   0.02399   0.56222   0.00000  Uiso   1.00
H33    H     0.36569   0.13026   0.55759   0.00000  Uiso   1.00
H34    H     0.35610   0.96586   0.65469   0.00000  Uiso   1.00
H35    H     0.08487   0.99492   0.51545   0.00000  Uiso   1.00
H36    H     0.43776   0.21898   0.50570   0.00000  Uiso   1.00
H37    H     0.41754   0.87231   0.71045   0.00000  Uiso   1.00
O38    O     0.04234   0.93562   0.43457   0.00000  Uiso   1.00
O39    O     0.50534   0.22957   0.42179   0.00000  Uiso   1.00
O40    O     0.47880   0.77474   0.69041   0.00000  Uiso   1.00
N41    N     0.14398   0.92210   0.42472   0.00000  Uiso   1.00
N42    N     0.47390   0.13158   0.41560   0.00000  Uiso   1.00
N43    N     0.45502   0.80748   0.60702   0.00000  Uiso   1.00
N44    N     0.11302   0.97458   0.49102   0.00000  Uiso   1.00
N45    N     0.44295   0.18407   0.48190   0.00000  Uiso   1.00
N46    N     0.42406   0.85997   0.67332   0.00000  Uiso   1.00
C47    C     0.86033   0.44908   0.97662   0.00000  Uiso   1.00
C48    C     0.79314   0.45446   0.97852   0.00000  Uiso   1.00
C49    C     0.75389   0.42976   0.94319   0.00000  Uiso   1.00
C50    C     0.69409   0.43978   0.95171   0.00000  Uiso   1.00
C51    C     0.59277   0.44306   0.94821   0.00000  Uiso   1.00
C52    C     0.88406   0.51220   0.97600   0.00000  Uiso   1.00
C53    C     0.92127   0.53604   0.93855   0.00000  Uiso   1.00
C54    C     0.93801   0.59466   0.94496   0.00000  Uiso   1.00
C55    C     0.97788   0.68758   0.93757   0.00000  Uiso   1.00
C56    C     0.87885   0.42287   0.02876   0.00000  Uiso   1.00
C57    C     0.91168   0.37161   0.03567   0.00000  Uiso   1.00
C58    C     0.92405   0.35504   0.08649   0.00000  Uiso   1.00
C59    C     0.95582   0.30926   0.16101   0.00000  Uiso   1.00
C60    C     0.82393   0.51080   0.05458   0.00000  Uiso   1.00
C61    C     0.77337   0.48799   0.02087   0.00000  Uiso   1.00
C62    C     0.71362   0.49805   0.02945   0.00000  Uiso   1.00
C63    C     0.67428   0.47336   0.99413   0.00000  Uiso   1.00
C64    C     0.86430   0.54573   0.01835   0.00000  Uiso   1.00
C65    C     0.88099   0.60433   0.02481   0.00000  Uiso   1.00
C66    C     0.91821   0.62825   0.98738   0.00000  Uiso   1.00
C67    C     0.85908   0.45640   0.07111   0.00000  Uiso   1.00
C68    C     0.87140   0.43990   0.12193   0.00000  Uiso   1.00
C69    C     0.90424   0.38863   0.12891   0.00000  Uiso   1.00
H70    H     0.87573   0.42298   0.94365   0.00000  Uiso   1.00
H71    H     0.76921   0.40382   0.91042   0.00000  Uiso   1.00
H72    H     0.93656   0.51008   0.90579   0.00000  Uiso   1.00
H73    H     0.92697   0.34568   0.00289   0.00000  Uiso   1.00
H74    H     0.64239   0.39738   0.89224   0.00000  Uiso   1.00
H75    H     0.99528   0.62144   0.88249   0.00000  Uiso   1.00
H76    H     0.97507   0.27476   0.08724   0.00000  Uiso   1.00
H77    H     0.80854   0.53690   0.08755   0.00000  Uiso   1.00
H78    H     0.69833   0.52399   0.06222   0.00000  Uiso   1.00
H79    H     0.86569   0.63026   0.05759   0.00000  Uiso   1.00
H80    H     0.85610   0.46586   0.15469   0.00000  Uiso   1.00
H81    H     0.58487   0.49492   0.01545   0.00000  Uiso   1.00
H82    H     0.93776   0.71898   0.00570   0.00000  Uiso   1.00
H83    H     0.91754   0.37231   0.21045   0.00000  Uiso   1.00
O84    O     0.54234   0.43562   0.93457   0.00000  Uiso   1.00
O85    O     0.00534   0.72957   0.92179   0.00000  Uiso   1.00
O86    O     0.97880   0.27474   0.19041   0.00000  Uiso   1.00
N87    N     0.64398   0.42210   0.92472   0.00000  Uiso   1.00
N88    N     0.97390   0.63158   0.91560   0.00000  Uiso   1.00
N89    N     0.95502   0.30748   0.10702   0.00000  Uiso   1.00
N90    N     0.61302   0.47458   0.99102   0.00000  Uiso   1.00
N91    N     0.94295   0.68407   0.98190   0.00000  Uiso   1.00
N92    N     0.92406   0.35997   0.17332   0.00000  Uiso   1.00
C93    C     0.13967   0.55092   0.97662   0.00000  Uiso   1.00
C94    C     0.20686   0.54554   0.97852   0.00000  Uiso   1.00
C95    C     0.24611   0.57024   0.94319   0.00000  Uiso   1.00
C96    C     0.30591   0.56022   0.95171   0.00000  Uiso   1.00
C97    C     0.40723   0.55694   0.94821   0.00000  Uiso   1.00
C98    C     0.11594   0.48780   0.97600   0.00000  Uiso   1.00
C99    C     0.07873   0.46396   0.93855   0.00000  Uiso   1.00
C100   C     0.06199   0.40534   0.94496   0.00000  Uiso   1.00
C101   C     0.02212   0.31242   0.93757   0.00000  Uiso   1.00
C102   C     0.12115   0.57713   0.02876   0.00000  Uiso   1.00
C103   C     0.08832   0.62839   0.03567   0.00000  Uiso   1.00
C104   C     0.07595   0.64496   0.08649   0.00000  Uiso   1.00
C105   C     0.04418   0.69074   0.16101   0.00000  Uiso   1.00
C106   C     0.17607   0.48920   0.05458   0.00000  Uiso   1.00
C107   C     0.22663   0.51201   0.02087   0.00000  Uiso   1.00
C108   C     0.28638   0.50195   0.02945   0.00000  Uiso   1.00
C109   C     0.32572   0.52664   0.99413   0.00000  Uiso   1.00
C110   C     0.13570   0.45427   0.01835   0.00000  Uiso   1.00
C111   C     0.11901   0.39567   0.02481   0.00000  Uiso   1.00
C112   C     0.08179   0.37175   0.98738   0.00000  Uiso   1.00
C113   C     0.14092   0.54360   0.07111   0.00000  Uiso   1.00
C114   C     0.12860   0.56010   0.12193   0.00000  Uiso   1.00
C115   C     0.09576   0.61137   0.12891   0.00000  Uiso   1.00
H116   H     0.12427   0.57702   0.94365   0.00000  Uiso   1.00
H117   H     0.23079   0.59618   0.91042   0.00000  Uiso   1.00
H118   H     0.06344   0.48992   0.90579   0.00000  Uiso   1.00
H119   H     0.07303   0.65432   0.00289   0.00000  Uiso   1.00
H120   H     0.35761   0.60262   0.89224   0.00000  Uiso   1.00
H121   H     0.00472   0.37856   0.88249   0.00000  Uiso   1.00
H122   H     0.02493   0.72524   0.08724   0.00000  Uiso   1.00
H123   H     0.19146   0.46310   0.08755   0.00000  Uiso   1.00
H124   H     0.30167   0.47601   0.06222   0.00000  Uiso   1.00
H125   H     0.13431   0.36974   0.05759   0.00000  Uiso   1.00
H126   H     0.14390   0.53414   0.15469   0.00000  Uiso   1.00
H127   H     0.41513   0.50508   0.01545   0.00000  Uiso   1.00
H128   H     0.06224   0.28102   0.00570   0.00000  Uiso   1.00
H129   H     0.08246   0.62769   0.21045   0.00000  Uiso   1.00
O130   O     0.45766   0.56438   0.93457   0.00000  Uiso   1.00
O131   O     0.99466   0.27043   0.92179   0.00000  Uiso   1.00
O132   O     0.02120   0.72526   0.19041   0.00000  Uiso   1.00
N133   N     0.35602   0.57790   0.92472   0.00000  Uiso   1.00
N134   N     0.02610   0.36842   0.91560   0.00000  Uiso   1.00
N135   N     0.04498   0.69252   0.10702   0.00000  Uiso   1.00
N136   N     0.38698   0.52542   0.99102   0.00000  Uiso   1.00
N137   N     0.05705   0.31593   0.98190   0.00000  Uiso   1.00
N138   N     0.07594   0.64003   0.17332   0.00000  Uiso   1.00
C139   C     0.63967   0.05092   0.47662   0.00000  Uiso   1.00
C140   C     0.70686   0.04554   0.47852   0.00000  Uiso   1.00
C141   C     0.74611   0.07024   0.44319   0.00000  Uiso   1.00
C142   C     0.80591   0.06022   0.45171   0.00000  Uiso   1.00
C143   C     0.90723   0.05694   0.44821   0.00000  Uiso   1.00
C144   C     0.61594   0.98780   0.47600   0.00000  Uiso   1.00
C145   C     0.57873   0.96396   0.43855   0.00000  Uiso   1.00
C146   C     0.56199   0.90534   0.44496   0.00000  Uiso   1.00
C147   C     0.52212   0.81242   0.43757   0.00000  Uiso   1.00
C148   C     0.62115   0.07713   0.52876   0.00000  Uiso   1.00
C149   C     0.58832   0.12839   0.53567   0.00000  Uiso   1.00
C150   C     0.57595   0.14496   0.58649   0.00000  Uiso   1.00
C151   C     0.54418   0.19074   0.66101   0.00000  Uiso   1.00
C152   C     0.67607   0.98920   0.55458   0.00000  Uiso   1.00
C153   C     0.72663   0.01201   0.52087   0.00000  Uiso   1.00
C154   C     0.78638   0.00195   0.52945   0.00000  Uiso   1.00
C155   C     0.82572   0.02664   0.49413   0.00000  Uiso   1.00
C156   C     0.63570   0.95427   0.51835   0.00000  Uiso   1.00
C157   C     0.61901   0.89567   0.52481   0.00000  Uiso   1.00
C158   C     0.58179   0.87175   0.48738   0.00000  Uiso   1.00
C159   C     0.64092   0.04360   0.57111   0.00000  Uiso   1.00
C160   C     0.62860   0.06010   0.62193   0.00000  Uiso   1.00
C161   C     0.59576   0.11137   0.62891   0.00000  Uiso   1.00
H162   H     0.62427   0.07702   0.44365   0.00000  Uiso   1.00
H163   H     0.73079   0.09618   0.41042   0.00000  Uiso   1.00
H164   H     0.56344   0.98992   0.40579   0.00000  Uiso   1.00
H165   H     0.57303   0.15432   0.50289   0.00000  Uiso   1.00
H166   H     0.85761   0.10262   0.39224   0.00000  Uiso   1.00
H167   H     0.50472   0.87856   0.38249   0.00000  Uiso   1.00
H168   H     0.52493   0.22524   0.58724   0.00000  Uiso   1.00
H169   H     0.69146   0.96310   0.58755   0.00000  Uiso   1.00
H170   H     0.80167   0.97601   0.56222   0.00000  Uiso   1.00
H171   H     0.63431   0.86974   0.55759   0.00000  Uiso   1.00
H172   H     0.64390   0.03414   0.65469   0.00000  Uiso   1.00
H173   H     0.91513   0.00508   0.51545   0.00000  Uiso   1.00
H174   H     0.56224   0.78102   0.50570   0.00000  Uiso   1.00
H175   H     0.58246   0.12769   0.71045   0.00000  Uiso   1.00
O176   O     0.95766   0.06438   0.43457   0.00000  Uiso   1.00
O177   O     0.49466   0.77043   0.42179   0.00000  Uiso   1.00
O178   O     0.52120   0.22526   0.69041   0.00000  Uiso   1.00
N179   N     0.85602   0.07790   0.42472   0.00000  Uiso   1.00
N180   N     0.52610   0.86842   0.41560   0.00000  Uiso   1.00
N181   N     0.54498   0.19252   0.60702   0.00000  Uiso   1.00
N182   N     0.88698   0.02542   0.49102   0.00000  Uiso   1.00
N183   N     0.55705   0.81593   0.48190   0.00000  Uiso   1.00
N184   N     0.57594   0.14003   0.67332   0.00000  Uiso   1.00
C185   C     0.05092   0.86033   0.72662   0.00000  Uiso   1.00
C186   C     0.04554   0.79314   0.72852   0.00000  Uiso   1.00
C187   C     0.07024   0.75389   0.69319   0.00000  Uiso   1.00
C188   C     0.06022   0.69409   0.70171   0.00000  Uiso   1.00
C189   C     0.05694   0.59277   0.69821   0.00000  Uiso   1.00
C190   C     0.98780   0.88406   0.72600   0.00000  Uiso   1.00
C191   C     0.96396   0.92127   0.68855   0.00000  Uiso   1.00
C192   C     0.90534   0.93801   0.69496   0.00000  Uiso   1.00
C193   C     0.81242   0.97788   0.68757   0.00000  Uiso   1.00
C194   C     0.07713   0.87885   0.77876   0.00000  Uiso   1.00
C195   C     0.12839   0.91168   0.78567   0.00000  Uiso   1.00
C196   C     0.14496   0.92405   0.83649   0.00000  Uiso   1.00
C197   C     0.19074   0.95582   0.91101   0.00000  Uiso   1.00
C198   C     0.98920   0.82393   0.80458   0.00000  Uiso   1.00
C199   C     0.01201   0.77337   0.77087   0.00000  Uiso   1.00
C200   C     0.00195   0.71362   0.77945   0.00000  Uiso   1.00
C201   C     0.02664   0.67428   0.74413   0.00000  Uiso   1.00
C202   C     0.95427   0.86430   0.76835   0.00000  Uiso   1.00
C203   C     0.89567   0.88099   0.77481   0.00000  Uiso   1.00
C204   C     0.87175   0.91821   0.73738   0.00000  Uiso   1.00
C205   C     0.04360   0.85908   0.82111   0.00000  Uiso   1.00
C206   C     0.06010   0.87140   0.87193   0.00000  Uiso   1.00
C207   C     0.11137   0.90424   0.87891   0.00000  Uiso   1.00
H208   H     0.07702   0.87573   0.69365   0.00000  Uiso   1.00
H209   H     0.09618   0.76921   0.66042   0.00000  Uiso   1.00
H210   H     0.98992   0.93656   0.65579   0.00000  Uiso   1.00
H211   H     0.15432   0.92697   0.75289   0.00000  Uiso   1.00
H212   H     0.10262   0.64239   0.64224   0.00000  Uiso   1.00
H213   H     0.87856   0.99528   0.63249   0.00000  Uiso   1.00
H214   H     0.22524   0.97507   0.83724   0.00000  Uiso   1.00
H215   H     0.96310   0.80854   0.83755   0.00000  Uiso   1.00
H216   H     0.97601   0.69833   0.81222   0.00000  Uiso   1.00
H217   H     0.86974   0.86569   0.80759   0.00000  Uiso   1.00
H218   H     0.03414   0.85610   0.90469   0.00000  Uiso   1.00
H219   H     0.00508   0.58487   0.76545   0.00000  Uiso   1.00
H220   H     0.78102   0.93776   0.75570   0.00000  Uiso   1.00
H221   H     0.12769   0.91754   0.96045   0.00000  Uiso   1.00
O222   O     0.06438   0.54234   0.68457   0.00000  Uiso   1.00
O223   O     0.77043   0.00534   0.67179   0.00000  Uiso   1.00
O224   O     0.22526   0.97880   0.94041   0.00000  Uiso   1.00
N225   N     0.07790   0.64398   0.67472   0.00000  Uiso   1.00
N226   N     0.86842   0.97390   0.66560   0.00000  Uiso   1.00
N227   N     0.19252   0.95502   0.85702   0.00000  Uiso   1.00
N228   N     0.02542   0.61302   0.74102   0.00000  Uiso   1.00
N229   N     0.81593   0.94295   0.73190   0.00000  Uiso   1.00
N230   N     0.14003   0.92406   0.92332   0.00000  Uiso   1.00
C231   C     0.55092   0.36033   0.22662   0.00000  Uiso   1.00
C232   C     0.54554   0.29314   0.22852   0.00000  Uiso   1.00
C233   C     0.57024   0.25389   0.19319   0.00000  Uiso   1.00
C234   C     0.56022   0.19409   0.20171   0.00000  Uiso   1.00
C235   C     0.55694   0.09277   0.19821   0.00000  Uiso   1.00
C236   C     0.48780   0.38406   0.22600   0.00000  Uiso   1.00
C237   C     0.46396   0.42127   0.18855   0.00000  Uiso   1.00
C238   C     0.40534   0.43801   0.19496   0.00000  Uiso   1.00
C239   C     0.31242   0.47788   0.18757   0.00000  Uiso   1.00
C240   C     0.57713   0.37885   0.27876   0.00000  Uiso   1.00
C241   C     0.62839   0.41168   0.28567   0.00000  Uiso   1.00
C242   C     0.64496   0.42405   0.33649   0.00000  Uiso   1.00
C243   C     0.69074   0.45582   0.41101   0.00000  Uiso   1.00
C244   C     0.48920   0.32393   0.30458   0.00000  Uiso   1.00
C245   C     0.51201   0.27337   0.27087   0.00000  Uiso   1.00
C246   C     0.50195   0.21362   0.27945   0.00000  Uiso   1.00
C247   C     0.52664   0.17428   0.24413   0.00000  Uiso   1.00
C248   C     0.45427   0.36430   0.26835   0.00000  Uiso   1.00
C249   C     0.39567   0.38099   0.27481   0.00000  Uiso   1.00
C250   C     0.37175   0.41821   0.23738   0.00000  Uiso   1.00
C251   C     0.54360   0.35908   0.32111   0.00000  Uiso   1.00
C252   C     0.56010   0.37140   0.37193   0.00000  Uiso   1.00
C253   C     0.61137   0.40424   0.37891   0.00000  Uiso   1.00
H254   H     0.57702   0.37573   0.19365   0.00000  Uiso   1.00
H255   H     0.59618   0.26921   0.16042   0.00000  Uiso   1.00
H256   H     0.48992   0.43656   0.15579   0.00000  Uiso   1.00
H257   H     0.65432   0.42697   0.25289   0.00000  Uiso   1.00
H258   H     0.60262   0.14239   0.14224   0.00000  Uiso   1.00
H259   H     0.37856   0.49528   0.13249   0.00000  Uiso   1.00
H260   H     0.72524   0.47507   0.33724   0.00000  Uiso   1.00
H261   H     0.46310   0.30854   0.33755   0.00000  Uiso   1.00
H262   H     0.47601   0.19833   0.31222   0.00000  Uiso   1.00
H263   H     0.36974   0.36569   0.30759   0.00000  Uiso   1.00
H264   H     0.53414   0.35610   0.40469   0.00000  Uiso   1.00
H265   H     0.50508   0.08487   0.26545   0.00000  Uiso   1.00
H266   H     0.28102   0.43776   0.25570   0.00000  Uiso   1.00
H267   H     0.62769   0.41754   0.46045   0.00000  Uiso   1.00
O268   O     0.56438   0.04234   0.18457   0.00000  Uiso   1.00
O269   O     0.27043   0.50534   0.17179   0.00000  Uiso   1.00
O270   O     0.72526   0.47880   0.44041   0.00000  Uiso   1.00
N271   N     0.57790   0.14398   0.17472   0.00000  Uiso   1.00
N272   N     0.36842   0.47390   0.16560   0.00000  Uiso   1.00
N273   N     0.69252   0.45502   0.35702   0.00000  Uiso   1.00
N274   N     0.52542   0.11302   0.24102   0.00000  Uiso   1.00
N275   N     0.31593   0.44295   0.23190   0.00000  Uiso   1.00
N276   N     0.64003   0.42406   0.42332   0.00000  Uiso   1.00
C277   C     0.44908   0.63967   0.22662   0.00000  Uiso   1.00
C278   C     0.45446   0.70686   0.22852   0.00000  Uiso   1.00
C279   C     0.42976   0.74611   0.19319   0.00000  Uiso   1.00
C280   C     0.43978   0.80591   0.20171   0.00000  Uiso   1.00
C281   C     0.44306   0.90723   0.19821   0.00000  Uiso   1.00
C282   C     0.51220   0.61594   0.22600   0.00000  Uiso   1.00
C283   C     0.53604   0.57873   0.18855   0.00000  Uiso   1.00
C284   C     0.59466   0.56199   0.19496   0.00000  Uiso   1.00
C285   C     0.68758   0.52212   0.18757   0.00000  Uiso   1.00
C286   C     0.42287   0.62115   0.27876   0.00000  Uiso   1.00
C287   C     0.37161   0.58832   0.28567   0.00000  Uiso   1.00
C288   C     0.35504   0.57595   0.33649   0.00000  Uiso   1.00
C289   C     0.30926   0.54418   0.41101   0.00000  Uiso   1.00
C290   C     0.51080   0.67607   0.30458   0.00000  Uiso   1.00
C291   C     0.48799   0.72663   0.27087   0.00000  Uiso   1.00
C292   C     0.49805   0.78638   0.27945   0.00000  Uiso   1.00
C293   C     0.47336   0.82572   0.24413   0.00000  Uiso   1.00
C294   C     0.54573   0.63570   0.26835   0.00000  Uiso   1.00
C295   C     0.60433   0.61901   0.27481   0.00000  Uiso   1.00
C296   C     0.62825   0.58179   0.23738   0.00000  Uiso   1.00
C297   C     0.45640   0.64092   0.32111   0.00000  Uiso   1.00
C298   C     0.43990   0.62860   0.37193   0.00000  Uiso   1.00
C299   C     0.38863   0.59576   0.37891   0.00000  Uiso   1.00
H300   H     0.42298   0.62427   0.19365   0.00000  Uiso   1.00
H301   H     0.40382   0.73079   0.16042   0.00000  Uiso   1.00
H302   H     0.51008   0.56344   0.15579   0.00000  Uiso   1.00
H303   H     0.34568   0.57303   0.25289   0.00000  Uiso   1.00
H304   H     0.39738   0.85761   0.14224   0.00000  Uiso   1.00
H305   H     0.62144   0.50472   0.13249   0.00000  Uiso   1.00
H306   H     0.27476   0.52493   0.33724   0.00000  Uiso   1.00
H307   H     0.53690   0.69146   0.33755   0.00000  Uiso   1.00
H308   H     0.52399   0.80167   0.31222   0.00000  Uiso   1.00
H309   H     0.63026   0.63431   0.30759   0.00000  Uiso   1.00
H310   H     0.46586   0.64390   0.40469   0.00000  Uiso   1.00
H311   H     0.49492   0.91513   0.26545   0.00000  Uiso   1.00
H312   H     0.71898   0.56224   0.25570   0.00000  Uiso   1.00
H313   H     0.37231   0.58246   0.46045   0.00000  Uiso   1.00
O314   O     0.43562   0.95766   0.18457   0.00000  Uiso   1.00
O315   O     0.72957   0.49466   0.17179   0.00000  Uiso   1.00
O316   O     0.27474   0.52120   0.44041   0.00000  Uiso   1.00
N317   N     0.42210   0.85602   0.17472   0.00000  Uiso   1.00
N318   N     0.63158   0.52610   0.16560   0.00000  Uiso   1.00
N319   N     0.30748   0.54498   0.35702   0.00000  Uiso   1.00
N320   N     0.47458   0.88698   0.24102   0.00000  Uiso   1.00
N321   N     0.68407   0.55705   0.23190   0.00000  Uiso   1.00
N322   N     0.35997   0.57594   0.42332   0.00000  Uiso   1.00
C323   C     0.94908   0.13967   0.72662   0.00000  Uiso   1.00
C324   C     0.95446   0.20686   0.72852   0.00000  Uiso   1.00
C325   C     0.92976   0.24611   0.69319   0.00000  Uiso   1.00
C326   C     0.93978   0.30591   0.70171   0.00000  Uiso   1.00
C327   C     0.94306   0.40723   0.69821   0.00000  Uiso   1.00
C328   C     0.01220   0.11594   0.72600   0.00000  Uiso   1.00
C329   C     0.03604   0.07873   0.68855   0.00000  Uiso   1.00
C330   C     0.09466   0.06199   0.69496   0.00000  Uiso   1.00
C331   C     0.18758   0.02212   0.68757   0.00000  Uiso   1.00
C332   C     0.92287   0.12115   0.77876   0.00000  Uiso   1.00
C333   C     0.87161   0.08832   0.78567   0.00000  Uiso   1.00
C334   C     0.85504   0.07595   0.83649   0.00000  Uiso   1.00
C335   C     0.80926   0.04418   0.91101   0.00000  Uiso   1.00
C336   C     0.01080   0.17607   0.80458   0.00000  Uiso   1.00
C337   C     0.98799   0.22663   0.77087   0.00000  Uiso   1.00
C338   C     0.99805   0.28638   0.77945   0.00000  Uiso   1.00
C339   C     0.97336   0.32572   0.74413   0.00000  Uiso   1.00
C340   C     0.04573   0.13570   0.76835   0.00000  Uiso   1.00
C341   C     0.10433   0.11901   0.77481   0.00000  Uiso   1.00
C342   C     0.12825   0.08179   0.73738   0.00000  Uiso   1.00
C343   C     0.95640   0.14092   0.82111   0.00000  Uiso   1.00
C344   C     0.93990   0.12860   0.87193   0.00000  Uiso   1.00
C345   C     0.88863   0.09576   0.87891   0.00000  Uiso   1.00
H346   H     0.92298   0.12427   0.69365   0.00000  Uiso   1.00
H347   H     0.90382   0.23079   0.66042   0.00000  Uiso   1.00
H348   H     0.01008   0.06344   0.65579   0.00000  Uiso   1.00
H349   H     0.84568   0.07303   0.75289   0.00000  Uiso   1.00
H350   H     0.89738   0.35761   0.64224   0.00000  Uiso   1.00
H351   H     0.12144   0.00472   0.63249   0.00000  Uiso   1.00
H352   H     0.77476   0.02493   0.83724   0.00000  Uiso   1.00
H353   H     0.03690   0.19146   0.83755   0.00000  Uiso   1.00
H354   H     0.02399   0.30167   0.81222   0.00000  Uiso   1.00
H355   H     0.13026   0.13431   0.80759   0.00000  Uiso   1.00
H356   H     0.96586   0.14390   0.90469   0.00000  Uiso   1.00
H357   H     0.99492   0.41513   0.76545   0.00000  Uiso   1.00
H358   H     0.21898   0.06224   0.75570   0.00000  Uiso   1.00
H359   H     0.87231   0.08246   0.96045   0.00000  Uiso   1.00
O360   O     0.93562   0.45766   0.68457   0.00000  Uiso   1.00
O361   O     0.22957   0.99466   0.67179   0.00000  Uiso   1.00
O362   O     0.77474   0.02120   0.94041   0.00000  Uiso   1.00
N363   N     0.92210   0.35602   0.67472   0.00000  Uiso   1.00
N364   N     0.13158   0.02610   0.66560   0.00000  Uiso   1.00
N365   N     0.80748   0.04498   0.85702   0.00000  Uiso   1.00
N366   N     0.97458   0.38698   0.74102   0.00000  Uiso   1.00
N367   N     0.18407   0.05705   0.73190   0.00000  Uiso   1.00
N368   N     0.85997   0.07594   0.92332   0.00000  Uiso   1.00
C369   C     0.63967   0.55092   0.77338   0.00000  Uiso   1.00
C370   C     0.70686   0.54554   0.77148   0.00000  Uiso   1.00
C371   C     0.74611   0.57024   0.80681   0.00000  Uiso   1.00
C372   C     0.80591   0.56022   0.79829   0.00000  Uiso   1.00
C373   C     0.90723   0.55694   0.80179   0.00000  Uiso   1.00
C374   C     0.61594   0.48780   0.77400   0.00000  Uiso   1.00
C375   C     0.57873   0.46396   0.81145   0.00000  Uiso   1.00
C376   C     0.56199   0.40534   0.80504   0.00000  Uiso   1.00
C377   C     0.52212   0.31242   0.81243   0.00000  Uiso   1.00
C378   C     0.62115   0.57713   0.72124   0.00000  Uiso   1.00
C379   C     0.58832   0.62839   0.71433   0.00000  Uiso   1.00
C380   C     0.57595   0.64496   0.66351   0.00000  Uiso   1.00
C381   C     0.54418   0.69074   0.58899   0.00000  Uiso   1.00
C382   C     0.67607   0.48920   0.69542   0.00000  Uiso   1.00
C383   C     0.72663   0.51201   0.72913   0.00000  Uiso   1.00
C384   C     0.78638   0.50195   0.72055   0.00000  Uiso   1.00
C385   C     0.82572   0.52664   0.75587   0.00000  Uiso   1.00
C386   C     0.63570   0.45427   0.73165   0.00000  Uiso   1.00
C387   C     0.61901   0.39567   0.72519   0.00000  Uiso   1.00
C388   C     0.58179   0.37175   0.76262   0.00000  Uiso   1.00
C389   C     0.64092   0.54360   0.67889   0.00000  Uiso   1.00
C390   C     0.62860   0.56010   0.62807   0.00000  Uiso   1.00
C391   C     0.59576   0.61137   0.62109   0.00000  Uiso   1.00
H392   H     0.62427   0.57702   0.80635   0.00000  Uiso   1.00
H393   H     0.73079   0.59618   0.83958   0.00000  Uiso   1.00
H394   H     0.56344   0.48992   0.84421   0.00000  Uiso   1.00
H395   H     0.57303   0.65432   0.74711   0.00000  Uiso   1.00
H396   H     0.85761   0.60262   0.85776   0.00000  Uiso   1.00
H397   H     0.50472   0.37856   0.86751   0.00000  Uiso   1.00
H398   H     0.52493   0.72524   0.66276   0.00000  Uiso   1.00
H399   H     0.69146   0.46310   0.66245   0.00000  Uiso   1.00
H400   H     0.80167   0.47601   0.68778   0.00000  Uiso   1.00
H401   H     0.63431   0.36974   0.69241   0.00000  Uiso   1.00
H402   H     0.64390   0.53414   0.59531   0.00000  Uiso   1.00
H403   H     0.91513   0.50508   0.73455   0.00000  Uiso   1.00
H404   H     0.56224   0.28102   0.74430   0.00000  Uiso   1.00
H405   H     0.58246   0.62769   0.53955   0.00000  Uiso   1.00
O406   O     0.95766   0.56438   0.81543   0.00000  Uiso   1.00
O407   O     0.49466   0.27043   0.82821   0.00000  Uiso   1.00
O408   O     0.52120   0.72526   0.55959   0.00000  Uiso   1.00
N409   N     0.85602   0.57790   0.82528   0.00000  Uiso   1.00
N410   N     0.52610   0.36842   0.83440   0.00000  Uiso   1.00
N411   N     0.54498   0.69252   0.64298   0.00000  Uiso   1.00
N412   N     0.88698   0.52542   0.75898   0.00000  Uiso   1.00
N413   N     0.55705   0.31593   0.76810   0.00000  Uiso   1.00
N414   N     0.57594   0.64003   0.57668   0.00000  Uiso   1.00
C415   C     0.13967   0.05092   0.27338   0.00000  Uiso   1.00
C416   C     0.20686   0.04554   0.27148   0.00000  Uiso   1.00
C417   C     0.24611   0.07024   0.30681   0.00000  Uiso   1.00
C418   C     0.30591   0.06022   0.29829   0.00000  Uiso   1.00
C419   C     0.40723   0.05694   0.30179   0.00000  Uiso   1.00
C420   C     0.11594   0.98780   0.27400   0.00000  Uiso   1.00
C421   C     0.07873   0.96396   0.31145   0.00000  Uiso   1.00
C422   C     0.06199   0.90534   0.30504   0.00000  Uiso   1.00
C423   C     0.02212   0.81242   0.31243   0.00000  Uiso   1.00
C424   C     0.12115   0.07713   0.22124   0.00000  Uiso   1.00
C425   C     0.08832   0.12839   0.21433   0.00000  Uiso   1.00
C426   C     0.07595   0.14496   0.16351   0.00000  Uiso   1.00
C427   C     0.04418   0.19074   0.08899   0.00000  Uiso   1.00
C428   C     0.17607   0.98920   0.19542   0.00000  Uiso   1.00
C429   C     0.22663   0.01201   0.22913   0.00000  Uiso   1.00
C430   C     0.28638   0.00195   0.22055   0.00000  Uiso   1.00
C431   C     0.32572   0.02664   0.25587   0.00000  Uiso   1.00
C432   C     0.13570   0.95427   0.23165   0.00000  Uiso   1.00
C433   C     0.11901   0.89567   0.22519   0.00000  Uiso   1.00
C434   C     0.08179   0.87175   0.26262   0.00000  Uiso   1.00
C435   C     0.14092   0.04360   0.17889   0.00000  Uiso   1.00
C436   C     0.12860   0.06010   0.12807   0.00000  Uiso   1.00
C437   C     0.09576   0.11137   0.12109   0.00000  Uiso   1.00
H438   H     0.12427   0.07702   0.30635   0.00000  Uiso   1.00
H439   H     0.23079   0.09618   0.33958   0.00000  Uiso   1.00
H440   H     0.06344   0.98992   0.34421   0.00000  Uiso   1.00
H441   H     0.07303   0.15432   0.24711   0.00000  Uiso   1.00
H442   H     0.35761   0.10262   0.35776   0.00000  Uiso   1.00
H443   H     0.00472   0.87856   0.36751   0.00000  Uiso   1.00
H444   H     0.02493   0.22524   0.16276   0.00000  Uiso   1.00
H445   H     0.19146   0.96310   0.16245   0.00000  Uiso   1.00
H446   H     0.30167   0.97601   0.18778   0.00000  Uiso   1.00
H447   H     0.13431   0.86974   0.19241   0.00000  Uiso   1.00
H448   H     0.14390   0.03414   0.09531   0.00000  Uiso   1.00
H449   H     0.41513   0.00508   0.23455   0.00000  Uiso   1.00
H450   H     0.06224   0.78102   0.24430   0.00000  Uiso   1.00
H451   H     0.08246   0.12769   0.03955   0.00000  Uiso   1.00
O452   O     0.45766   0.06438   0.31543   0.00000  Uiso   1.00
O453   O     0.99466   0.77043   0.32821   0.00000  Uiso   1.00
O454   O     0.02120   0.22526   0.05959   0.00000  Uiso   1.00
N455   N     0.35602   0.07790   0.32528   0.00000  Uiso   1.00
N456   N     0.02610   0.86842   0.33440   0.00000  Uiso   1.00
N457   N     0.04498   0.19252   0.14298   0.00000  Uiso   1.00
N458   N     0.38698   0.02542   0.25898   0.00000  Uiso   1.00
N459   N     0.05705   0.81593   0.26810   0.00000  Uiso   1.00
N460   N     0.07594   0.14003   0.07668   0.00000  Uiso   1.00
C461   C     0.86033   0.94908   0.27338   0.00000  Uiso   1.00
C462   C     0.79314   0.95446   0.27148   0.00000  Uiso   1.00
C463   C     0.75389   0.92976   0.30681   0.00000  Uiso   1.00
C464   C     0.69409   0.93978   0.29829   0.00000  Uiso   1.00
C465   C     0.59277   0.94306   0.30179   0.00000  Uiso   1.00
C466   C     0.88406   0.01220   0.27400   0.00000  Uiso   1.00
C467   C     0.92127   0.03604   0.31145   0.00000  Uiso   1.00
C468   C     0.93801   0.09466   0.30504   0.00000  Uiso   1.00
C469   C     0.97788   0.18758   0.31243   0.00000  Uiso   1.00
C470   C     0.87885   0.92287   0.22124   0.00000  Uiso   1.00
C471   C     0.91168   0.87161   0.21433   0.00000  Uiso   1.00
C472   C     0.92405   0.85504   0.16351   0.00000  Uiso   1.00
C473   C     0.95582   0.80926   0.08899   0.00000  Uiso   1.00
C474   C     0.82393   0.01080   0.19542   0.00000  Uiso   1.00
C475   C     0.77337   0.98799   0.22913   0.00000  Uiso   1.00
C476   C     0.71362   0.99805   0.22055   0.00000  Uiso   1.00
C477   C     0.67428   0.97336   0.25587   0.00000  Uiso   1.00
C478   C     0.86430   0.04573   0.23165   0.00000  Uiso   1.00
C479   C     0.88099   0.10433   0.22519   0.00000  Uiso   1.00
C480   C     0.91821   0.12825   0.26262   0.00000  Uiso   1.00
C481   C     0.85908   0.95640   0.17889   0.00000  Uiso   1.00
C482   C     0.87140   0.93990   0.12807   0.00000  Uiso   1.00
C483   C     0.90424   0.88863   0.12109   0.00000  Uiso   1.00
H484   H     0.87573   0.92298   0.30635   0.00000  Uiso   1.00
H485   H     0.76921   0.90382   0.33958   0.00000  Uiso   1.00
H486   H     0.93656   0.01008   0.34421   0.00000  Uiso   1.00
H487   H     0.92697   0.84568   0.24711   0.00000  Uiso   1.00
H488   H     0.64239   0.89738   0.35776   0.00000  Uiso   1.00
H489   H     0.99528   0.12144   0.36751   0.00000  Uiso   1.00
H490   H     0.97507   0.77476   0.16276   0.00000  Uiso   1.00
H491   H     0.80854   0.03690   0.16245   0.00000  Uiso   1.00
H492   H     0.69833   0.02399   0.18778   0.00000  Uiso   1.00
H493   H     0.86569   0.13026   0.19241   0.00000  Uiso   1.00
H494   H     0.85610   0.96586   0.09531   0.00000  Uiso   1.00
H495   H     0.58487   0.99492   0.23455   0.00000  Uiso   1.00
H496   H     0.93776   0.21898   0.24430   0.00000  Uiso   1.00
H497   H     0.91754   0.87231   0.03955   0.00000  Uiso   1.00
O498   O     0.54234   0.93562   0.31543   0.00000  Uiso   1.00
O499   O     0.00534   0.22957   0.32821   0.00000  Uiso   1.00
O500   O     0.97880   0.77474   0.05959   0.00000  Uiso   1.00
N501   N     0.64398   0.92210   0.32528   0.00000  Uiso   1.00
N502   N     0.97390   0.13158   0.33440   0.00000  Uiso   1.00
N503   N     0.95502   0.80748   0.14298   0.00000  Uiso   1.00
N504   N     0.61302   0.97458   0.25898   0.00000  Uiso   1.00
N505   N     0.94295   0.18407   0.26810   0.00000  Uiso   1.00
N506   N     0.92406   0.85997   0.07668   0.00000  Uiso   1.00
C507   C     0.36033   0.44908   0.77338   0.00000  Uiso   1.00
C508   C     0.29314   0.45446   0.77148   0.00000  Uiso   1.00
C509   C     0.25389   0.42976   0.80681   0.00000  Uiso   1.00
C510   C     0.19409   0.43978   0.79829   0.00000  Uiso   1.00
C511   C     0.09277   0.44306   0.80179   0.00000  Uiso   1.00
C512   C     0.38406   0.51220   0.77400   0.00000  Uiso   1.00
C513   C     0.42127   0.53604   0.81145   0.00000  Uiso   1.00
C514   C     0.43801   0.59466   0.80504   0.00000  Uiso   1.00
C515   C     0.47788   0.68758   0.81243   0.00000  Uiso   1.00
C516   C     0.37885   0.42287   0.72124   0.00000  Uiso   1.00
C517   C     0.41168   0.37161   0.71433   0.00000  Uiso   1.00
C518   C     0.42405   0.35504   0.66351   0.00000  Uiso   1.00
C519   C     0.45582   0.30926   0.58899   0.00000  Uiso   1.00
C520   C     0.32393   0.51080   0.69542   0.00000  Uiso   1.00
C521   C     0.27337   0.48799   0.72913   0.00000  Uiso   1.00
C522   C     0.21362   0.49805   0.72055   0.00000  Uiso   1.00
C523   C     0.17428   0.47336   0.75587   0.00000  Uiso   1.00
C524   C     0.36430   0.54573   0.73165   0.00000  Uiso   1.00
C525   C     0.38099   0.60433   0.72519   0.00000  Uiso   1.00
C526   C     0.41821   0.62825   0.76262   0.00000  Uiso   1.00
C527   C     0.35908   0.45640   0.67889   0.00000  Uiso   1.00
C528   C     0.37140   0.43990   0.62807   0.00000  Uiso   1.00
C529   C     0.40424   0.38863   0.62109   0.00000  Uiso   1.00
H530   H     0.37573   0.42298   0.80635   0.00000  Uiso   1.00
H531   H     0.26921   0.40382   0.83958   0.00000  Uiso   1.00
H532   H     0.43656   0.51008   0.84421   0.00000  Uiso   1.00
H533   H     0.42697   0.34568   0.74711   0.00000  Uiso   1.00
H534   H     0.14239   0.39738   0.85776   0.00000  Uiso   1.00
H535   H     0.49528   0.62144   0.86751   0.00000  Uiso   1.00
H536   H     0.47507   0.27476   0.66276   0.00000  Uiso   1.00
H537   H     0.30854   0.53690   0.66245   0.00000  Uiso   1.00
H538   H     0.19833   0.52399   0.68778   0.00000  Uiso   1.00
H539   H     0.36569   0.63026   0.69241   0.00000  Uiso   1.00
H540   H     0.35610   0.46586   0.59531   0.00000  Uiso   1.00
H541   H     0.08487   0.49492   0.73455   0.00000  Uiso   1.00
H542   H     0.43776   0.71898   0.74430   0.00000  Uiso   1.00
H543   H     0.41754   0.37231   0.53955   0.00000  Uiso   1.00
O544   O     0.04234   0.43562   0.81543   0.00000  Uiso   1.00
O545   O     0.50534   0.72957   0.82821   0.00000  Uiso   1.00
O546   O     0.47880   0.27474   0.55959   0.00000  Uiso   1.00
N547   N     0.14398   0.42210   0.82528   0.00000  Uiso   1.00
N548   N     0.47390   0.63158   0.83440   0.00000  Uiso   1.00
N549   N     0.45502   0.30748   0.64298   0.00000  Uiso   1.00
N550   N     0.11302   0.47458   0.75898   0.00000  Uiso   1.00
N551   N     0.44295   0.68407   0.76810   0.00000  Uiso   1.00
N552   N     0.42406   0.35997   0.57668   0.00000  Uiso   1.00
C553   C     0.94908   0.63967   0.52338   0.00000  Uiso   1.00
C554   C     0.95446   0.70686   0.52148   0.00000  Uiso   1.00
C555   C     0.92976   0.74611   0.55681   0.00000  Uiso   1.00
C556   C     0.93978   0.80591   0.54829   0.00000  Uiso   1.00
C557   C     0.94306   0.90723   0.55179   0.00000  Uiso   1.00
C558   C     0.01220   0.61594   0.52400   0.00000  Uiso   1.00
C559   C     0.03604   0.57873   0.56145   0.00000  Uiso   1.00
C560   C     0.09466   0.56199   0.55504   0.00000  Uiso   1.00
C561   C     0.18758   0.52212   0.56243   0.00000  Uiso   1.00
C562   C     0.92287   0.62115   0.47124   0.00000  Uiso   1.00
C563   C     0.87161   0.58832   0.46433   0.00000  Uiso   1.00
C564   C     0.85504   0.57595   0.41351   0.00000  Uiso   1.00
C565   C     0.80926   0.54418   0.33899   0.00000  Uiso   1.00
C566   C     0.01080   0.67607   0.44542   0.00000  Uiso   1.00
C567   C     0.98799   0.72663   0.47913   0.00000  Uiso   1.00
C568   C     0.99805   0.78638   0.47055   0.00000  Uiso   1.00
C569   C     0.97336   0.82572   0.50587   0.00000  Uiso   1.00
C570   C     0.04573   0.63570   0.48165   0.00000  Uiso   1.00
C571   C     0.10433   0.61901   0.47519   0.00000  Uiso   1.00
C572   C     0.12825   0.58179   0.51262   0.00000  Uiso   1.00
C573   C     0.95640   0.64092   0.42889   0.00000  Uiso   1.00
C574   C     0.93990   0.62860   0.37807   0.00000  Uiso   1.00
C575   C     0.88863   0.59576   0.37109   0.00000  Uiso   1.00
H576   H     0.92298   0.62427   0.55635   0.00000  Uiso   1.00
H577   H     0.90382   0.73079   0.58958   0.00000  Uiso   1.00
H578   H     0.01008   0.56344   0.59421   0.00000  Uiso   1.00
H579   H     0.84568   0.57303   0.49711   0.00000  Uiso   1.00
H580   H     0.89738   0.85761   0.60776   0.00000  Uiso   1.00
H581   H     0.12144   0.50472   0.61751   0.00000  Uiso   1.00
H582   H     0.77476   0.52493   0.41276   0.00000  Uiso   1.00
H583   H     0.03690   0.69146   0.41245   0.00000  Uiso   1.00
H584   H     0.02399   0.80167   0.43778   0.00000  Uiso   1.00
H585   H     0.13026   0.63431   0.44241   0.00000  Uiso   1.00
H586   H     0.96586   0.64390   0.34531   0.00000  Uiso   1.00
H587   H     0.99492   0.91513   0.48455   0.00000  Uiso   1.00
H588   H     0.21898   0.56224   0.49430   0.00000  Uiso   1.00
H589   H     0.87231   0.58246   0.28955   0.00000  Uiso   1.00
O590   O     0.93562   0.95766   0.56543   0.00000  Uiso   1.00
O591   O     0.22957   0.49466   0.57821   0.00000  Uiso   1.00
O592   O     0.77474   0.52120   0.30959   0.00000  Uiso   1.00
N593   N     0.92210   0.85602   0.57528   0.00000  Uiso   1.00
N594   N     0.13158   0.52610   0.58440   0.00000  Uiso   1.00
N595   N     0.80748   0.54498   0.39298   0.00000  Uiso   1.00
N596   N     0.97458   0.88698   0.50898   0.00000  Uiso   1.00
N597   N     0.18407   0.55705   0.51810   0.00000  Uiso   1.00
N598   N     0.85997   0.57594   0.32668   0.00000  Uiso   1.00
C599   C     0.44908   0.13967   0.02338   0.00000  Uiso   1.00
C600   C     0.45446   0.20686   0.02148   0.00000  Uiso   1.00
C601   C     0.42976   0.24611   0.05681   0.00000  Uiso   1.00
C602   C     0.43978   0.30591   0.04829   0.00000  Uiso   1.00
C603   C     0.44306   0.40723   0.05179   0.00000  Uiso   1.00
C604   C     0.51220   0.11594   0.02400   0.00000  Uiso   1.00
C605   C     0.53604   0.07873   0.06145   0.00000  Uiso   1.00
C606   C     0.59466   0.06199   0.05504   0.00000  Uiso   1.00
C607   C     0.68758   0.02212   0.06243   0.00000  Uiso   1.00
C608   C     0.42287   0.12115   0.97124   0.00000  Uiso   1.00
C609   C     0.37161   0.08832   0.96433   0.00000  Uiso   1.00
C610   C     0.35504   0.07595   0.91351   0.00000  Uiso   1.00
C611   C     0.30926   0.04418   0.83899   0.00000  Uiso   1.00
C612   C     0.51080   0.17607   0.94542   0.00000  Uiso   1.00
C613   C     0.48799   0.22663   0.97913   0.00000  Uiso   1.00
C614   C     0.49805   0.28638   0.97055   0.00000  Uiso   1.00
C615   C     0.47336   0.32572   0.00587   0.00000  Uiso   1.00
C616   C     0.54573   0.13570   0.98165   0.00000  Uiso   1.00
C617   C     0.60433   0.11901   0.97519   0.00000  Uiso   1.00
C618   C     0.62825   0.08179   0.01262   0.00000  Uiso   1.00
C619   C     0.45640   0.14092   0.92889   0.00000  Uiso   1.00
C620   C     0.43990   0.12860   0.87807   0.00000  Uiso   1.00
C621   C     0.38863   0.09576   0.87109   0.00000  Uiso   1.00
H622   H     0.42298   0.12427   0.05635   0.00000  Uiso   1.00
H623   H     0.40382   0.23079   0.08958   0.00000  Uiso   1.00
H624   H     0.51008   0.06344   0.09421   0.00000  Uiso   1.00
H625   H     0.34568   0.07303   0.99711   0.00000  Uiso   1.00
H626   H     0.39738   0.35761   0.10776   0.00000  Uiso   1.00
H627   H     0.62144   0.00472   0.11751   0.00000  Uiso   1.00
H628   H     0.27476   0.02493   0.91276   0.00000  Uiso   1.00
H629   H     0.53690   0.19146   0.91245   0.00000  Uiso   1.00
H630   H     0.52399   0.30167   0.93778   0.00000  Uiso   1.00
H631   H     0.63026   0.13431   0.94241   0.00000  Uiso   1.00
H632   H     0.46586   0.14390   0.84531   0.00000  Uiso   1.00
H633   H     0.49492   0.41513   0.98455   0.00000  Uiso   1.00
H634   H     0.71898   0.06224   0.99430   0.00000  Uiso   1.00
H635   H     0.37231   0.08246   0.78955   0.00000  Uiso   1.00
O636   O     0.43562   0.45766   0.06543   0.00000  Uiso   1.00
O637   O     0.72957   0.99466   0.07821   0.00000  Uiso   1.00
O638   O     0.27474   0.02120   0.80959   0.00000  Uiso   1.00
N639   N     0.42210   0.35602   0.07528   0.00000  Uiso   1.00
N640   N     0.63158   0.02610   0.08440   0.00000  Uiso   1.00
N641   N     0.30748   0.04498   0.89298   0.00000  Uiso   1.00
N642   N     0.47458   0.38698   0.00898   0.00000  Uiso   1.00
N643   N     0.68407   0.05705   0.01810   0.00000  Uiso   1.00
N644   N     0.35997   0.07594   0.82668   0.00000  Uiso   1.00
C645   C     0.55092   0.86033   0.02338   0.00000  Uiso   1.00
C646   C     0.54554   0.79314   0.02148   0.00000  Uiso   1.00
C647   C     0.57024   0.75389   0.05681   0.00000  Uiso   1.00
C648   C     0.56022   0.69409   0.04829   0.00000  Uiso   1.00
C649   C     0.55694   0.59277   0.05179   0.00000  Uiso   1.00
C650   C     0.48780   0.88406   0.02400   0.00000  Uiso   1.00
C651   C     0.46396   0.92127   0.06145   0.00000  Uiso   1.00
C652   C     0.40534   0.93801   0.05504   0.00000  Uiso   1.00
C653   C     0.31242   0.97788   0.06243   0.00000  Uiso   1.00
C654   C     0.57713   0.87885   0.97124   0.00000  Uiso   1.00
C655   C     0.62839   0.91168   0.96433   0.00000  Uiso   1.00
C656   C     0.64496   0.92405   0.91351   0.00000  Uiso   1.00
C657   C     0.69074   0.95582   0.83899   0.00000  Uiso   1.00
C658   C     0.48920   0.82393   0.94542   0.00000  Uiso   1.00
C659   C     0.51201   0.77337   0.97913   0.00000  Uiso   1.00
C660   C     0.50195   0.71362   0.97055   0.00000  Uiso   1.00
C661   C     0.52664   0.67428   0.00587   0.00000  Uiso   1.00
C662   C     0.45427   0.86430   0.98165   0.00000  Uiso   1.00
C663   C     0.39567   0.88099   0.97519   0.00000  Uiso   1.00
C664   C     0.37175   0.91821   0.01262   0.00000  Uiso   1.00
C665   C     0.54360   0.85908   0.92889   0.00000  Uiso   1.00
C666   C     0.56010   0.87140   0.87807   0.00000  Uiso   1.00
C667   C     0.61137   0.90424   0.87109   0.00000  Uiso   1.00
H668   H     0.57702   0.87573   0.05635   0.00000  Uiso   1.00
H669   H     0.59618   0.76921   0.08958   0.00000  Uiso   1.00
H670   H     0.48992   0.93656   0.09421   0.00000  Uiso   1.00
H671   H     0.65432   0.92697   0.99711   0.00000  Uiso   1.00
H672   H     0.60262   0.64239   0.10776   0.00000  Uiso   1.00
H673   H     0.37856   0.99528   0.11751   0.00000  Uiso   1.00
H674   H     0.72524   0.97507   0.91276   0.00000  Uiso   1.00
H675   H     0.46310   0.80854   0.91245   0.00000  Uiso   1.00
H676   H     0.47601   0.69833   0.93778   0.00000  Uiso   1.00
H677   H     0.36974   0.86569   0.94241   0.00000  Uiso   1.00
H678   H     0.53414   0.85610   0.84531   0.00000  Uiso   1.00
H679   H     0.50508   0.58487   0.98455   0.00000  Uiso   1.00
H680   H     0.28102   0.93776   0.99430   0.00000  Uiso   1.00
H681   H     0.62769   0.91754   0.78955   0.00000  Uiso   1.00
O682   O     0.56438   0.54234   0.06543   0.00000  Uiso   1.00
O683   O     0.27043   0.00534   0.07821   0.00000  Uiso   1.00
O684   O     0.72526   0.97880   0.80959   0.00000  Uiso   1.00
N685   N     0.57790   0.64398   0.07528   0.00000  Uiso   1.00
N686   N     0.36842   0.97390   0.08440   0.00000  Uiso   1.00
N687   N     0.69252   0.95502   0.89298   0.00000  Uiso   1.00
N688   N     0.52542   0.61302   0.00898   0.00000  Uiso   1.00
N689   N     0.31593   0.94295   0.01810   0.00000  Uiso   1.00
N690   N     0.64003   0.92406   0.82668   0.00000  Uiso   1.00
C691   C     0.05092   0.36033   0.52338   0.00000  Uiso   1.00
C692   C     0.04554   0.29314   0.52148   0.00000  Uiso   1.00
C693   C     0.07024   0.25389   0.55681   0.00000  Uiso   1.00
C694   C     0.06022   0.19409   0.54829   0.00000  Uiso   1.00
C695   C     0.05694   0.09277   0.55179   0.00000  Uiso   1.00
C696   C     0.98780   0.38406   0.52400   0.00000  Uiso   1.00
C697   C     0.96396   0.42127   0.56145   0.00000  Uiso   1.00
C698   C     0.90534   0.43801   0.55504   0.00000  Uiso   1.00
C699   C     0.81242   0.47788   0.56243   0.00000  Uiso   1.00
C700   C     0.07713   0.37885   0.47124   0.00000  Uiso   1.00
C701   C     0.12839   0.41168   0.46433   0.00000  Uiso   1.00
C702   C     0.14496   0.42405   0.41351   0.00000  Uiso   1.00
C703   C     0.19074   0.45582   0.33899   0.00000  Uiso   1.00
C704   C     0.98920   0.32393   0.44542   0.00000  Uiso   1.00
C705   C     0.01201   0.27337   0.47913   0.00000  Uiso   1.00
C706   C     0.00195   0.21362   0.47055   0.00000  Uiso   1.00
C707   C     0.02664   0.17428   0.50587   0.00000  Uiso   1.00
C708   C     0.95427   0.36430   0.48165   0.00000  Uiso   1.00
C709   C     0.89567   0.38099   0.47519   0.00000  Uiso   1.00
C710   C     0.87175   0.41821   0.51262   0.00000  Uiso   1.00
C711   C     0.04360   0.35908   0.42889   0.00000  Uiso   1.00
C712   C     0.06010   0.37140   0.37807   0.00000  Uiso   1.00
C713   C     0.11137   0.40424   0.37109   0.00000  Uiso   1.00
H714   H     0.07702   0.37573   0.55635   0.00000  Uiso   1.00
H715   H     0.09618   0.26921   0.58958   0.00000  Uiso   1.00
H716   H     0.98992   0.43656   0.59421   0.00000  Uiso   1.00
H717   H     0.15432   0.42697   0.49711   0.00000  Uiso   1.00
H718   H     0.10262   0.14239   0.60776   0.00000  Uiso   1.00
H719   H     0.87856   0.49528   0.61751   0.00000  Uiso   1.00
H720   H     0.22524   0.47507   0.41276   0.00000  Uiso   1.00
H721   H     0.96310   0.30854   0.41245   0.00000  Uiso   1.00
H722   H     0.97601   0.19833   0.43778   0.00000  Uiso   1.00
H723   H     0.86974   0.36569   0.44241   0.00000  Uiso   1.00
H724   H     0.03414   0.35610   0.34531   0.00000  Uiso   1.00
H725   H     0.00508   0.08487   0.48455   0.00000  Uiso   1.00
H726   H     0.78102   0.43776   0.49430   0.00000  Uiso   1.00
H727   H     0.12769   0.41754   0.28955   0.00000  Uiso   1.00
O728   O     0.06438   0.04234   0.56543   0.00000  Uiso   1.00
O729   O     0.77043   0.50534   0.57821   0.00000  Uiso   1.00
O730   O     0.22526   0.47880   0.30959   0.00000  Uiso   1.00
N731   N     0.07790   0.14398   0.57528   0.00000  Uiso   1.00
N732   N     0.86842   0.47390   0.58440   0.00000  Uiso   1.00
N733   N     0.19252   0.45502   0.39298   0.00000  Uiso   1.00
N734   N     0.02542   0.11302   0.50898   0.00000  Uiso   1.00
N735   N     0.81593   0.44295   0.51810   0.00000  Uiso   1.00
N736   N     0.14003   0.42406   0.32668   0.00000  Uiso   1.00
