data_job_00829
_audit_creation_date              2018-12-19
_audit_creation_method            'Materials Studio'
_symmetry_space_group_name_H-M    'P1'
_symmetry_Int_Tables_number       1
_symmetry_cell_setting            triclinic
loop_
_symmetry_equiv_pos_as_xyz
  x,y,z
_cell_length_a                    42.4816
_cell_length_b                    42.4816
_cell_length_c                    7.1591
_cell_angle_alpha                 90.0000
_cell_angle_beta                  90.0000
_cell_angle_gamma                 90.0000
loop_
_atom_site_label
_atom_site_type_symbol
_atom_site_fract_x
_atom_site_fract_y
_atom_site_fract_z
_atom_site_U_iso_or_equiv
_atom_site_adp_type
_atom_site_occupancy
C1     C     0.43786   0.63650   0.56679   0.00000  Uiso   1.00
C2     C     0.40994   0.62247   0.67163   0.00000  Uiso   1.00
C3     C     0.38497   0.60633   0.59137   0.00000  Uiso   1.00
C4     C     0.36174   0.59533   0.71120   0.00000  Uiso   1.00
C5     C     0.31812   0.57279   0.84460   0.00000  Uiso   1.00
C6     C     0.43859   0.67133   0.61827   0.00000  Uiso   1.00
C7     C     0.43771   0.69627   0.49314   0.00000  Uiso   1.00
C8     C     0.43861   0.72640   0.56806   0.00000  Uiso   1.00
C9     C     0.43949   0.77972   0.61862   0.00000  Uiso   1.00
C10    C     0.46721   0.62200   0.65410   0.00000  Uiso   1.00
C11    C     0.49040   0.60547   0.55910   0.00000  Uiso   1.00
C12    C     0.51540   0.59408   0.66418   0.00000  Uiso   1.00
C13    C     0.56073   0.57082   0.77037   0.00000  Uiso   1.00
C14    C     0.44102   0.64567   0.92231   0.00000  Uiso   1.00
C15    C     0.41166   0.62745   0.86473   0.00000  Uiso   1.00
C16    C     0.38847   0.61647   0.98471   0.00000  Uiso   1.00
C17    C     0.36346   0.60032   0.90465   0.00000  Uiso   1.00
C18    C     0.44031   0.67631   0.81136   0.00000  Uiso   1.00
C19    C     0.44121   0.70641   0.88648   0.00000  Uiso   1.00
C20    C     0.44033   0.73139   0.76151   0.00000  Uiso   1.00
C21    C     0.46893   0.62698   0.84720   0.00000  Uiso   1.00
C22    C     0.49390   0.61562   0.95245   0.00000  Uiso   1.00
C23    C     0.51712   0.59908   0.85763   0.00000  Uiso   1.00
H24    H     0.43652   0.63263   0.41645   0.00000  Uiso   1.00
H25    H     0.38364   0.60248   0.44192   0.00000  Uiso   1.00
H26    H     0.43638   0.69240   0.34372   0.00000  Uiso   1.00
H27    H     0.48907   0.60162   0.40967   0.00000  Uiso   1.00
H28    H     0.32577   0.57126   0.55532   0.00000  Uiso   1.00
H29    H     0.43698   0.76087   0.34824   0.00000  Uiso   1.00
H30    H     0.54808   0.56944   0.48731   0.00000  Uiso   1.00
H31    H     0.44236   0.64955   0.07265   0.00000  Uiso   1.00
H32    H     0.38980   0.62033   0.13414   0.00000  Uiso   1.00
H33    H     0.44254   0.71026   0.03592   0.00000  Uiso   1.00
H34    H     0.49523   0.61948   0.10188   0.00000  Uiso   1.00
H35    H     0.33077   0.58576   0.11715   0.00000  Uiso   1.00
H36    H     0.44198   0.77537   0.91006   0.00000  Uiso   1.00
H37    H     0.55308   0.58394   0.04913   0.00000  Uiso   1.00
O38    O     0.29358   0.55899   0.86483   0.00000  Uiso   1.00
O39    O     0.43950   0.80775   0.59315   0.00000  Uiso   1.00
O40    O     0.58525   0.55660   0.77560   0.00000  Uiso   1.00
N41    N     0.33416   0.57868   0.67911   0.00000  Uiso   1.00
N42    N     0.43814   0.75595   0.48550   0.00000  Uiso   1.00
N43    N     0.54200   0.57699   0.61551   0.00000  Uiso   1.00
N44    N     0.33685   0.58648   0.98143   0.00000  Uiso   1.00
N45    N     0.44083   0.76375   0.78782   0.00000  Uiso   1.00
N46    N     0.54469   0.58479   0.91783   0.00000  Uiso   1.00
C47    C     0.93786   0.13650   0.06679   0.00000  Uiso   1.00
C48    C     0.90994   0.12247   0.17163   0.00000  Uiso   1.00
C49    C     0.88497   0.10633   0.09137   0.00000  Uiso   1.00
C50    C     0.86174   0.09533   0.21120   0.00000  Uiso   1.00
C51    C     0.81812   0.07279   0.34460   0.00000  Uiso   1.00
C52    C     0.93859   0.17133   0.11827   0.00000  Uiso   1.00
C53    C     0.93771   0.19627   0.99314   0.00000  Uiso   1.00
C54    C     0.93861   0.22640   0.06806   0.00000  Uiso   1.00
C55    C     0.93949   0.27972   0.11862   0.00000  Uiso   1.00
C56    C     0.96721   0.12200   0.15410   0.00000  Uiso   1.00
C57    C     0.99040   0.10547   0.05910   0.00000  Uiso   1.00
C58    C     0.01540   0.09408   0.16418   0.00000  Uiso   1.00
C59    C     0.06073   0.07082   0.27037   0.00000  Uiso   1.00
C60    C     0.94102   0.14567   0.42231   0.00000  Uiso   1.00
C61    C     0.91166   0.12745   0.36473   0.00000  Uiso   1.00
C62    C     0.88847   0.11647   0.48471   0.00000  Uiso   1.00
C63    C     0.86346   0.10032   0.40465   0.00000  Uiso   1.00
C64    C     0.94031   0.17631   0.31136   0.00000  Uiso   1.00
C65    C     0.94121   0.20641   0.38648   0.00000  Uiso   1.00
C66    C     0.94033   0.23139   0.26151   0.00000  Uiso   1.00
C67    C     0.96893   0.12698   0.34720   0.00000  Uiso   1.00
C68    C     0.99390   0.11562   0.45245   0.00000  Uiso   1.00
C69    C     0.01712   0.09908   0.35763   0.00000  Uiso   1.00
H70    H     0.93652   0.13263   0.91645   0.00000  Uiso   1.00
H71    H     0.88364   0.10248   0.94192   0.00000  Uiso   1.00
H72    H     0.93638   0.19240   0.84372   0.00000  Uiso   1.00
H73    H     0.98907   0.10162   0.90967   0.00000  Uiso   1.00
H74    H     0.82577   0.07126   0.05532   0.00000  Uiso   1.00
H75    H     0.93698   0.26087   0.84824   0.00000  Uiso   1.00
H76    H     0.04808   0.06944   0.98731   0.00000  Uiso   1.00
H77    H     0.94236   0.14955   0.57265   0.00000  Uiso   1.00
H78    H     0.88980   0.12033   0.63414   0.00000  Uiso   1.00
H79    H     0.94254   0.21026   0.53592   0.00000  Uiso   1.00
H80    H     0.99523   0.11948   0.60188   0.00000  Uiso   1.00
H81    H     0.83077   0.08576   0.61715   0.00000  Uiso   1.00
H82    H     0.94198   0.27537   0.41006   0.00000  Uiso   1.00
H83    H     0.05308   0.08394   0.54913   0.00000  Uiso   1.00
O84    O     0.79358   0.05899   0.36483   0.00000  Uiso   1.00
O85    O     0.93950   0.30775   0.09315   0.00000  Uiso   1.00
O86    O     0.08525   0.05660   0.27560   0.00000  Uiso   1.00
N87    N     0.83416   0.07868   0.17911   0.00000  Uiso   1.00
N88    N     0.93814   0.25595   0.98550   0.00000  Uiso   1.00
N89    N     0.04200   0.07699   0.11551   0.00000  Uiso   1.00
N90    N     0.83685   0.08648   0.48143   0.00000  Uiso   1.00
N91    N     0.94083   0.26375   0.28782   0.00000  Uiso   1.00
N92    N     0.04469   0.08479   0.41783   0.00000  Uiso   1.00
C93    C     0.06214   0.86350   0.06679   0.00000  Uiso   1.00
C94    C     0.09006   0.87753   0.17163   0.00000  Uiso   1.00
C95    C     0.11503   0.89367   0.09137   0.00000  Uiso   1.00
C96    C     0.13826   0.90467   0.21120   0.00000  Uiso   1.00
C97    C     0.18188   0.92721   0.34460   0.00000  Uiso   1.00
C98    C     0.06141   0.82867   0.11827   0.00000  Uiso   1.00
C99    C     0.06229   0.80373   0.99314   0.00000  Uiso   1.00
C100   C     0.06139   0.77360   0.06806   0.00000  Uiso   1.00
C101   C     0.06051   0.72028   0.11862   0.00000  Uiso   1.00
C102   C     0.03279   0.87800   0.15410   0.00000  Uiso   1.00
C103   C     0.00960   0.89453   0.05910   0.00000  Uiso   1.00
C104   C     0.98460   0.90592   0.16418   0.00000  Uiso   1.00
C105   C     0.93927   0.92918   0.27037   0.00000  Uiso   1.00
C106   C     0.05898   0.85433   0.42231   0.00000  Uiso   1.00
C107   C     0.08834   0.87255   0.36473   0.00000  Uiso   1.00
C108   C     0.11153   0.88353   0.48471   0.00000  Uiso   1.00
C109   C     0.13654   0.89968   0.40465   0.00000  Uiso   1.00
C110   C     0.05969   0.82369   0.31136   0.00000  Uiso   1.00
C111   C     0.05879   0.79359   0.38648   0.00000  Uiso   1.00
C112   C     0.05967   0.76861   0.26151   0.00000  Uiso   1.00
C113   C     0.03107   0.87302   0.34720   0.00000  Uiso   1.00
C114   C     0.00610   0.88438   0.45245   0.00000  Uiso   1.00
C115   C     0.98288   0.90092   0.35763   0.00000  Uiso   1.00
H116   H     0.06348   0.86737   0.91645   0.00000  Uiso   1.00
H117   H     0.11636   0.89752   0.94192   0.00000  Uiso   1.00
H118   H     0.06362   0.80760   0.84372   0.00000  Uiso   1.00
H119   H     0.01093   0.89838   0.90967   0.00000  Uiso   1.00
H120   H     0.17423   0.92874   0.05532   0.00000  Uiso   1.00
H121   H     0.06302   0.73913   0.84824   0.00000  Uiso   1.00
H122   H     0.95192   0.93056   0.98731   0.00000  Uiso   1.00
H123   H     0.05764   0.85045   0.57265   0.00000  Uiso   1.00
H124   H     0.11020   0.87967   0.63414   0.00000  Uiso   1.00
H125   H     0.05746   0.78974   0.53592   0.00000  Uiso   1.00
H126   H     0.00477   0.88052   0.60188   0.00000  Uiso   1.00
H127   H     0.16923   0.91424   0.61715   0.00000  Uiso   1.00
H128   H     0.05802   0.72463   0.41006   0.00000  Uiso   1.00
H129   H     0.94692   0.91606   0.54913   0.00000  Uiso   1.00
O130   O     0.20642   0.94101   0.36483   0.00000  Uiso   1.00
O131   O     0.06050   0.69225   0.09315   0.00000  Uiso   1.00
O132   O     0.91475   0.94340   0.27560   0.00000  Uiso   1.00
N133   N     0.16584   0.92132   0.17911   0.00000  Uiso   1.00
N134   N     0.06186   0.74405   0.98550   0.00000  Uiso   1.00
N135   N     0.95800   0.92301   0.11551   0.00000  Uiso   1.00
N136   N     0.16315   0.91352   0.48143   0.00000  Uiso   1.00
N137   N     0.05917   0.73625   0.28782   0.00000  Uiso   1.00
N138   N     0.95531   0.91521   0.41783   0.00000  Uiso   1.00
C139   C     0.56214   0.36350   0.56679   0.00000  Uiso   1.00
C140   C     0.59006   0.37753   0.67163   0.00000  Uiso   1.00
C141   C     0.61503   0.39367   0.59137   0.00000  Uiso   1.00
C142   C     0.63826   0.40467   0.71120   0.00000  Uiso   1.00
C143   C     0.68188   0.42721   0.84460   0.00000  Uiso   1.00
C144   C     0.56141   0.32867   0.61827   0.00000  Uiso   1.00
C145   C     0.56229   0.30373   0.49314   0.00000  Uiso   1.00
C146   C     0.56139   0.27360   0.56806   0.00000  Uiso   1.00
C147   C     0.56051   0.22028   0.61862   0.00000  Uiso   1.00
C148   C     0.53279   0.37800   0.65410   0.00000  Uiso   1.00
C149   C     0.50960   0.39453   0.55910   0.00000  Uiso   1.00
C150   C     0.48460   0.40592   0.66418   0.00000  Uiso   1.00
C151   C     0.43927   0.42918   0.77037   0.00000  Uiso   1.00
C152   C     0.55898   0.35433   0.92231   0.00000  Uiso   1.00
C153   C     0.58834   0.37255   0.86473   0.00000  Uiso   1.00
C154   C     0.61153   0.38353   0.98471   0.00000  Uiso   1.00
C155   C     0.63654   0.39968   0.90465   0.00000  Uiso   1.00
C156   C     0.55969   0.32369   0.81136   0.00000  Uiso   1.00
C157   C     0.55879   0.29359   0.88648   0.00000  Uiso   1.00
C158   C     0.55967   0.26861   0.76151   0.00000  Uiso   1.00
C159   C     0.53107   0.37302   0.84720   0.00000  Uiso   1.00
C160   C     0.50610   0.38438   0.95245   0.00000  Uiso   1.00
C161   C     0.48288   0.40092   0.85763   0.00000  Uiso   1.00
H162   H     0.56348   0.36737   0.41645   0.00000  Uiso   1.00
H163   H     0.61636   0.39752   0.44192   0.00000  Uiso   1.00
H164   H     0.56362   0.30760   0.34372   0.00000  Uiso   1.00
H165   H     0.51093   0.39838   0.40967   0.00000  Uiso   1.00
H166   H     0.67423   0.42874   0.55532   0.00000  Uiso   1.00
H167   H     0.56302   0.23913   0.34824   0.00000  Uiso   1.00
H168   H     0.45192   0.43056   0.48731   0.00000  Uiso   1.00
H169   H     0.55764   0.35045   0.07265   0.00000  Uiso   1.00
H170   H     0.61020   0.37967   0.13414   0.00000  Uiso   1.00
H171   H     0.55746   0.28974   0.03592   0.00000  Uiso   1.00
H172   H     0.50477   0.38052   0.10188   0.00000  Uiso   1.00
H173   H     0.66923   0.41424   0.11715   0.00000  Uiso   1.00
H174   H     0.55802   0.22463   0.91006   0.00000  Uiso   1.00
H175   H     0.44692   0.41606   0.04913   0.00000  Uiso   1.00
O176   O     0.70642   0.44101   0.86483   0.00000  Uiso   1.00
O177   O     0.56050   0.19225   0.59315   0.00000  Uiso   1.00
O178   O     0.41475   0.44340   0.77560   0.00000  Uiso   1.00
N179   N     0.66584   0.42132   0.67911   0.00000  Uiso   1.00
N180   N     0.56186   0.24405   0.48550   0.00000  Uiso   1.00
N181   N     0.45800   0.42301   0.61551   0.00000  Uiso   1.00
N182   N     0.66315   0.41352   0.98143   0.00000  Uiso   1.00
N183   N     0.55917   0.23625   0.78782   0.00000  Uiso   1.00
N184   N     0.45531   0.41521   0.91783   0.00000  Uiso   1.00
C185   C     0.36350   0.93786   0.81679   0.00000  Uiso   1.00
C186   C     0.37753   0.90994   0.92163   0.00000  Uiso   1.00
C187   C     0.39367   0.88497   0.84137   0.00000  Uiso   1.00
C188   C     0.40467   0.86174   0.96120   0.00000  Uiso   1.00
C189   C     0.42721   0.81812   0.09460   0.00000  Uiso   1.00
C190   C     0.32867   0.93859   0.86827   0.00000  Uiso   1.00
C191   C     0.30373   0.93771   0.74314   0.00000  Uiso   1.00
C192   C     0.27360   0.93861   0.81806   0.00000  Uiso   1.00
C193   C     0.22028   0.93949   0.86862   0.00000  Uiso   1.00
C194   C     0.37800   0.96721   0.90410   0.00000  Uiso   1.00
C195   C     0.39453   0.99040   0.80910   0.00000  Uiso   1.00
C196   C     0.40592   0.01540   0.91418   0.00000  Uiso   1.00
C197   C     0.42918   0.06073   0.02037   0.00000  Uiso   1.00
C198   C     0.35433   0.94102   0.17231   0.00000  Uiso   1.00
C199   C     0.37255   0.91166   0.11473   0.00000  Uiso   1.00
C200   C     0.38353   0.88847   0.23471   0.00000  Uiso   1.00
C201   C     0.39968   0.86346   0.15465   0.00000  Uiso   1.00
C202   C     0.32369   0.94031   0.06136   0.00000  Uiso   1.00
C203   C     0.29359   0.94121   0.13648   0.00000  Uiso   1.00
C204   C     0.26861   0.94033   0.01151   0.00000  Uiso   1.00
C205   C     0.37302   0.96893   0.09720   0.00000  Uiso   1.00
C206   C     0.38438   0.99390   0.20245   0.00000  Uiso   1.00
C207   C     0.40092   0.01712   0.10763   0.00000  Uiso   1.00
H208   H     0.36737   0.93652   0.66645   0.00000  Uiso   1.00
H209   H     0.39752   0.88364   0.69192   0.00000  Uiso   1.00
H210   H     0.30760   0.93638   0.59372   0.00000  Uiso   1.00
H211   H     0.39838   0.98907   0.65967   0.00000  Uiso   1.00
H212   H     0.42874   0.82577   0.80532   0.00000  Uiso   1.00
H213   H     0.23913   0.93698   0.59824   0.00000  Uiso   1.00
H214   H     0.43056   0.04808   0.73731   0.00000  Uiso   1.00
H215   H     0.35045   0.94236   0.32265   0.00000  Uiso   1.00
H216   H     0.37967   0.88980   0.38414   0.00000  Uiso   1.00
H217   H     0.28974   0.94254   0.28592   0.00000  Uiso   1.00
H218   H     0.38052   0.99523   0.35188   0.00000  Uiso   1.00
H219   H     0.41424   0.83077   0.36715   0.00000  Uiso   1.00
H220   H     0.22463   0.94198   0.16006   0.00000  Uiso   1.00
H221   H     0.41606   0.05308   0.29913   0.00000  Uiso   1.00
O222   O     0.44101   0.79358   0.11483   0.00000  Uiso   1.00
O223   O     0.19225   0.93950   0.84315   0.00000  Uiso   1.00
O224   O     0.44340   0.08525   0.02560   0.00000  Uiso   1.00
N225   N     0.42132   0.83416   0.92911   0.00000  Uiso   1.00
N226   N     0.24405   0.93814   0.73550   0.00000  Uiso   1.00
N227   N     0.42301   0.04200   0.86551   0.00000  Uiso   1.00
N228   N     0.41352   0.83685   0.23143   0.00000  Uiso   1.00
N229   N     0.23625   0.94083   0.03782   0.00000  Uiso   1.00
N230   N     0.41521   0.04469   0.16783   0.00000  Uiso   1.00
C231   C     0.86350   0.43786   0.31679   0.00000  Uiso   1.00
C232   C     0.87753   0.40994   0.42163   0.00000  Uiso   1.00
C233   C     0.89367   0.38497   0.34137   0.00000  Uiso   1.00
C234   C     0.90467   0.36174   0.46120   0.00000  Uiso   1.00
C235   C     0.92721   0.31812   0.59460   0.00000  Uiso   1.00
C236   C     0.82867   0.43859   0.36827   0.00000  Uiso   1.00
C237   C     0.80373   0.43771   0.24314   0.00000  Uiso   1.00
C238   C     0.77360   0.43861   0.31806   0.00000  Uiso   1.00
C239   C     0.72028   0.43949   0.36862   0.00000  Uiso   1.00
C240   C     0.87800   0.46721   0.40410   0.00000  Uiso   1.00
C241   C     0.89453   0.49040   0.30910   0.00000  Uiso   1.00
C242   C     0.90592   0.51540   0.41418   0.00000  Uiso   1.00
C243   C     0.92918   0.56073   0.52037   0.00000  Uiso   1.00
C244   C     0.85433   0.44102   0.67231   0.00000  Uiso   1.00
C245   C     0.87255   0.41166   0.61473   0.00000  Uiso   1.00
C246   C     0.88353   0.38847   0.73471   0.00000  Uiso   1.00
C247   C     0.89968   0.36346   0.65465   0.00000  Uiso   1.00
C248   C     0.82369   0.44031   0.56136   0.00000  Uiso   1.00
C249   C     0.79359   0.44121   0.63648   0.00000  Uiso   1.00
C250   C     0.76861   0.44033   0.51151   0.00000  Uiso   1.00
C251   C     0.87302   0.46893   0.59720   0.00000  Uiso   1.00
C252   C     0.88438   0.49390   0.70245   0.00000  Uiso   1.00
C253   C     0.90092   0.51712   0.60763   0.00000  Uiso   1.00
H254   H     0.86737   0.43652   0.16645   0.00000  Uiso   1.00
H255   H     0.89752   0.38364   0.19192   0.00000  Uiso   1.00
H256   H     0.80760   0.43638   0.09372   0.00000  Uiso   1.00
H257   H     0.89838   0.48907   0.15967   0.00000  Uiso   1.00
H258   H     0.92874   0.32577   0.30532   0.00000  Uiso   1.00
H259   H     0.73913   0.43698   0.09824   0.00000  Uiso   1.00
H260   H     0.93056   0.54808   0.23731   0.00000  Uiso   1.00
H261   H     0.85045   0.44236   0.82265   0.00000  Uiso   1.00
H262   H     0.87967   0.38980   0.88414   0.00000  Uiso   1.00
H263   H     0.78974   0.44254   0.78592   0.00000  Uiso   1.00
H264   H     0.88052   0.49523   0.85188   0.00000  Uiso   1.00
H265   H     0.91424   0.33077   0.86715   0.00000  Uiso   1.00
H266   H     0.72463   0.44198   0.66006   0.00000  Uiso   1.00
H267   H     0.91606   0.55308   0.79913   0.00000  Uiso   1.00
O268   O     0.94101   0.29358   0.61483   0.00000  Uiso   1.00
O269   O     0.69225   0.43950   0.34315   0.00000  Uiso   1.00
O270   O     0.94340   0.58525   0.52560   0.00000  Uiso   1.00
N271   N     0.92132   0.33416   0.42911   0.00000  Uiso   1.00
N272   N     0.74405   0.43814   0.23550   0.00000  Uiso   1.00
N273   N     0.92301   0.54200   0.36551   0.00000  Uiso   1.00
N274   N     0.91352   0.33685   0.73143   0.00000  Uiso   1.00
N275   N     0.73625   0.44083   0.53782   0.00000  Uiso   1.00
N276   N     0.91521   0.54469   0.66783   0.00000  Uiso   1.00
C277   C     0.13650   0.56214   0.31679   0.00000  Uiso   1.00
C278   C     0.12247   0.59006   0.42163   0.00000  Uiso   1.00
C279   C     0.10633   0.61503   0.34137   0.00000  Uiso   1.00
C280   C     0.09533   0.63826   0.46120   0.00000  Uiso   1.00
C281   C     0.07279   0.68188   0.59460   0.00000  Uiso   1.00
C282   C     0.17133   0.56141   0.36827   0.00000  Uiso   1.00
C283   C     0.19627   0.56229   0.24314   0.00000  Uiso   1.00
C284   C     0.22640   0.56139   0.31806   0.00000  Uiso   1.00
C285   C     0.27972   0.56051   0.36862   0.00000  Uiso   1.00
C286   C     0.12200   0.53279   0.40410   0.00000  Uiso   1.00
C287   C     0.10547   0.50960   0.30910   0.00000  Uiso   1.00
C288   C     0.09408   0.48460   0.41418   0.00000  Uiso   1.00
C289   C     0.07082   0.43927   0.52037   0.00000  Uiso   1.00
C290   C     0.14567   0.55898   0.67231   0.00000  Uiso   1.00
C291   C     0.12745   0.58834   0.61473   0.00000  Uiso   1.00
C292   C     0.11647   0.61153   0.73471   0.00000  Uiso   1.00
C293   C     0.10032   0.63654   0.65465   0.00000  Uiso   1.00
C294   C     0.17631   0.55969   0.56136   0.00000  Uiso   1.00
C295   C     0.20641   0.55879   0.63648   0.00000  Uiso   1.00
C296   C     0.23139   0.55967   0.51151   0.00000  Uiso   1.00
C297   C     0.12698   0.53107   0.59720   0.00000  Uiso   1.00
C298   C     0.11562   0.50610   0.70245   0.00000  Uiso   1.00
C299   C     0.09908   0.48288   0.60763   0.00000  Uiso   1.00
H300   H     0.13263   0.56348   0.16645   0.00000  Uiso   1.00
H301   H     0.10248   0.61636   0.19192   0.00000  Uiso   1.00
H302   H     0.19240   0.56362   0.09372   0.00000  Uiso   1.00
H303   H     0.10162   0.51093   0.15967   0.00000  Uiso   1.00
H304   H     0.07126   0.67423   0.30532   0.00000  Uiso   1.00
H305   H     0.26087   0.56302   0.09824   0.00000  Uiso   1.00
H306   H     0.06944   0.45192   0.23731   0.00000  Uiso   1.00
H307   H     0.14955   0.55764   0.82265   0.00000  Uiso   1.00
H308   H     0.12033   0.61020   0.88414   0.00000  Uiso   1.00
H309   H     0.21026   0.55746   0.78592   0.00000  Uiso   1.00
H310   H     0.11948   0.50477   0.85188   0.00000  Uiso   1.00
H311   H     0.08576   0.66923   0.86715   0.00000  Uiso   1.00
H312   H     0.27537   0.55802   0.66006   0.00000  Uiso   1.00
H313   H     0.08394   0.44692   0.79913   0.00000  Uiso   1.00
O314   O     0.05899   0.70642   0.61483   0.00000  Uiso   1.00
O315   O     0.30775   0.56050   0.34315   0.00000  Uiso   1.00
O316   O     0.05660   0.41475   0.52560   0.00000  Uiso   1.00
N317   N     0.07868   0.66584   0.42911   0.00000  Uiso   1.00
N318   N     0.25595   0.56186   0.23550   0.00000  Uiso   1.00
N319   N     0.07699   0.45800   0.36551   0.00000  Uiso   1.00
N320   N     0.08648   0.66315   0.73143   0.00000  Uiso   1.00
N321   N     0.26375   0.55917   0.53782   0.00000  Uiso   1.00
N322   N     0.08479   0.45531   0.66783   0.00000  Uiso   1.00
C323   C     0.63650   0.06214   0.81679   0.00000  Uiso   1.00
C324   C     0.62247   0.09006   0.92163   0.00000  Uiso   1.00
C325   C     0.60633   0.11503   0.84137   0.00000  Uiso   1.00
C326   C     0.59533   0.13826   0.96120   0.00000  Uiso   1.00
C327   C     0.57279   0.18188   0.09460   0.00000  Uiso   1.00
C328   C     0.67133   0.06141   0.86827   0.00000  Uiso   1.00
C329   C     0.69627   0.06229   0.74314   0.00000  Uiso   1.00
C330   C     0.72640   0.06139   0.81806   0.00000  Uiso   1.00
C331   C     0.77972   0.06051   0.86862   0.00000  Uiso   1.00
C332   C     0.62200   0.03279   0.90410   0.00000  Uiso   1.00
C333   C     0.60547   0.00960   0.80910   0.00000  Uiso   1.00
C334   C     0.59408   0.98460   0.91418   0.00000  Uiso   1.00
C335   C     0.57082   0.93927   0.02037   0.00000  Uiso   1.00
C336   C     0.64567   0.05898   0.17231   0.00000  Uiso   1.00
C337   C     0.62745   0.08834   0.11473   0.00000  Uiso   1.00
C338   C     0.61647   0.11153   0.23471   0.00000  Uiso   1.00
C339   C     0.60032   0.13654   0.15465   0.00000  Uiso   1.00
C340   C     0.67631   0.05969   0.06136   0.00000  Uiso   1.00
C341   C     0.70641   0.05879   0.13648   0.00000  Uiso   1.00
C342   C     0.73139   0.05967   0.01151   0.00000  Uiso   1.00
C343   C     0.62698   0.03107   0.09720   0.00000  Uiso   1.00
C344   C     0.61562   0.00610   0.20245   0.00000  Uiso   1.00
C345   C     0.59908   0.98288   0.10763   0.00000  Uiso   1.00
H346   H     0.63263   0.06348   0.66645   0.00000  Uiso   1.00
H347   H     0.60248   0.11636   0.69192   0.00000  Uiso   1.00
H348   H     0.69240   0.06362   0.59372   0.00000  Uiso   1.00
H349   H     0.60162   0.01093   0.65967   0.00000  Uiso   1.00
H350   H     0.57126   0.17423   0.80532   0.00000  Uiso   1.00
H351   H     0.76087   0.06302   0.59824   0.00000  Uiso   1.00
H352   H     0.56944   0.95192   0.73731   0.00000  Uiso   1.00
H353   H     0.64955   0.05764   0.32265   0.00000  Uiso   1.00
H354   H     0.62033   0.11020   0.38414   0.00000  Uiso   1.00
H355   H     0.71026   0.05746   0.28592   0.00000  Uiso   1.00
H356   H     0.61948   0.00477   0.35188   0.00000  Uiso   1.00
H357   H     0.58576   0.16923   0.36715   0.00000  Uiso   1.00
H358   H     0.77537   0.05802   0.16006   0.00000  Uiso   1.00
H359   H     0.58394   0.94692   0.29913   0.00000  Uiso   1.00
O360   O     0.55899   0.20642   0.11483   0.00000  Uiso   1.00
O361   O     0.80775   0.06050   0.84315   0.00000  Uiso   1.00
O362   O     0.55660   0.91475   0.02560   0.00000  Uiso   1.00
N363   N     0.57868   0.16584   0.92911   0.00000  Uiso   1.00
N364   N     0.75595   0.06186   0.73550   0.00000  Uiso   1.00
N365   N     0.57699   0.95800   0.86551   0.00000  Uiso   1.00
N366   N     0.58648   0.16315   0.23143   0.00000  Uiso   1.00
N367   N     0.76375   0.05917   0.03782   0.00000  Uiso   1.00
N368   N     0.58479   0.95531   0.16783   0.00000  Uiso   1.00
C369   C     0.56214   0.86350   0.68321   0.00000  Uiso   1.00
C370   C     0.59006   0.87753   0.57837   0.00000  Uiso   1.00
C371   C     0.61503   0.89367   0.65863   0.00000  Uiso   1.00
C372   C     0.63826   0.90467   0.53880   0.00000  Uiso   1.00
C373   C     0.68188   0.92721   0.40540   0.00000  Uiso   1.00
C374   C     0.56141   0.82867   0.63173   0.00000  Uiso   1.00
C375   C     0.56229   0.80373   0.75686   0.00000  Uiso   1.00
C376   C     0.56139   0.77360   0.68194   0.00000  Uiso   1.00
C377   C     0.56051   0.72028   0.63138   0.00000  Uiso   1.00
C378   C     0.53279   0.87800   0.59590   0.00000  Uiso   1.00
C379   C     0.50960   0.89453   0.69090   0.00000  Uiso   1.00
C380   C     0.48460   0.90592   0.58582   0.00000  Uiso   1.00
C381   C     0.43927   0.92918   0.47963   0.00000  Uiso   1.00
C382   C     0.55898   0.85433   0.32769   0.00000  Uiso   1.00
C383   C     0.58834   0.87255   0.38527   0.00000  Uiso   1.00
C384   C     0.61153   0.88353   0.26529   0.00000  Uiso   1.00
C385   C     0.63654   0.89968   0.34535   0.00000  Uiso   1.00
C386   C     0.55969   0.82369   0.43864   0.00000  Uiso   1.00
C387   C     0.55879   0.79359   0.36352   0.00000  Uiso   1.00
C388   C     0.55967   0.76861   0.48849   0.00000  Uiso   1.00
C389   C     0.53107   0.87302   0.40280   0.00000  Uiso   1.00
C390   C     0.50610   0.88438   0.29755   0.00000  Uiso   1.00
C391   C     0.48288   0.90092   0.39237   0.00000  Uiso   1.00
H392   H     0.56348   0.86737   0.83355   0.00000  Uiso   1.00
H393   H     0.61636   0.89752   0.80808   0.00000  Uiso   1.00
H394   H     0.56362   0.80760   0.90628   0.00000  Uiso   1.00
H395   H     0.51093   0.89838   0.84033   0.00000  Uiso   1.00
H396   H     0.67423   0.92874   0.69468   0.00000  Uiso   1.00
H397   H     0.56302   0.73913   0.90176   0.00000  Uiso   1.00
H398   H     0.45192   0.93056   0.76269   0.00000  Uiso   1.00
H399   H     0.55764   0.85045   0.17735   0.00000  Uiso   1.00
H400   H     0.61020   0.87967   0.11586   0.00000  Uiso   1.00
H401   H     0.55746   0.78974   0.21408   0.00000  Uiso   1.00
H402   H     0.50477   0.88052   0.14812   0.00000  Uiso   1.00
H403   H     0.66923   0.91424   0.13285   0.00000  Uiso   1.00
H404   H     0.55802   0.72463   0.33994   0.00000  Uiso   1.00
H405   H     0.44692   0.91606   0.20087   0.00000  Uiso   1.00
O406   O     0.70642   0.94101   0.38517   0.00000  Uiso   1.00
O407   O     0.56050   0.69225   0.65685   0.00000  Uiso   1.00
O408   O     0.41475   0.94340   0.47440   0.00000  Uiso   1.00
N409   N     0.66584   0.92132   0.57089   0.00000  Uiso   1.00
N410   N     0.56186   0.74405   0.76450   0.00000  Uiso   1.00
N411   N     0.45800   0.92301   0.63449   0.00000  Uiso   1.00
N412   N     0.66315   0.91352   0.26857   0.00000  Uiso   1.00
N413   N     0.55917   0.73625   0.46218   0.00000  Uiso   1.00
N414   N     0.45531   0.91521   0.33217   0.00000  Uiso   1.00
C415   C     0.06214   0.36350   0.18321   0.00000  Uiso   1.00
C416   C     0.09006   0.37753   0.07837   0.00000  Uiso   1.00
C417   C     0.11503   0.39367   0.15863   0.00000  Uiso   1.00
C418   C     0.13826   0.40467   0.03880   0.00000  Uiso   1.00
C419   C     0.18188   0.42721   0.90540   0.00000  Uiso   1.00
C420   C     0.06141   0.32867   0.13173   0.00000  Uiso   1.00
C421   C     0.06229   0.30373   0.25686   0.00000  Uiso   1.00
C422   C     0.06139   0.27360   0.18194   0.00000  Uiso   1.00
C423   C     0.06051   0.22028   0.13138   0.00000  Uiso   1.00
C424   C     0.03279   0.37800   0.09590   0.00000  Uiso   1.00
C425   C     0.00960   0.39453   0.19090   0.00000  Uiso   1.00
C426   C     0.98460   0.40592   0.08582   0.00000  Uiso   1.00
C427   C     0.93927   0.42918   0.97963   0.00000  Uiso   1.00
C428   C     0.05898   0.35433   0.82769   0.00000  Uiso   1.00
C429   C     0.08834   0.37255   0.88527   0.00000  Uiso   1.00
C430   C     0.11153   0.38353   0.76529   0.00000  Uiso   1.00
C431   C     0.13654   0.39968   0.84535   0.00000  Uiso   1.00
C432   C     0.05969   0.32369   0.93864   0.00000  Uiso   1.00
C433   C     0.05879   0.29359   0.86352   0.00000  Uiso   1.00
C434   C     0.05967   0.26861   0.98849   0.00000  Uiso   1.00
C435   C     0.03107   0.37302   0.90280   0.00000  Uiso   1.00
C436   C     0.00610   0.38438   0.79755   0.00000  Uiso   1.00
C437   C     0.98288   0.40092   0.89237   0.00000  Uiso   1.00
H438   H     0.06348   0.36737   0.33355   0.00000  Uiso   1.00
H439   H     0.11636   0.39752   0.30808   0.00000  Uiso   1.00
H440   H     0.06362   0.30760   0.40628   0.00000  Uiso   1.00
H441   H     0.01093   0.39838   0.34033   0.00000  Uiso   1.00
H442   H     0.17423   0.42874   0.19468   0.00000  Uiso   1.00
H443   H     0.06302   0.23913   0.40176   0.00000  Uiso   1.00
H444   H     0.95192   0.43056   0.26269   0.00000  Uiso   1.00
H445   H     0.05764   0.35045   0.67735   0.00000  Uiso   1.00
H446   H     0.11020   0.37967   0.61586   0.00000  Uiso   1.00
H447   H     0.05746   0.28974   0.71408   0.00000  Uiso   1.00
H448   H     0.00477   0.38052   0.64812   0.00000  Uiso   1.00
H449   H     0.16923   0.41424   0.63285   0.00000  Uiso   1.00
H450   H     0.05802   0.22463   0.83994   0.00000  Uiso   1.00
H451   H     0.94692   0.41606   0.70087   0.00000  Uiso   1.00
O452   O     0.20642   0.44101   0.88517   0.00000  Uiso   1.00
O453   O     0.06050   0.19225   0.15685   0.00000  Uiso   1.00
O454   O     0.91475   0.44340   0.97440   0.00000  Uiso   1.00
N455   N     0.16584   0.42132   0.07089   0.00000  Uiso   1.00
N456   N     0.06186   0.24405   0.26450   0.00000  Uiso   1.00
N457   N     0.95800   0.42301   0.13449   0.00000  Uiso   1.00
N458   N     0.16315   0.41352   0.76857   0.00000  Uiso   1.00
N459   N     0.05917   0.23625   0.96218   0.00000  Uiso   1.00
N460   N     0.95531   0.41521   0.83217   0.00000  Uiso   1.00
C461   C     0.93786   0.63650   0.18321   0.00000  Uiso   1.00
C462   C     0.90994   0.62247   0.07837   0.00000  Uiso   1.00
C463   C     0.88497   0.60633   0.15863   0.00000  Uiso   1.00
C464   C     0.86174   0.59533   0.03880   0.00000  Uiso   1.00
C465   C     0.81812   0.57279   0.90540   0.00000  Uiso   1.00
C466   C     0.93859   0.67133   0.13173   0.00000  Uiso   1.00
C467   C     0.93771   0.69627   0.25686   0.00000  Uiso   1.00
C468   C     0.93861   0.72640   0.18194   0.00000  Uiso   1.00
C469   C     0.93949   0.77972   0.13138   0.00000  Uiso   1.00
C470   C     0.96721   0.62200   0.09590   0.00000  Uiso   1.00
C471   C     0.99040   0.60547   0.19090   0.00000  Uiso   1.00
C472   C     0.01540   0.59408   0.08582   0.00000  Uiso   1.00
C473   C     0.06073   0.57082   0.97963   0.00000  Uiso   1.00
C474   C     0.94102   0.64567   0.82769   0.00000  Uiso   1.00
C475   C     0.91166   0.62745   0.88527   0.00000  Uiso   1.00
C476   C     0.88847   0.61647   0.76529   0.00000  Uiso   1.00
C477   C     0.86346   0.60032   0.84535   0.00000  Uiso   1.00
C478   C     0.94031   0.67631   0.93864   0.00000  Uiso   1.00
C479   C     0.94121   0.70641   0.86352   0.00000  Uiso   1.00
C480   C     0.94033   0.73139   0.98849   0.00000  Uiso   1.00
C481   C     0.96893   0.62698   0.90280   0.00000  Uiso   1.00
C482   C     0.99390   0.61562   0.79755   0.00000  Uiso   1.00
C483   C     0.01712   0.59908   0.89237   0.00000  Uiso   1.00
H484   H     0.93652   0.63263   0.33355   0.00000  Uiso   1.00
H485   H     0.88364   0.60248   0.30808   0.00000  Uiso   1.00
H486   H     0.93638   0.69240   0.40628   0.00000  Uiso   1.00
H487   H     0.98907   0.60162   0.34033   0.00000  Uiso   1.00
H488   H     0.82577   0.57126   0.19468   0.00000  Uiso   1.00
H489   H     0.93698   0.76087   0.40176   0.00000  Uiso   1.00
H490   H     0.04808   0.56944   0.26269   0.00000  Uiso   1.00
H491   H     0.94236   0.64955   0.67735   0.00000  Uiso   1.00
H492   H     0.88980   0.62033   0.61586   0.00000  Uiso   1.00
H493   H     0.94254   0.71026   0.71408   0.00000  Uiso   1.00
H494   H     0.99523   0.61948   0.64812   0.00000  Uiso   1.00
H495   H     0.83077   0.58576   0.63285   0.00000  Uiso   1.00
H496   H     0.94198   0.77537   0.83994   0.00000  Uiso   1.00
H497   H     0.05308   0.58394   0.70087   0.00000  Uiso   1.00
O498   O     0.79358   0.55899   0.88517   0.00000  Uiso   1.00
O499   O     0.93950   0.80775   0.15685   0.00000  Uiso   1.00
O500   O     0.08525   0.55660   0.97440   0.00000  Uiso   1.00
N501   N     0.83416   0.57868   0.07089   0.00000  Uiso   1.00
N502   N     0.93814   0.75595   0.26450   0.00000  Uiso   1.00
N503   N     0.04200   0.57699   0.13449   0.00000  Uiso   1.00
N504   N     0.83685   0.58648   0.76857   0.00000  Uiso   1.00
N505   N     0.94083   0.76375   0.96218   0.00000  Uiso   1.00
N506   N     0.04469   0.58479   0.83217   0.00000  Uiso   1.00
C507   C     0.43786   0.13650   0.68321   0.00000  Uiso   1.00
C508   C     0.40994   0.12247   0.57837   0.00000  Uiso   1.00
C509   C     0.38497   0.10633   0.65863   0.00000  Uiso   1.00
C510   C     0.36174   0.09533   0.53880   0.00000  Uiso   1.00
C511   C     0.31812   0.07279   0.40540   0.00000  Uiso   1.00
C512   C     0.43859   0.17133   0.63173   0.00000  Uiso   1.00
C513   C     0.43771   0.19627   0.75686   0.00000  Uiso   1.00
C514   C     0.43861   0.22640   0.68194   0.00000  Uiso   1.00
C515   C     0.43949   0.27972   0.63138   0.00000  Uiso   1.00
C516   C     0.46721   0.12200   0.59590   0.00000  Uiso   1.00
C517   C     0.49040   0.10547   0.69090   0.00000  Uiso   1.00
C518   C     0.51540   0.09408   0.58582   0.00000  Uiso   1.00
C519   C     0.56073   0.07082   0.47963   0.00000  Uiso   1.00
C520   C     0.44102   0.14567   0.32769   0.00000  Uiso   1.00
C521   C     0.41166   0.12745   0.38527   0.00000  Uiso   1.00
C522   C     0.38847   0.11647   0.26529   0.00000  Uiso   1.00
C523   C     0.36346   0.10032   0.34535   0.00000  Uiso   1.00
C524   C     0.44031   0.17631   0.43864   0.00000  Uiso   1.00
C525   C     0.44121   0.20641   0.36352   0.00000  Uiso   1.00
C526   C     0.44033   0.23139   0.48849   0.00000  Uiso   1.00
C527   C     0.46893   0.12698   0.40280   0.00000  Uiso   1.00
C528   C     0.49390   0.11562   0.29755   0.00000  Uiso   1.00
C529   C     0.51712   0.09908   0.39237   0.00000  Uiso   1.00
H530   H     0.43652   0.13263   0.83355   0.00000  Uiso   1.00
H531   H     0.38364   0.10248   0.80808   0.00000  Uiso   1.00
H532   H     0.43638   0.19240   0.90628   0.00000  Uiso   1.00
H533   H     0.48907   0.10162   0.84033   0.00000  Uiso   1.00
H534   H     0.32577   0.07126   0.69468   0.00000  Uiso   1.00
H535   H     0.43698   0.26087   0.90176   0.00000  Uiso   1.00
H536   H     0.54808   0.06944   0.76269   0.00000  Uiso   1.00
H537   H     0.44236   0.14955   0.17735   0.00000  Uiso   1.00
H538   H     0.38980   0.12033   0.11586   0.00000  Uiso   1.00
H539   H     0.44254   0.21026   0.21408   0.00000  Uiso   1.00
H540   H     0.49523   0.11948   0.14812   0.00000  Uiso   1.00
H541   H     0.33077   0.08576   0.13285   0.00000  Uiso   1.00
H542   H     0.44198   0.27537   0.33994   0.00000  Uiso   1.00
H543   H     0.55308   0.08394   0.20087   0.00000  Uiso   1.00
O544   O     0.29358   0.05899   0.38517   0.00000  Uiso   1.00
O545   O     0.43950   0.30775   0.65685   0.00000  Uiso   1.00
O546   O     0.58525   0.05660   0.47440   0.00000  Uiso   1.00
N547   N     0.33416   0.07868   0.57089   0.00000  Uiso   1.00
N548   N     0.43814   0.25595   0.76450   0.00000  Uiso   1.00
N549   N     0.54200   0.07699   0.63449   0.00000  Uiso   1.00
N550   N     0.33685   0.08648   0.26857   0.00000  Uiso   1.00
N551   N     0.44083   0.26375   0.46218   0.00000  Uiso   1.00
N552   N     0.54469   0.08479   0.33217   0.00000  Uiso   1.00
C553   C     0.63650   0.56214   0.43321   0.00000  Uiso   1.00
C554   C     0.62247   0.59006   0.32837   0.00000  Uiso   1.00
C555   C     0.60633   0.61503   0.40863   0.00000  Uiso   1.00
C556   C     0.59533   0.63826   0.28880   0.00000  Uiso   1.00
C557   C     0.57279   0.68188   0.15540   0.00000  Uiso   1.00
C558   C     0.67133   0.56141   0.38173   0.00000  Uiso   1.00
C559   C     0.69627   0.56229   0.50686   0.00000  Uiso   1.00
C560   C     0.72640   0.56139   0.43194   0.00000  Uiso   1.00
C561   C     0.77972   0.56051   0.38138   0.00000  Uiso   1.00
C562   C     0.62200   0.53279   0.34590   0.00000  Uiso   1.00
C563   C     0.60547   0.50960   0.44090   0.00000  Uiso   1.00
C564   C     0.59408   0.48460   0.33582   0.00000  Uiso   1.00
C565   C     0.57082   0.43927   0.22963   0.00000  Uiso   1.00
C566   C     0.64567   0.55898   0.07769   0.00000  Uiso   1.00
C567   C     0.62745   0.58834   0.13527   0.00000  Uiso   1.00
C568   C     0.61647   0.61153   0.01529   0.00000  Uiso   1.00
C569   C     0.60032   0.63654   0.09535   0.00000  Uiso   1.00
C570   C     0.67631   0.55969   0.18864   0.00000  Uiso   1.00
C571   C     0.70641   0.55879   0.11352   0.00000  Uiso   1.00
C572   C     0.73139   0.55967   0.23849   0.00000  Uiso   1.00
C573   C     0.62698   0.53107   0.15280   0.00000  Uiso   1.00
C574   C     0.61562   0.50610   0.04755   0.00000  Uiso   1.00
C575   C     0.59908   0.48288   0.14237   0.00000  Uiso   1.00
H576   H     0.63263   0.56348   0.58355   0.00000  Uiso   1.00
H577   H     0.60248   0.61636   0.55808   0.00000  Uiso   1.00
H578   H     0.69240   0.56362   0.65628   0.00000  Uiso   1.00
H579   H     0.60162   0.51093   0.59033   0.00000  Uiso   1.00
H580   H     0.57126   0.67423   0.44468   0.00000  Uiso   1.00
H581   H     0.76087   0.56302   0.65176   0.00000  Uiso   1.00
H582   H     0.56944   0.45192   0.51269   0.00000  Uiso   1.00
H583   H     0.64955   0.55764   0.92735   0.00000  Uiso   1.00
H584   H     0.62033   0.61020   0.86586   0.00000  Uiso   1.00
H585   H     0.71026   0.55746   0.96408   0.00000  Uiso   1.00
H586   H     0.61948   0.50477   0.89812   0.00000  Uiso   1.00
H587   H     0.58576   0.66923   0.88285   0.00000  Uiso   1.00
H588   H     0.77537   0.55802   0.08994   0.00000  Uiso   1.00
H589   H     0.58394   0.44692   0.95087   0.00000  Uiso   1.00
O590   O     0.55899   0.70642   0.13517   0.00000  Uiso   1.00
O591   O     0.80775   0.56050   0.40685   0.00000  Uiso   1.00
O592   O     0.55660   0.41475   0.22440   0.00000  Uiso   1.00
N593   N     0.57868   0.66584   0.32089   0.00000  Uiso   1.00
N594   N     0.75595   0.56186   0.51450   0.00000  Uiso   1.00
N595   N     0.57699   0.45800   0.38449   0.00000  Uiso   1.00
N596   N     0.58648   0.66315   0.01857   0.00000  Uiso   1.00
N597   N     0.76375   0.55917   0.21218   0.00000  Uiso   1.00
N598   N     0.58479   0.45531   0.08217   0.00000  Uiso   1.00
C599   C     0.13650   0.06214   0.93321   0.00000  Uiso   1.00
C600   C     0.12247   0.09006   0.82837   0.00000  Uiso   1.00
C601   C     0.10633   0.11503   0.90863   0.00000  Uiso   1.00
C602   C     0.09533   0.13826   0.78880   0.00000  Uiso   1.00
C603   C     0.07279   0.18188   0.65540   0.00000  Uiso   1.00
C604   C     0.17133   0.06141   0.88173   0.00000  Uiso   1.00
C605   C     0.19627   0.06229   0.00686   0.00000  Uiso   1.00
C606   C     0.22640   0.06139   0.93194   0.00000  Uiso   1.00
C607   C     0.27972   0.06051   0.88138   0.00000  Uiso   1.00
C608   C     0.12200   0.03279   0.84590   0.00000  Uiso   1.00
C609   C     0.10547   0.00960   0.94090   0.00000  Uiso   1.00
C610   C     0.09408   0.98460   0.83582   0.00000  Uiso   1.00
C611   C     0.07082   0.93927   0.72963   0.00000  Uiso   1.00
C612   C     0.14567   0.05898   0.57769   0.00000  Uiso   1.00
C613   C     0.12745   0.08834   0.63527   0.00000  Uiso   1.00
C614   C     0.11647   0.11153   0.51529   0.00000  Uiso   1.00
C615   C     0.10032   0.13654   0.59535   0.00000  Uiso   1.00
C616   C     0.17631   0.05969   0.68864   0.00000  Uiso   1.00
C617   C     0.20641   0.05879   0.61352   0.00000  Uiso   1.00
C618   C     0.23139   0.05967   0.73849   0.00000  Uiso   1.00
C619   C     0.12698   0.03107   0.65280   0.00000  Uiso   1.00
C620   C     0.11562   0.00610   0.54755   0.00000  Uiso   1.00
C621   C     0.09908   0.98288   0.64237   0.00000  Uiso   1.00
H622   H     0.13263   0.06348   0.08355   0.00000  Uiso   1.00
H623   H     0.10248   0.11636   0.05808   0.00000  Uiso   1.00
H624   H     0.19240   0.06362   0.15628   0.00000  Uiso   1.00
H625   H     0.10162   0.01093   0.09033   0.00000  Uiso   1.00
H626   H     0.07126   0.17423   0.94468   0.00000  Uiso   1.00
H627   H     0.26087   0.06302   0.15176   0.00000  Uiso   1.00
H628   H     0.06944   0.95192   0.01269   0.00000  Uiso   1.00
H629   H     0.14955   0.05764   0.42735   0.00000  Uiso   1.00
H630   H     0.12033   0.11020   0.36586   0.00000  Uiso   1.00
H631   H     0.21026   0.05746   0.46408   0.00000  Uiso   1.00
H632   H     0.11948   0.00477   0.39812   0.00000  Uiso   1.00
H633   H     0.08576   0.16923   0.38285   0.00000  Uiso   1.00
H634   H     0.27537   0.05802   0.58994   0.00000  Uiso   1.00
H635   H     0.08394   0.94692   0.45087   0.00000  Uiso   1.00
O636   O     0.05899   0.20642   0.63517   0.00000  Uiso   1.00
O637   O     0.30775   0.06050   0.90685   0.00000  Uiso   1.00
O638   O     0.05660   0.91475   0.72440   0.00000  Uiso   1.00
N639   N     0.07868   0.16584   0.82089   0.00000  Uiso   1.00
N640   N     0.25595   0.06186   0.01450   0.00000  Uiso   1.00
N641   N     0.07699   0.95800   0.88449   0.00000  Uiso   1.00
N642   N     0.08648   0.16315   0.51857   0.00000  Uiso   1.00
N643   N     0.26375   0.05917   0.71218   0.00000  Uiso   1.00
N644   N     0.08479   0.95531   0.58217   0.00000  Uiso   1.00
C645   C     0.86350   0.93786   0.93321   0.00000  Uiso   1.00
C646   C     0.87753   0.90994   0.82837   0.00000  Uiso   1.00
C647   C     0.89367   0.88497   0.90863   0.00000  Uiso   1.00
C648   C     0.90467   0.86174   0.78880   0.00000  Uiso   1.00
C649   C     0.92721   0.81812   0.65540   0.00000  Uiso   1.00
C650   C     0.82867   0.93859   0.88173   0.00000  Uiso   1.00
C651   C     0.80373   0.93771   0.00686   0.00000  Uiso   1.00
C652   C     0.77360   0.93861   0.93194   0.00000  Uiso   1.00
C653   C     0.72028   0.93949   0.88138   0.00000  Uiso   1.00
C654   C     0.87800   0.96721   0.84590   0.00000  Uiso   1.00
C655   C     0.89453   0.99040   0.94090   0.00000  Uiso   1.00
C656   C     0.90592   0.01540   0.83582   0.00000  Uiso   1.00
C657   C     0.92918   0.06073   0.72963   0.00000  Uiso   1.00
C658   C     0.85433   0.94102   0.57769   0.00000  Uiso   1.00
C659   C     0.87255   0.91166   0.63527   0.00000  Uiso   1.00
C660   C     0.88353   0.88847   0.51529   0.00000  Uiso   1.00
C661   C     0.89968   0.86346   0.59535   0.00000  Uiso   1.00
C662   C     0.82369   0.94031   0.68864   0.00000  Uiso   1.00
C663   C     0.79359   0.94121   0.61352   0.00000  Uiso   1.00
C664   C     0.76861   0.94033   0.73849   0.00000  Uiso   1.00
C665   C     0.87302   0.96893   0.65280   0.00000  Uiso   1.00
C666   C     0.88438   0.99390   0.54755   0.00000  Uiso   1.00
C667   C     0.90092   0.01712   0.64237   0.00000  Uiso   1.00
H668   H     0.86737   0.93652   0.08355   0.00000  Uiso   1.00
H669   H     0.89752   0.88364   0.05808   0.00000  Uiso   1.00
H670   H     0.80760   0.93638   0.15628   0.00000  Uiso   1.00
H671   H     0.89838   0.98907   0.09033   0.00000  Uiso   1.00
H672   H     0.92874   0.82577   0.94468   0.00000  Uiso   1.00
H673   H     0.73913   0.93698   0.15176   0.00000  Uiso   1.00
H674   H     0.93056   0.04808   0.01269   0.00000  Uiso   1.00
H675   H     0.85045   0.94236   0.42735   0.00000  Uiso   1.00
H676   H     0.87967   0.88980   0.36586   0.00000  Uiso   1.00
H677   H     0.78974   0.94254   0.46408   0.00000  Uiso   1.00
H678   H     0.88052   0.99523   0.39812   0.00000  Uiso   1.00
H679   H     0.91424   0.83077   0.38285   0.00000  Uiso   1.00
H680   H     0.72463   0.94198   0.58994   0.00000  Uiso   1.00
H681   H     0.91606   0.05308   0.45087   0.00000  Uiso   1.00
O682   O     0.94101   0.79358   0.63517   0.00000  Uiso   1.00
O683   O     0.69225   0.93950   0.90685   0.00000  Uiso   1.00
O684   O     0.94340   0.08525   0.72440   0.00000  Uiso   1.00
N685   N     0.92132   0.83416   0.82089   0.00000  Uiso   1.00
N686   N     0.74405   0.93814   0.01450   0.00000  Uiso   1.00
N687   N     0.92301   0.04200   0.88449   0.00000  Uiso   1.00
N688   N     0.91352   0.83685   0.51857   0.00000  Uiso   1.00
N689   N     0.73625   0.94083   0.71218   0.00000  Uiso   1.00
N690   N     0.91521   0.04469   0.58217   0.00000  Uiso   1.00
C691   C     0.36350   0.43786   0.43321   0.00000  Uiso   1.00
C692   C     0.37753   0.40994   0.32837   0.00000  Uiso   1.00
C693   C     0.39367   0.38497   0.40863   0.00000  Uiso   1.00
C694   C     0.40467   0.36174   0.28880   0.00000  Uiso   1.00
C695   C     0.42721   0.31812   0.15540   0.00000  Uiso   1.00
C696   C     0.32867   0.43859   0.38173   0.00000  Uiso   1.00
C697   C     0.30373   0.43771   0.50686   0.00000  Uiso   1.00
C698   C     0.27360   0.43861   0.43194   0.00000  Uiso   1.00
C699   C     0.22028   0.43949   0.38138   0.00000  Uiso   1.00
C700   C     0.37800   0.46721   0.34590   0.00000  Uiso   1.00
C701   C     0.39453   0.49040   0.44090   0.00000  Uiso   1.00
C702   C     0.40592   0.51540   0.33582   0.00000  Uiso   1.00
C703   C     0.42918   0.56073   0.22963   0.00000  Uiso   1.00
C704   C     0.35433   0.44102   0.07769   0.00000  Uiso   1.00
C705   C     0.37255   0.41166   0.13527   0.00000  Uiso   1.00
C706   C     0.38353   0.38847   0.01529   0.00000  Uiso   1.00
C707   C     0.39968   0.36346   0.09535   0.00000  Uiso   1.00
C708   C     0.32369   0.44031   0.18864   0.00000  Uiso   1.00
C709   C     0.29359   0.44121   0.11352   0.00000  Uiso   1.00
C710   C     0.26861   0.44033   0.23849   0.00000  Uiso   1.00
C711   C     0.37302   0.46893   0.15280   0.00000  Uiso   1.00
C712   C     0.38438   0.49390   0.04755   0.00000  Uiso   1.00
C713   C     0.40092   0.51712   0.14237   0.00000  Uiso   1.00
H714   H     0.36737   0.43652   0.58355   0.00000  Uiso   1.00
H715   H     0.39752   0.38364   0.55808   0.00000  Uiso   1.00
H716   H     0.30760   0.43638   0.65628   0.00000  Uiso   1.00
H717   H     0.39838   0.48907   0.59033   0.00000  Uiso   1.00
H718   H     0.42874   0.32577   0.44468   0.00000  Uiso   1.00
H719   H     0.23913   0.43698   0.65176   0.00000  Uiso   1.00
H720   H     0.43056   0.54808   0.51269   0.00000  Uiso   1.00
H721   H     0.35045   0.44236   0.92735   0.00000  Uiso   1.00
H722   H     0.37967   0.38980   0.86586   0.00000  Uiso   1.00
H723   H     0.28974   0.44254   0.96408   0.00000  Uiso   1.00
H724   H     0.38052   0.49523   0.89812   0.00000  Uiso   1.00
H725   H     0.41424   0.33077   0.88285   0.00000  Uiso   1.00
H726   H     0.22463   0.44198   0.08994   0.00000  Uiso   1.00
H727   H     0.41606   0.55308   0.95087   0.00000  Uiso   1.00
O728   O     0.44101   0.29358   0.13517   0.00000  Uiso   1.00
O729   O     0.19225   0.43950   0.40685   0.00000  Uiso   1.00
O730   O     0.44340   0.58525   0.22440   0.00000  Uiso   1.00
N731   N     0.42132   0.33416   0.32089   0.00000  Uiso   1.00
N732   N     0.24405   0.43814   0.51450   0.00000  Uiso   1.00
N733   N     0.42301   0.54200   0.38449   0.00000  Uiso   1.00
N734   N     0.41352   0.33685   0.01857   0.00000  Uiso   1.00
N735   N     0.23625   0.44083   0.21218   0.00000  Uiso   1.00
N736   N     0.41521   0.54469   0.08217   0.00000  Uiso   1.00
