data_job_05513
_audit_creation_date              2018-12-19
_audit_creation_method            'Materials Studio'
_symmetry_space_group_name_H-M    'P1'
_symmetry_Int_Tables_number       1
_symmetry_cell_setting            triclinic
loop_
_symmetry_equiv_pos_as_xyz
  x,y,z
_cell_length_a                    36.3572
_cell_length_b                    14.2337
_cell_length_c                    22.2922
_cell_angle_alpha                 90.0000
_cell_angle_beta                  90.0000
_cell_angle_gamma                 90.0000
loop_
_atom_site_label
_atom_site_type_symbol
_atom_site_fract_x
_atom_site_fract_y
_atom_site_fract_z
_atom_site_U_iso_or_equiv
_atom_site_adp_type
_atom_site_occupancy
C1     C     0.37928   0.27554   0.37663   0.00000  Uiso   1.00
C2     C     0.36026   0.18329   0.36090   0.00000  Uiso   1.00
C3     C     0.32402   0.17369   0.34230   0.00000  Uiso   1.00
C4     C     0.31180   0.08328   0.33007   0.00000  Uiso   1.00
C5     C     0.27873   0.95189   0.30473   0.00000  Uiso   1.00
C6     C     0.39374   0.26377   0.44040   0.00000  Uiso   1.00
C7     C     0.38567   0.32184   0.48865   0.00000  Uiso   1.00
C8     C     0.40164   0.29919   0.54334   0.00000  Uiso   1.00
C9     C     0.42058   0.29278   0.64142   0.00000  Uiso   1.00
C10    C     0.41311   0.28125   0.33638   0.00000  Uiso   1.00
C11    C     0.42133   0.35402   0.29717   0.00000  Uiso   1.00
C12    C     0.45362   0.34609   0.26430   0.00000  Uiso   1.00
C13    C     0.50264   0.36681   0.20087   0.00000  Uiso   1.00
C14    C     0.42201   0.13207   0.38798   0.00000  Uiso   1.00
C15    C     0.38347   0.10537   0.36706   0.00000  Uiso   1.00
C16    C     0.37130   0.01495   0.35485   0.00000  Uiso   1.00
C17    C     0.33505   0.00521   0.33624   0.00000  Uiso   1.00
C18    C     0.41695   0.18585   0.44656   0.00000  Uiso   1.00
C19    C     0.43294   0.16311   0.50120   0.00000  Uiso   1.00
C20    C     0.42489   0.22112   0.54951   0.00000  Uiso   1.00
C21    C     0.43632   0.20332   0.34254   0.00000  Uiso   1.00
C22    C     0.46861   0.19528   0.30972   0.00000  Uiso   1.00
C23    C     0.47687   0.26802   0.27047   0.00000  Uiso   1.00
H24    H     0.36121   0.33622   0.37184   0.00000  Uiso   1.00
H25    H     0.30607   0.23401   0.33755   0.00000  Uiso   1.00
H26    H     0.36771   0.38215   0.48386   0.00000  Uiso   1.00
H27    H     0.40337   0.41431   0.29242   0.00000  Uiso   1.00
H28    H     0.25517   0.08633   0.30226   0.00000  Uiso   1.00
H29    H     0.38515   0.39870   0.61078   0.00000  Uiso   1.00
H30    H     0.46034   0.46653   0.20708   0.00000  Uiso   1.00
H31    H     0.44008   0.07140   0.39277   0.00000  Uiso   1.00
H32    H     0.38926   0.95466   0.35963   0.00000  Uiso   1.00
H33    H     0.45090   0.10280   0.50595   0.00000  Uiso   1.00
H34    H     0.48656   0.13496   0.31450   0.00000  Uiso   1.00
H35    H     0.32269   0.85959   0.32019   0.00000  Uiso   1.00
H36    H     0.45267   0.17197   0.62870   0.00000  Uiso   1.00
H37    H     0.52786   0.23980   0.22500   0.00000  Uiso   1.00
O38    O     0.25408   0.90094   0.28906   0.00000  Uiso   1.00
O39    O     0.42461   0.31077   0.69382   0.00000  Uiso   1.00
O40    O     0.52326   0.39976   0.16417   0.00000  Uiso   1.00
N41    N     0.27804   0.04899   0.31102   0.00000  Uiso   1.00
N42    N     0.39955   0.34103   0.59947   0.00000  Uiso   1.00
N43    N     0.46986   0.40446   0.22205   0.00000  Uiso   1.00
N44    N     0.31437   0.92699   0.32066   0.00000  Uiso   1.00
N45    N     0.43589   0.21903   0.60911   0.00000  Uiso   1.00
N46    N     0.50619   0.28245   0.23169   0.00000  Uiso   1.00
C47    C     0.37928   0.77554   0.87663   0.00000  Uiso   1.00
C48    C     0.36026   0.68329   0.86090   0.00000  Uiso   1.00
C49    C     0.32402   0.67369   0.84230   0.00000  Uiso   1.00
C50    C     0.31180   0.58328   0.83007   0.00000  Uiso   1.00
C51    C     0.27873   0.45189   0.80473   0.00000  Uiso   1.00
C52    C     0.39374   0.76377   0.94040   0.00000  Uiso   1.00
C53    C     0.38567   0.82184   0.98865   0.00000  Uiso   1.00
C54    C     0.40164   0.79919   0.04334   0.00000  Uiso   1.00
C55    C     0.42058   0.79278   0.14142   0.00000  Uiso   1.00
C56    C     0.41311   0.78125   0.83638   0.00000  Uiso   1.00
C57    C     0.42133   0.85402   0.79717   0.00000  Uiso   1.00
C58    C     0.45362   0.84609   0.76430   0.00000  Uiso   1.00
C59    C     0.50264   0.86681   0.70087   0.00000  Uiso   1.00
C60    C     0.42201   0.63207   0.88798   0.00000  Uiso   1.00
C61    C     0.38347   0.60537   0.86706   0.00000  Uiso   1.00
C62    C     0.37130   0.51495   0.85485   0.00000  Uiso   1.00
C63    C     0.33505   0.50521   0.83624   0.00000  Uiso   1.00
C64    C     0.41695   0.68585   0.94656   0.00000  Uiso   1.00
C65    C     0.43294   0.66311   0.00120   0.00000  Uiso   1.00
C66    C     0.42489   0.72112   0.04951   0.00000  Uiso   1.00
C67    C     0.43632   0.70332   0.84254   0.00000  Uiso   1.00
C68    C     0.46861   0.69528   0.80972   0.00000  Uiso   1.00
C69    C     0.47687   0.76802   0.77047   0.00000  Uiso   1.00
H70    H     0.36121   0.83622   0.87184   0.00000  Uiso   1.00
H71    H     0.30607   0.73401   0.83755   0.00000  Uiso   1.00
H72    H     0.36771   0.88215   0.98386   0.00000  Uiso   1.00
H73    H     0.40337   0.91431   0.79242   0.00000  Uiso   1.00
H74    H     0.25517   0.58633   0.80226   0.00000  Uiso   1.00
H75    H     0.38515   0.89870   0.11078   0.00000  Uiso   1.00
H76    H     0.46034   0.96653   0.70708   0.00000  Uiso   1.00
H77    H     0.44008   0.57140   0.89277   0.00000  Uiso   1.00
H78    H     0.38926   0.45466   0.85963   0.00000  Uiso   1.00
H79    H     0.45090   0.60280   0.00595   0.00000  Uiso   1.00
H80    H     0.48656   0.63496   0.81450   0.00000  Uiso   1.00
H81    H     0.32269   0.35959   0.82019   0.00000  Uiso   1.00
H82    H     0.45267   0.67197   0.12870   0.00000  Uiso   1.00
H83    H     0.52786   0.73980   0.72500   0.00000  Uiso   1.00
O84    O     0.25408   0.40094   0.78906   0.00000  Uiso   1.00
O85    O     0.42461   0.81077   0.19382   0.00000  Uiso   1.00
O86    O     0.52326   0.89976   0.66417   0.00000  Uiso   1.00
N87    N     0.27804   0.54899   0.81102   0.00000  Uiso   1.00
N88    N     0.39955   0.84103   0.09947   0.00000  Uiso   1.00
N89    N     0.46986   0.90446   0.72205   0.00000  Uiso   1.00
N90    N     0.31437   0.42699   0.82066   0.00000  Uiso   1.00
N91    N     0.43589   0.71903   0.10911   0.00000  Uiso   1.00
N92    N     0.50619   0.78245   0.73169   0.00000  Uiso   1.00
C93    C     0.87928   0.27554   0.87663   0.00000  Uiso   1.00
C94    C     0.86026   0.18329   0.86090   0.00000  Uiso   1.00
C95    C     0.82402   0.17369   0.84230   0.00000  Uiso   1.00
C96    C     0.81180   0.08328   0.83007   0.00000  Uiso   1.00
C97    C     0.77873   0.95189   0.80473   0.00000  Uiso   1.00
C98    C     0.89374   0.26377   0.94040   0.00000  Uiso   1.00
C99    C     0.88567   0.32184   0.98865   0.00000  Uiso   1.00
C100   C     0.90164   0.29919   0.04334   0.00000  Uiso   1.00
C101   C     0.92058   0.29278   0.14142   0.00000  Uiso   1.00
C102   C     0.91311   0.28125   0.83638   0.00000  Uiso   1.00
C103   C     0.92133   0.35402   0.79717   0.00000  Uiso   1.00
C104   C     0.95362   0.34609   0.76430   0.00000  Uiso   1.00
C105   C     0.00264   0.36681   0.70087   0.00000  Uiso   1.00
C106   C     0.92201   0.13207   0.88798   0.00000  Uiso   1.00
C107   C     0.88347   0.10537   0.86706   0.00000  Uiso   1.00
C108   C     0.87130   0.01495   0.85485   0.00000  Uiso   1.00
C109   C     0.83505   0.00521   0.83624   0.00000  Uiso   1.00
C110   C     0.91695   0.18585   0.94656   0.00000  Uiso   1.00
C111   C     0.93294   0.16311   0.00120   0.00000  Uiso   1.00
C112   C     0.92489   0.22112   0.04951   0.00000  Uiso   1.00
C113   C     0.93632   0.20332   0.84254   0.00000  Uiso   1.00
C114   C     0.96861   0.19528   0.80972   0.00000  Uiso   1.00
C115   C     0.97687   0.26802   0.77047   0.00000  Uiso   1.00
H116   H     0.86121   0.33622   0.87184   0.00000  Uiso   1.00
H117   H     0.80607   0.23401   0.83755   0.00000  Uiso   1.00
H118   H     0.86771   0.38215   0.98386   0.00000  Uiso   1.00
H119   H     0.90337   0.41431   0.79242   0.00000  Uiso   1.00
H120   H     0.75517   0.08633   0.80226   0.00000  Uiso   1.00
H121   H     0.88515   0.39870   0.11078   0.00000  Uiso   1.00
H122   H     0.96034   0.46653   0.70708   0.00000  Uiso   1.00
H123   H     0.94008   0.07140   0.89277   0.00000  Uiso   1.00
H124   H     0.88926   0.95466   0.85963   0.00000  Uiso   1.00
H125   H     0.95090   0.10280   0.00595   0.00000  Uiso   1.00
H126   H     0.98656   0.13496   0.81450   0.00000  Uiso   1.00
H127   H     0.82269   0.85959   0.82019   0.00000  Uiso   1.00
H128   H     0.95267   0.17197   0.12870   0.00000  Uiso   1.00
H129   H     0.02786   0.23980   0.72500   0.00000  Uiso   1.00
O130   O     0.75408   0.90094   0.78906   0.00000  Uiso   1.00
O131   O     0.92461   0.31077   0.19382   0.00000  Uiso   1.00
O132   O     0.02326   0.39976   0.66417   0.00000  Uiso   1.00
N133   N     0.77804   0.04899   0.81102   0.00000  Uiso   1.00
N134   N     0.89955   0.34103   0.09947   0.00000  Uiso   1.00
N135   N     0.96986   0.40446   0.72205   0.00000  Uiso   1.00
N136   N     0.81437   0.92699   0.82066   0.00000  Uiso   1.00
N137   N     0.93589   0.21903   0.10911   0.00000  Uiso   1.00
N138   N     0.00619   0.28245   0.73169   0.00000  Uiso   1.00
C139   C     0.87928   0.77554   0.37663   0.00000  Uiso   1.00
C140   C     0.86026   0.68329   0.36090   0.00000  Uiso   1.00
C141   C     0.82402   0.67369   0.34230   0.00000  Uiso   1.00
C142   C     0.81180   0.58328   0.33007   0.00000  Uiso   1.00
C143   C     0.77873   0.45189   0.30473   0.00000  Uiso   1.00
C144   C     0.89374   0.76377   0.44040   0.00000  Uiso   1.00
C145   C     0.88567   0.82184   0.48865   0.00000  Uiso   1.00
C146   C     0.90164   0.79919   0.54334   0.00000  Uiso   1.00
C147   C     0.92058   0.79278   0.64142   0.00000  Uiso   1.00
C148   C     0.91311   0.78125   0.33638   0.00000  Uiso   1.00
C149   C     0.92133   0.85402   0.29717   0.00000  Uiso   1.00
C150   C     0.95362   0.84609   0.26430   0.00000  Uiso   1.00
C151   C     0.00264   0.86681   0.20087   0.00000  Uiso   1.00
C152   C     0.92201   0.63207   0.38798   0.00000  Uiso   1.00
C153   C     0.88347   0.60537   0.36706   0.00000  Uiso   1.00
C154   C     0.87130   0.51495   0.35485   0.00000  Uiso   1.00
C155   C     0.83505   0.50521   0.33624   0.00000  Uiso   1.00
C156   C     0.91695   0.68585   0.44656   0.00000  Uiso   1.00
C157   C     0.93294   0.66311   0.50120   0.00000  Uiso   1.00
C158   C     0.92489   0.72112   0.54951   0.00000  Uiso   1.00
C159   C     0.93632   0.70332   0.34254   0.00000  Uiso   1.00
C160   C     0.96861   0.69528   0.30972   0.00000  Uiso   1.00
C161   C     0.97687   0.76802   0.27047   0.00000  Uiso   1.00
H162   H     0.86121   0.83622   0.37184   0.00000  Uiso   1.00
H163   H     0.80607   0.73401   0.33755   0.00000  Uiso   1.00
H164   H     0.86771   0.88215   0.48386   0.00000  Uiso   1.00
H165   H     0.90337   0.91431   0.29242   0.00000  Uiso   1.00
H166   H     0.75517   0.58633   0.30226   0.00000  Uiso   1.00
H167   H     0.88515   0.89870   0.61078   0.00000  Uiso   1.00
H168   H     0.96034   0.96653   0.20708   0.00000  Uiso   1.00
H169   H     0.94008   0.57140   0.39277   0.00000  Uiso   1.00
H170   H     0.88926   0.45466   0.35963   0.00000  Uiso   1.00
H171   H     0.95090   0.60280   0.50595   0.00000  Uiso   1.00
H172   H     0.98656   0.63496   0.31450   0.00000  Uiso   1.00
H173   H     0.82269   0.35959   0.32019   0.00000  Uiso   1.00
H174   H     0.95267   0.67197   0.62870   0.00000  Uiso   1.00
H175   H     0.02786   0.73980   0.22500   0.00000  Uiso   1.00
O176   O     0.75408   0.40094   0.28906   0.00000  Uiso   1.00
O177   O     0.92461   0.81077   0.69382   0.00000  Uiso   1.00
O178   O     0.02326   0.89976   0.16417   0.00000  Uiso   1.00
N179   N     0.77804   0.54899   0.31102   0.00000  Uiso   1.00
N180   N     0.89955   0.84103   0.59947   0.00000  Uiso   1.00
N181   N     0.96986   0.90446   0.22205   0.00000  Uiso   1.00
N182   N     0.81437   0.42699   0.32066   0.00000  Uiso   1.00
N183   N     0.93589   0.71903   0.60911   0.00000  Uiso   1.00
N184   N     0.00619   0.78245   0.23169   0.00000  Uiso   1.00
C185   C     0.62072   0.72446   0.37663   0.00000  Uiso   1.00
C186   C     0.63974   0.81671   0.36090   0.00000  Uiso   1.00
C187   C     0.67598   0.82631   0.34230   0.00000  Uiso   1.00
C188   C     0.68820   0.91672   0.33007   0.00000  Uiso   1.00
C189   C     0.72127   0.04811   0.30473   0.00000  Uiso   1.00
C190   C     0.60626   0.73623   0.44040   0.00000  Uiso   1.00
C191   C     0.61433   0.67816   0.48865   0.00000  Uiso   1.00
C192   C     0.59836   0.70081   0.54334   0.00000  Uiso   1.00
C193   C     0.57942   0.70722   0.64142   0.00000  Uiso   1.00
C194   C     0.58689   0.71875   0.33638   0.00000  Uiso   1.00
C195   C     0.57867   0.64598   0.29717   0.00000  Uiso   1.00
C196   C     0.54638   0.65391   0.26430   0.00000  Uiso   1.00
C197   C     0.49736   0.63319   0.20087   0.00000  Uiso   1.00
C198   C     0.57799   0.86793   0.38798   0.00000  Uiso   1.00
C199   C     0.61653   0.89463   0.36706   0.00000  Uiso   1.00
C200   C     0.62870   0.98505   0.35485   0.00000  Uiso   1.00
C201   C     0.66495   0.99479   0.33624   0.00000  Uiso   1.00
C202   C     0.58305   0.81415   0.44656   0.00000  Uiso   1.00
C203   C     0.56706   0.83689   0.50120   0.00000  Uiso   1.00
C204   C     0.57511   0.77888   0.54951   0.00000  Uiso   1.00
C205   C     0.56368   0.79668   0.34254   0.00000  Uiso   1.00
C206   C     0.53139   0.80472   0.30972   0.00000  Uiso   1.00
C207   C     0.52313   0.73198   0.27047   0.00000  Uiso   1.00
H208   H     0.63879   0.66378   0.37184   0.00000  Uiso   1.00
H209   H     0.69393   0.76599   0.33755   0.00000  Uiso   1.00
H210   H     0.63229   0.61785   0.48386   0.00000  Uiso   1.00
H211   H     0.59663   0.58569   0.29242   0.00000  Uiso   1.00
H212   H     0.74483   0.91367   0.30226   0.00000  Uiso   1.00
H213   H     0.61485   0.60130   0.61078   0.00000  Uiso   1.00
H214   H     0.53966   0.53347   0.20708   0.00000  Uiso   1.00
H215   H     0.55992   0.92860   0.39277   0.00000  Uiso   1.00
H216   H     0.61074   0.04534   0.35963   0.00000  Uiso   1.00
H217   H     0.54910   0.89720   0.50595   0.00000  Uiso   1.00
H218   H     0.51344   0.86504   0.31450   0.00000  Uiso   1.00
H219   H     0.67731   0.14041   0.32019   0.00000  Uiso   1.00
H220   H     0.54733   0.82803   0.62870   0.00000  Uiso   1.00
H221   H     0.47214   0.76020   0.22500   0.00000  Uiso   1.00
O222   O     0.74592   0.09906   0.28906   0.00000  Uiso   1.00
O223   O     0.57539   0.68923   0.69382   0.00000  Uiso   1.00
O224   O     0.47674   0.60024   0.16417   0.00000  Uiso   1.00
N225   N     0.72196   0.95101   0.31102   0.00000  Uiso   1.00
N226   N     0.60045   0.65897   0.59947   0.00000  Uiso   1.00
N227   N     0.53014   0.59554   0.22205   0.00000  Uiso   1.00
N228   N     0.68563   0.07301   0.32066   0.00000  Uiso   1.00
N229   N     0.56411   0.78097   0.60911   0.00000  Uiso   1.00
N230   N     0.49381   0.71755   0.23169   0.00000  Uiso   1.00
C231   C     0.62072   0.22446   0.87663   0.00000  Uiso   1.00
C232   C     0.63974   0.31671   0.86090   0.00000  Uiso   1.00
C233   C     0.67598   0.32631   0.84230   0.00000  Uiso   1.00
C234   C     0.68820   0.41672   0.83007   0.00000  Uiso   1.00
C235   C     0.72127   0.54811   0.80473   0.00000  Uiso   1.00
C236   C     0.60626   0.23623   0.94040   0.00000  Uiso   1.00
C237   C     0.61433   0.17816   0.98865   0.00000  Uiso   1.00
C238   C     0.59836   0.20081   0.04334   0.00000  Uiso   1.00
C239   C     0.57942   0.20722   0.14142   0.00000  Uiso   1.00
C240   C     0.58689   0.21875   0.83638   0.00000  Uiso   1.00
C241   C     0.57867   0.14598   0.79717   0.00000  Uiso   1.00
C242   C     0.54638   0.15391   0.76430   0.00000  Uiso   1.00
C243   C     0.49736   0.13319   0.70087   0.00000  Uiso   1.00
C244   C     0.57799   0.36793   0.88798   0.00000  Uiso   1.00
C245   C     0.61653   0.39463   0.86706   0.00000  Uiso   1.00
C246   C     0.62870   0.48505   0.85485   0.00000  Uiso   1.00
C247   C     0.66495   0.49479   0.83624   0.00000  Uiso   1.00
C248   C     0.58305   0.31415   0.94656   0.00000  Uiso   1.00
C249   C     0.56706   0.33689   0.00120   0.00000  Uiso   1.00
C250   C     0.57511   0.27888   0.04951   0.00000  Uiso   1.00
C251   C     0.56368   0.29668   0.84254   0.00000  Uiso   1.00
C252   C     0.53139   0.30472   0.80972   0.00000  Uiso   1.00
C253   C     0.52313   0.23198   0.77047   0.00000  Uiso   1.00
H254   H     0.63879   0.16378   0.87184   0.00000  Uiso   1.00
H255   H     0.69393   0.26599   0.83755   0.00000  Uiso   1.00
H256   H     0.63229   0.11785   0.98386   0.00000  Uiso   1.00
H257   H     0.59663   0.08569   0.79242   0.00000  Uiso   1.00
H258   H     0.74483   0.41367   0.80226   0.00000  Uiso   1.00
H259   H     0.61485   0.10130   0.11078   0.00000  Uiso   1.00
H260   H     0.53966   0.03347   0.70708   0.00000  Uiso   1.00
H261   H     0.55992   0.42860   0.89277   0.00000  Uiso   1.00
H262   H     0.61074   0.54534   0.85963   0.00000  Uiso   1.00
H263   H     0.54910   0.39720   0.00595   0.00000  Uiso   1.00
H264   H     0.51344   0.36504   0.81450   0.00000  Uiso   1.00
H265   H     0.67731   0.64041   0.82019   0.00000  Uiso   1.00
H266   H     0.54733   0.32803   0.12870   0.00000  Uiso   1.00
H267   H     0.47214   0.26020   0.72500   0.00000  Uiso   1.00
O268   O     0.74592   0.59906   0.78906   0.00000  Uiso   1.00
O269   O     0.57539   0.18923   0.19382   0.00000  Uiso   1.00
O270   O     0.47674   0.10024   0.66417   0.00000  Uiso   1.00
N271   N     0.72196   0.45101   0.81102   0.00000  Uiso   1.00
N272   N     0.60045   0.15897   0.09947   0.00000  Uiso   1.00
N273   N     0.53014   0.09554   0.72205   0.00000  Uiso   1.00
N274   N     0.68563   0.57301   0.82066   0.00000  Uiso   1.00
N275   N     0.56411   0.28097   0.10911   0.00000  Uiso   1.00
N276   N     0.49381   0.21755   0.73169   0.00000  Uiso   1.00
C277   C     0.12072   0.72446   0.87663   0.00000  Uiso   1.00
C278   C     0.13974   0.81671   0.86090   0.00000  Uiso   1.00
C279   C     0.17598   0.82631   0.84230   0.00000  Uiso   1.00
C280   C     0.18820   0.91672   0.83007   0.00000  Uiso   1.00
C281   C     0.22127   0.04811   0.80473   0.00000  Uiso   1.00
C282   C     0.10626   0.73623   0.94040   0.00000  Uiso   1.00
C283   C     0.11433   0.67816   0.98865   0.00000  Uiso   1.00
C284   C     0.09836   0.70081   0.04334   0.00000  Uiso   1.00
C285   C     0.07942   0.70722   0.14142   0.00000  Uiso   1.00
C286   C     0.08689   0.71875   0.83638   0.00000  Uiso   1.00
C287   C     0.07867   0.64598   0.79717   0.00000  Uiso   1.00
C288   C     0.04638   0.65391   0.76430   0.00000  Uiso   1.00
C289   C     0.99736   0.63319   0.70087   0.00000  Uiso   1.00
C290   C     0.07799   0.86793   0.88798   0.00000  Uiso   1.00
C291   C     0.11653   0.89463   0.86706   0.00000  Uiso   1.00
C292   C     0.12870   0.98505   0.85485   0.00000  Uiso   1.00
C293   C     0.16495   0.99479   0.83624   0.00000  Uiso   1.00
C294   C     0.08305   0.81415   0.94656   0.00000  Uiso   1.00
C295   C     0.06706   0.83689   0.00120   0.00000  Uiso   1.00
C296   C     0.07511   0.77888   0.04951   0.00000  Uiso   1.00
C297   C     0.06368   0.79668   0.84254   0.00000  Uiso   1.00
C298   C     0.03139   0.80472   0.80972   0.00000  Uiso   1.00
C299   C     0.02313   0.73198   0.77047   0.00000  Uiso   1.00
H300   H     0.13879   0.66378   0.87184   0.00000  Uiso   1.00
H301   H     0.19393   0.76599   0.83755   0.00000  Uiso   1.00
H302   H     0.13229   0.61785   0.98386   0.00000  Uiso   1.00
H303   H     0.09663   0.58569   0.79242   0.00000  Uiso   1.00
H304   H     0.24483   0.91367   0.80226   0.00000  Uiso   1.00
H305   H     0.11485   0.60130   0.11078   0.00000  Uiso   1.00
H306   H     0.03966   0.53347   0.70708   0.00000  Uiso   1.00
H307   H     0.05992   0.92860   0.89277   0.00000  Uiso   1.00
H308   H     0.11074   0.04534   0.85963   0.00000  Uiso   1.00
H309   H     0.04910   0.89720   0.00595   0.00000  Uiso   1.00
H310   H     0.01344   0.86504   0.81450   0.00000  Uiso   1.00
H311   H     0.17731   0.14041   0.82019   0.00000  Uiso   1.00
H312   H     0.04733   0.82803   0.12870   0.00000  Uiso   1.00
H313   H     0.97214   0.76020   0.72500   0.00000  Uiso   1.00
O314   O     0.24592   0.09906   0.78906   0.00000  Uiso   1.00
O315   O     0.07539   0.68923   0.19382   0.00000  Uiso   1.00
O316   O     0.97674   0.60024   0.66417   0.00000  Uiso   1.00
N317   N     0.22196   0.95101   0.81102   0.00000  Uiso   1.00
N318   N     0.10045   0.65897   0.09947   0.00000  Uiso   1.00
N319   N     0.03014   0.59554   0.72205   0.00000  Uiso   1.00
N320   N     0.18563   0.07301   0.82066   0.00000  Uiso   1.00
N321   N     0.06411   0.78097   0.10911   0.00000  Uiso   1.00
N322   N     0.99381   0.71755   0.73169   0.00000  Uiso   1.00
C323   C     0.12072   0.22446   0.37663   0.00000  Uiso   1.00
C324   C     0.13974   0.31671   0.36090   0.00000  Uiso   1.00
C325   C     0.17598   0.32631   0.34230   0.00000  Uiso   1.00
C326   C     0.18820   0.41672   0.33007   0.00000  Uiso   1.00
C327   C     0.22127   0.54811   0.30473   0.00000  Uiso   1.00
C328   C     0.10626   0.23623   0.44040   0.00000  Uiso   1.00
C329   C     0.11433   0.17816   0.48865   0.00000  Uiso   1.00
C330   C     0.09836   0.20081   0.54334   0.00000  Uiso   1.00
C331   C     0.07942   0.20722   0.64142   0.00000  Uiso   1.00
C332   C     0.08689   0.21875   0.33638   0.00000  Uiso   1.00
C333   C     0.07867   0.14598   0.29717   0.00000  Uiso   1.00
C334   C     0.04638   0.15391   0.26430   0.00000  Uiso   1.00
C335   C     0.99736   0.13319   0.20087   0.00000  Uiso   1.00
C336   C     0.07799   0.36793   0.38798   0.00000  Uiso   1.00
C337   C     0.11653   0.39463   0.36706   0.00000  Uiso   1.00
C338   C     0.12870   0.48505   0.35485   0.00000  Uiso   1.00
C339   C     0.16495   0.49479   0.33624   0.00000  Uiso   1.00
C340   C     0.08305   0.31415   0.44656   0.00000  Uiso   1.00
C341   C     0.06706   0.33689   0.50120   0.00000  Uiso   1.00
C342   C     0.07511   0.27888   0.54951   0.00000  Uiso   1.00
C343   C     0.06368   0.29668   0.34254   0.00000  Uiso   1.00
C344   C     0.03139   0.30472   0.30972   0.00000  Uiso   1.00
C345   C     0.02313   0.23198   0.27047   0.00000  Uiso   1.00
H346   H     0.13879   0.16378   0.37184   0.00000  Uiso   1.00
H347   H     0.19393   0.26599   0.33755   0.00000  Uiso   1.00
H348   H     0.13229   0.11785   0.48386   0.00000  Uiso   1.00
H349   H     0.09663   0.08569   0.29242   0.00000  Uiso   1.00
H350   H     0.24483   0.41367   0.30226   0.00000  Uiso   1.00
H351   H     0.11485   0.10130   0.61078   0.00000  Uiso   1.00
H352   H     0.03966   0.03347   0.20708   0.00000  Uiso   1.00
H353   H     0.05992   0.42860   0.39277   0.00000  Uiso   1.00
H354   H     0.11074   0.54534   0.35963   0.00000  Uiso   1.00
H355   H     0.04910   0.39720   0.50595   0.00000  Uiso   1.00
H356   H     0.01344   0.36504   0.31450   0.00000  Uiso   1.00
H357   H     0.17731   0.64041   0.32019   0.00000  Uiso   1.00
H358   H     0.04733   0.32803   0.62870   0.00000  Uiso   1.00
H359   H     0.97214   0.26020   0.22500   0.00000  Uiso   1.00
O360   O     0.24592   0.59906   0.28906   0.00000  Uiso   1.00
O361   O     0.07539   0.18923   0.69382   0.00000  Uiso   1.00
O362   O     0.97674   0.10024   0.16417   0.00000  Uiso   1.00
N363   N     0.22196   0.45101   0.31102   0.00000  Uiso   1.00
N364   N     0.10045   0.15897   0.59947   0.00000  Uiso   1.00
N365   N     0.03014   0.09554   0.22205   0.00000  Uiso   1.00
N366   N     0.18563   0.57301   0.32066   0.00000  Uiso   1.00
N367   N     0.06411   0.28097   0.60911   0.00000  Uiso   1.00
N368   N     0.99381   0.21755   0.23169   0.00000  Uiso   1.00
C369   C     0.62928   0.97446   0.62663   0.00000  Uiso   1.00
C370   C     0.61026   0.06671   0.61090   0.00000  Uiso   1.00
C371   C     0.57402   0.07631   0.59230   0.00000  Uiso   1.00
C372   C     0.56180   0.16672   0.58007   0.00000  Uiso   1.00
C373   C     0.52873   0.29811   0.55473   0.00000  Uiso   1.00
C374   C     0.64374   0.98623   0.69040   0.00000  Uiso   1.00
C375   C     0.63567   0.92816   0.73865   0.00000  Uiso   1.00
C376   C     0.65164   0.95081   0.79334   0.00000  Uiso   1.00
C377   C     0.67058   0.95722   0.89142   0.00000  Uiso   1.00
C378   C     0.66311   0.96875   0.58638   0.00000  Uiso   1.00
C379   C     0.67133   0.89598   0.54717   0.00000  Uiso   1.00
C380   C     0.70362   0.90391   0.51430   0.00000  Uiso   1.00
C381   C     0.75264   0.88319   0.45087   0.00000  Uiso   1.00
C382   C     0.67201   0.11793   0.63798   0.00000  Uiso   1.00
C383   C     0.63347   0.14463   0.61706   0.00000  Uiso   1.00
C384   C     0.62130   0.23505   0.60485   0.00000  Uiso   1.00
C385   C     0.58505   0.24479   0.58624   0.00000  Uiso   1.00
C386   C     0.66695   0.06415   0.69656   0.00000  Uiso   1.00
C387   C     0.68294   0.08689   0.75120   0.00000  Uiso   1.00
C388   C     0.67489   0.02888   0.79951   0.00000  Uiso   1.00
C389   C     0.68632   0.04668   0.59254   0.00000  Uiso   1.00
C390   C     0.71861   0.05472   0.55972   0.00000  Uiso   1.00
C391   C     0.72687   0.98198   0.52047   0.00000  Uiso   1.00
H392   H     0.61121   0.91378   0.62184   0.00000  Uiso   1.00
H393   H     0.55607   0.01599   0.58755   0.00000  Uiso   1.00
H394   H     0.61771   0.86785   0.73386   0.00000  Uiso   1.00
H395   H     0.65337   0.83569   0.54242   0.00000  Uiso   1.00
H396   H     0.50517   0.16367   0.55226   0.00000  Uiso   1.00
H397   H     0.63515   0.85130   0.86078   0.00000  Uiso   1.00
H398   H     0.71034   0.78347   0.45708   0.00000  Uiso   1.00
H399   H     0.69008   0.17860   0.64277   0.00000  Uiso   1.00
H400   H     0.63926   0.29534   0.60963   0.00000  Uiso   1.00
H401   H     0.70090   0.14720   0.75595   0.00000  Uiso   1.00
H402   H     0.73656   0.11504   0.56450   0.00000  Uiso   1.00
H403   H     0.57269   0.39041   0.57019   0.00000  Uiso   1.00
H404   H     0.70267   0.07803   0.87870   0.00000  Uiso   1.00
H405   H     0.77786   0.01020   0.47500   0.00000  Uiso   1.00
O406   O     0.50408   0.34906   0.53906   0.00000  Uiso   1.00
O407   O     0.67461   0.93923   0.94382   0.00000  Uiso   1.00
O408   O     0.77326   0.85024   0.41417   0.00000  Uiso   1.00
N409   N     0.52804   0.20101   0.56102   0.00000  Uiso   1.00
N410   N     0.64955   0.90897   0.84947   0.00000  Uiso   1.00
N411   N     0.71986   0.84554   0.47205   0.00000  Uiso   1.00
N412   N     0.56437   0.32301   0.57066   0.00000  Uiso   1.00
N413   N     0.68589   0.03097   0.85911   0.00000  Uiso   1.00
N414   N     0.75619   0.96755   0.48169   0.00000  Uiso   1.00
C415   C     0.62928   0.47446   0.12663   0.00000  Uiso   1.00
C416   C     0.61026   0.56671   0.11090   0.00000  Uiso   1.00
C417   C     0.57402   0.57631   0.09230   0.00000  Uiso   1.00
C418   C     0.56180   0.66672   0.08007   0.00000  Uiso   1.00
C419   C     0.52873   0.79811   0.05473   0.00000  Uiso   1.00
C420   C     0.64374   0.48623   0.19040   0.00000  Uiso   1.00
C421   C     0.63567   0.42816   0.23865   0.00000  Uiso   1.00
C422   C     0.65164   0.45081   0.29334   0.00000  Uiso   1.00
C423   C     0.67058   0.45722   0.39142   0.00000  Uiso   1.00
C424   C     0.66311   0.46875   0.08638   0.00000  Uiso   1.00
C425   C     0.67133   0.39598   0.04717   0.00000  Uiso   1.00
C426   C     0.70362   0.40391   0.01430   0.00000  Uiso   1.00
C427   C     0.75264   0.38319   0.95087   0.00000  Uiso   1.00
C428   C     0.67201   0.61793   0.13798   0.00000  Uiso   1.00
C429   C     0.63347   0.64463   0.11706   0.00000  Uiso   1.00
C430   C     0.62130   0.73505   0.10485   0.00000  Uiso   1.00
C431   C     0.58505   0.74479   0.08624   0.00000  Uiso   1.00
C432   C     0.66695   0.56415   0.19656   0.00000  Uiso   1.00
C433   C     0.68294   0.58689   0.25120   0.00000  Uiso   1.00
C434   C     0.67489   0.52888   0.29951   0.00000  Uiso   1.00
C435   C     0.68632   0.54668   0.09254   0.00000  Uiso   1.00
C436   C     0.71861   0.55472   0.05972   0.00000  Uiso   1.00
C437   C     0.72687   0.48198   0.02047   0.00000  Uiso   1.00
H438   H     0.61121   0.41378   0.12184   0.00000  Uiso   1.00
H439   H     0.55607   0.51599   0.08755   0.00000  Uiso   1.00
H440   H     0.61771   0.36785   0.23386   0.00000  Uiso   1.00
H441   H     0.65337   0.33569   0.04242   0.00000  Uiso   1.00
H442   H     0.50517   0.66367   0.05226   0.00000  Uiso   1.00
H443   H     0.63515   0.35130   0.36078   0.00000  Uiso   1.00
H444   H     0.71034   0.28347   0.95708   0.00000  Uiso   1.00
H445   H     0.69008   0.67860   0.14277   0.00000  Uiso   1.00
H446   H     0.63926   0.79534   0.10963   0.00000  Uiso   1.00
H447   H     0.70090   0.64720   0.25595   0.00000  Uiso   1.00
H448   H     0.73656   0.61504   0.06450   0.00000  Uiso   1.00
H449   H     0.57269   0.89041   0.07019   0.00000  Uiso   1.00
H450   H     0.70267   0.57803   0.37870   0.00000  Uiso   1.00
H451   H     0.77786   0.51020   0.97500   0.00000  Uiso   1.00
O452   O     0.50408   0.84906   0.03906   0.00000  Uiso   1.00
O453   O     0.67461   0.43923   0.44382   0.00000  Uiso   1.00
O454   O     0.77326   0.35024   0.91417   0.00000  Uiso   1.00
N455   N     0.52804   0.70101   0.06102   0.00000  Uiso   1.00
N456   N     0.64955   0.40897   0.34947   0.00000  Uiso   1.00
N457   N     0.71986   0.34554   0.97205   0.00000  Uiso   1.00
N458   N     0.56437   0.82301   0.07066   0.00000  Uiso   1.00
N459   N     0.68589   0.53097   0.35911   0.00000  Uiso   1.00
N460   N     0.75619   0.46755   0.98169   0.00000  Uiso   1.00
C461   C     0.12928   0.97446   0.12663   0.00000  Uiso   1.00
C462   C     0.11026   0.06671   0.11090   0.00000  Uiso   1.00
C463   C     0.07402   0.07631   0.09230   0.00000  Uiso   1.00
C464   C     0.06180   0.16672   0.08007   0.00000  Uiso   1.00
C465   C     0.02873   0.29811   0.05473   0.00000  Uiso   1.00
C466   C     0.14374   0.98623   0.19040   0.00000  Uiso   1.00
C467   C     0.13567   0.92816   0.23865   0.00000  Uiso   1.00
C468   C     0.15164   0.95081   0.29334   0.00000  Uiso   1.00
C469   C     0.17058   0.95722   0.39142   0.00000  Uiso   1.00
C470   C     0.16311   0.96875   0.08638   0.00000  Uiso   1.00
C471   C     0.17133   0.89598   0.04717   0.00000  Uiso   1.00
C472   C     0.20362   0.90391   0.01430   0.00000  Uiso   1.00
C473   C     0.25264   0.88319   0.95087   0.00000  Uiso   1.00
C474   C     0.17201   0.11793   0.13798   0.00000  Uiso   1.00
C475   C     0.13347   0.14463   0.11706   0.00000  Uiso   1.00
C476   C     0.12130   0.23505   0.10485   0.00000  Uiso   1.00
C477   C     0.08505   0.24479   0.08624   0.00000  Uiso   1.00
C478   C     0.16695   0.06415   0.19656   0.00000  Uiso   1.00
C479   C     0.18294   0.08689   0.25120   0.00000  Uiso   1.00
C480   C     0.17489   0.02888   0.29951   0.00000  Uiso   1.00
C481   C     0.18632   0.04668   0.09254   0.00000  Uiso   1.00
C482   C     0.21861   0.05472   0.05972   0.00000  Uiso   1.00
C483   C     0.22687   0.98198   0.02047   0.00000  Uiso   1.00
H484   H     0.11121   0.91378   0.12184   0.00000  Uiso   1.00
H485   H     0.05607   0.01599   0.08755   0.00000  Uiso   1.00
H486   H     0.11771   0.86785   0.23386   0.00000  Uiso   1.00
H487   H     0.15337   0.83569   0.04242   0.00000  Uiso   1.00
H488   H     0.00517   0.16367   0.05226   0.00000  Uiso   1.00
H489   H     0.13515   0.85130   0.36078   0.00000  Uiso   1.00
H490   H     0.21034   0.78347   0.95708   0.00000  Uiso   1.00
H491   H     0.19008   0.17860   0.14277   0.00000  Uiso   1.00
H492   H     0.13926   0.29534   0.10963   0.00000  Uiso   1.00
H493   H     0.20090   0.14720   0.25595   0.00000  Uiso   1.00
H494   H     0.23656   0.11504   0.06450   0.00000  Uiso   1.00
H495   H     0.07269   0.39041   0.07019   0.00000  Uiso   1.00
H496   H     0.20267   0.07803   0.37870   0.00000  Uiso   1.00
H497   H     0.27786   0.01020   0.97500   0.00000  Uiso   1.00
O498   O     0.00408   0.34906   0.03906   0.00000  Uiso   1.00
O499   O     0.17461   0.93923   0.44382   0.00000  Uiso   1.00
O500   O     0.27326   0.85024   0.91417   0.00000  Uiso   1.00
N501   N     0.02804   0.20101   0.06102   0.00000  Uiso   1.00
N502   N     0.14955   0.90897   0.34947   0.00000  Uiso   1.00
N503   N     0.21986   0.84554   0.97205   0.00000  Uiso   1.00
N504   N     0.06437   0.32301   0.07066   0.00000  Uiso   1.00
N505   N     0.18589   0.03097   0.35911   0.00000  Uiso   1.00
N506   N     0.25619   0.96755   0.98169   0.00000  Uiso   1.00
C507   C     0.12928   0.47446   0.62663   0.00000  Uiso   1.00
C508   C     0.11026   0.56671   0.61090   0.00000  Uiso   1.00
C509   C     0.07402   0.57631   0.59230   0.00000  Uiso   1.00
C510   C     0.06180   0.66672   0.58007   0.00000  Uiso   1.00
C511   C     0.02873   0.79811   0.55473   0.00000  Uiso   1.00
C512   C     0.14374   0.48623   0.69040   0.00000  Uiso   1.00
C513   C     0.13567   0.42816   0.73865   0.00000  Uiso   1.00
C514   C     0.15164   0.45081   0.79334   0.00000  Uiso   1.00
C515   C     0.17058   0.45722   0.89142   0.00000  Uiso   1.00
C516   C     0.16311   0.46875   0.58638   0.00000  Uiso   1.00
C517   C     0.17133   0.39598   0.54717   0.00000  Uiso   1.00
C518   C     0.20362   0.40391   0.51430   0.00000  Uiso   1.00
C519   C     0.25264   0.38319   0.45087   0.00000  Uiso   1.00
C520   C     0.17201   0.61793   0.63798   0.00000  Uiso   1.00
C521   C     0.13347   0.64463   0.61706   0.00000  Uiso   1.00
C522   C     0.12130   0.73505   0.60485   0.00000  Uiso   1.00
C523   C     0.08505   0.74479   0.58624   0.00000  Uiso   1.00
C524   C     0.16695   0.56415   0.69656   0.00000  Uiso   1.00
C525   C     0.18294   0.58689   0.75120   0.00000  Uiso   1.00
C526   C     0.17489   0.52888   0.79951   0.00000  Uiso   1.00
C527   C     0.18632   0.54668   0.59254   0.00000  Uiso   1.00
C528   C     0.21861   0.55472   0.55972   0.00000  Uiso   1.00
C529   C     0.22687   0.48198   0.52047   0.00000  Uiso   1.00
H530   H     0.11121   0.41378   0.62184   0.00000  Uiso   1.00
H531   H     0.05607   0.51599   0.58755   0.00000  Uiso   1.00
H532   H     0.11771   0.36785   0.73386   0.00000  Uiso   1.00
H533   H     0.15337   0.33569   0.54242   0.00000  Uiso   1.00
H534   H     0.00517   0.66367   0.55226   0.00000  Uiso   1.00
H535   H     0.13515   0.35130   0.86078   0.00000  Uiso   1.00
H536   H     0.21034   0.28347   0.45708   0.00000  Uiso   1.00
H537   H     0.19008   0.67860   0.64277   0.00000  Uiso   1.00
H538   H     0.13926   0.79534   0.60963   0.00000  Uiso   1.00
H539   H     0.20090   0.64720   0.75595   0.00000  Uiso   1.00
H540   H     0.23656   0.61504   0.56450   0.00000  Uiso   1.00
H541   H     0.07269   0.89041   0.57019   0.00000  Uiso   1.00
H542   H     0.20267   0.57803   0.87870   0.00000  Uiso   1.00
H543   H     0.27786   0.51020   0.47500   0.00000  Uiso   1.00
O544   O     0.00408   0.84906   0.53906   0.00000  Uiso   1.00
O545   O     0.17461   0.43923   0.94382   0.00000  Uiso   1.00
O546   O     0.27326   0.35024   0.41417   0.00000  Uiso   1.00
N547   N     0.02804   0.70101   0.56102   0.00000  Uiso   1.00
N548   N     0.14955   0.40897   0.84947   0.00000  Uiso   1.00
N549   N     0.21986   0.34554   0.47205   0.00000  Uiso   1.00
N550   N     0.06437   0.82301   0.57066   0.00000  Uiso   1.00
N551   N     0.18589   0.53097   0.85911   0.00000  Uiso   1.00
N552   N     0.25619   0.46755   0.48169   0.00000  Uiso   1.00
C553   C     0.87072   0.52554   0.62663   0.00000  Uiso   1.00
C554   C     0.88974   0.43329   0.61090   0.00000  Uiso   1.00
C555   C     0.92598   0.42369   0.59230   0.00000  Uiso   1.00
C556   C     0.93820   0.33328   0.58007   0.00000  Uiso   1.00
C557   C     0.97127   0.20189   0.55473   0.00000  Uiso   1.00
C558   C     0.85626   0.51377   0.69040   0.00000  Uiso   1.00
C559   C     0.86433   0.57184   0.73865   0.00000  Uiso   1.00
C560   C     0.84836   0.54919   0.79334   0.00000  Uiso   1.00
C561   C     0.82942   0.54278   0.89142   0.00000  Uiso   1.00
C562   C     0.83689   0.53125   0.58638   0.00000  Uiso   1.00
C563   C     0.82867   0.60402   0.54717   0.00000  Uiso   1.00
C564   C     0.79638   0.59609   0.51430   0.00000  Uiso   1.00
C565   C     0.74736   0.61681   0.45087   0.00000  Uiso   1.00
C566   C     0.82799   0.38207   0.63798   0.00000  Uiso   1.00
C567   C     0.86653   0.35537   0.61706   0.00000  Uiso   1.00
C568   C     0.87870   0.26495   0.60485   0.00000  Uiso   1.00
C569   C     0.91495   0.25521   0.58624   0.00000  Uiso   1.00
C570   C     0.83305   0.43585   0.69656   0.00000  Uiso   1.00
C571   C     0.81706   0.41311   0.75120   0.00000  Uiso   1.00
C572   C     0.82511   0.47112   0.79951   0.00000  Uiso   1.00
C573   C     0.81368   0.45332   0.59254   0.00000  Uiso   1.00
C574   C     0.78139   0.44528   0.55972   0.00000  Uiso   1.00
C575   C     0.77313   0.51802   0.52047   0.00000  Uiso   1.00
H576   H     0.88879   0.58622   0.62184   0.00000  Uiso   1.00
H577   H     0.94393   0.48401   0.58755   0.00000  Uiso   1.00
H578   H     0.88229   0.63215   0.73386   0.00000  Uiso   1.00
H579   H     0.84663   0.66431   0.54242   0.00000  Uiso   1.00
H580   H     0.99483   0.33633   0.55226   0.00000  Uiso   1.00
H581   H     0.86485   0.64870   0.86078   0.00000  Uiso   1.00
H582   H     0.78966   0.71653   0.45708   0.00000  Uiso   1.00
H583   H     0.80992   0.32140   0.64277   0.00000  Uiso   1.00
H584   H     0.86074   0.20466   0.60963   0.00000  Uiso   1.00
H585   H     0.79910   0.35280   0.75595   0.00000  Uiso   1.00
H586   H     0.76344   0.38496   0.56450   0.00000  Uiso   1.00
H587   H     0.92731   0.10959   0.57019   0.00000  Uiso   1.00
H588   H     0.79733   0.42197   0.87870   0.00000  Uiso   1.00
H589   H     0.72214   0.48980   0.47500   0.00000  Uiso   1.00
O590   O     0.99592   0.15094   0.53906   0.00000  Uiso   1.00
O591   O     0.82539   0.56077   0.94382   0.00000  Uiso   1.00
O592   O     0.72674   0.64976   0.41417   0.00000  Uiso   1.00
N593   N     0.97196   0.29899   0.56102   0.00000  Uiso   1.00
N594   N     0.85045   0.59103   0.84947   0.00000  Uiso   1.00
N595   N     0.78014   0.65446   0.47205   0.00000  Uiso   1.00
N596   N     0.93563   0.17699   0.57066   0.00000  Uiso   1.00
N597   N     0.81411   0.46903   0.85911   0.00000  Uiso   1.00
N598   N     0.74381   0.53245   0.48169   0.00000  Uiso   1.00
C599   C     0.87072   0.02554   0.12663   0.00000  Uiso   1.00
C600   C     0.88974   0.93329   0.11090   0.00000  Uiso   1.00
C601   C     0.92598   0.92369   0.09230   0.00000  Uiso   1.00
C602   C     0.93820   0.83328   0.08007   0.00000  Uiso   1.00
C603   C     0.97127   0.70189   0.05473   0.00000  Uiso   1.00
C604   C     0.85626   0.01377   0.19040   0.00000  Uiso   1.00
C605   C     0.86433   0.07184   0.23865   0.00000  Uiso   1.00
C606   C     0.84836   0.04919   0.29334   0.00000  Uiso   1.00
C607   C     0.82942   0.04278   0.39142   0.00000  Uiso   1.00
C608   C     0.83689   0.03125   0.08638   0.00000  Uiso   1.00
C609   C     0.82867   0.10402   0.04717   0.00000  Uiso   1.00
C610   C     0.79638   0.09609   0.01430   0.00000  Uiso   1.00
C611   C     0.74736   0.11681   0.95087   0.00000  Uiso   1.00
C612   C     0.82799   0.88207   0.13798   0.00000  Uiso   1.00
C613   C     0.86653   0.85537   0.11706   0.00000  Uiso   1.00
C614   C     0.87870   0.76495   0.10485   0.00000  Uiso   1.00
C615   C     0.91495   0.75521   0.08624   0.00000  Uiso   1.00
C616   C     0.83305   0.93585   0.19656   0.00000  Uiso   1.00
C617   C     0.81706   0.91311   0.25120   0.00000  Uiso   1.00
C618   C     0.82511   0.97112   0.29951   0.00000  Uiso   1.00
C619   C     0.81368   0.95332   0.09254   0.00000  Uiso   1.00
C620   C     0.78139   0.94528   0.05972   0.00000  Uiso   1.00
C621   C     0.77313   0.01802   0.02047   0.00000  Uiso   1.00
H622   H     0.88879   0.08622   0.12184   0.00000  Uiso   1.00
H623   H     0.94393   0.98401   0.08755   0.00000  Uiso   1.00
H624   H     0.88229   0.13215   0.23386   0.00000  Uiso   1.00
H625   H     0.84663   0.16431   0.04242   0.00000  Uiso   1.00
H626   H     0.99483   0.83633   0.05226   0.00000  Uiso   1.00
H627   H     0.86485   0.14870   0.36078   0.00000  Uiso   1.00
H628   H     0.78966   0.21653   0.95708   0.00000  Uiso   1.00
H629   H     0.80992   0.82140   0.14277   0.00000  Uiso   1.00
H630   H     0.86074   0.70466   0.10963   0.00000  Uiso   1.00
H631   H     0.79910   0.85280   0.25595   0.00000  Uiso   1.00
H632   H     0.76344   0.88496   0.06450   0.00000  Uiso   1.00
H633   H     0.92731   0.60959   0.07019   0.00000  Uiso   1.00
H634   H     0.79733   0.92197   0.37870   0.00000  Uiso   1.00
H635   H     0.72214   0.98980   0.97500   0.00000  Uiso   1.00
O636   O     0.99592   0.65094   0.03906   0.00000  Uiso   1.00
O637   O     0.82539   0.06077   0.44382   0.00000  Uiso   1.00
O638   O     0.72674   0.14976   0.91417   0.00000  Uiso   1.00
N639   N     0.97196   0.79899   0.06102   0.00000  Uiso   1.00
N640   N     0.85045   0.09103   0.34947   0.00000  Uiso   1.00
N641   N     0.78014   0.15446   0.97205   0.00000  Uiso   1.00
N642   N     0.93563   0.67699   0.07066   0.00000  Uiso   1.00
N643   N     0.81411   0.96903   0.35911   0.00000  Uiso   1.00
N644   N     0.74381   0.03245   0.98169   0.00000  Uiso   1.00
C645   C     0.37072   0.52554   0.12663   0.00000  Uiso   1.00
C646   C     0.38974   0.43329   0.11090   0.00000  Uiso   1.00
C647   C     0.42598   0.42369   0.09230   0.00000  Uiso   1.00
C648   C     0.43820   0.33328   0.08007   0.00000  Uiso   1.00
C649   C     0.47127   0.20189   0.05473   0.00000  Uiso   1.00
C650   C     0.35626   0.51377   0.19040   0.00000  Uiso   1.00
C651   C     0.36433   0.57184   0.23865   0.00000  Uiso   1.00
C652   C     0.34836   0.54919   0.29334   0.00000  Uiso   1.00
C653   C     0.32942   0.54278   0.39142   0.00000  Uiso   1.00
C654   C     0.33689   0.53125   0.08638   0.00000  Uiso   1.00
C655   C     0.32867   0.60402   0.04717   0.00000  Uiso   1.00
C656   C     0.29638   0.59609   0.01430   0.00000  Uiso   1.00
C657   C     0.24736   0.61681   0.95087   0.00000  Uiso   1.00
C658   C     0.32799   0.38207   0.13798   0.00000  Uiso   1.00
C659   C     0.36653   0.35537   0.11706   0.00000  Uiso   1.00
C660   C     0.37870   0.26495   0.10485   0.00000  Uiso   1.00
C661   C     0.41495   0.25521   0.08624   0.00000  Uiso   1.00
C662   C     0.33305   0.43585   0.19656   0.00000  Uiso   1.00
C663   C     0.31706   0.41311   0.25120   0.00000  Uiso   1.00
C664   C     0.32511   0.47112   0.29951   0.00000  Uiso   1.00
C665   C     0.31368   0.45332   0.09254   0.00000  Uiso   1.00
C666   C     0.28139   0.44528   0.05972   0.00000  Uiso   1.00
C667   C     0.27313   0.51802   0.02047   0.00000  Uiso   1.00
H668   H     0.38879   0.58622   0.12184   0.00000  Uiso   1.00
H669   H     0.44393   0.48401   0.08755   0.00000  Uiso   1.00
H670   H     0.38229   0.63215   0.23386   0.00000  Uiso   1.00
H671   H     0.34663   0.66431   0.04242   0.00000  Uiso   1.00
H672   H     0.49483   0.33633   0.05226   0.00000  Uiso   1.00
H673   H     0.36485   0.64870   0.36078   0.00000  Uiso   1.00
H674   H     0.28966   0.71653   0.95708   0.00000  Uiso   1.00
H675   H     0.30992   0.32140   0.14277   0.00000  Uiso   1.00
H676   H     0.36074   0.20466   0.10963   0.00000  Uiso   1.00
H677   H     0.29910   0.35280   0.25595   0.00000  Uiso   1.00
H678   H     0.26344   0.38496   0.06450   0.00000  Uiso   1.00
H679   H     0.42731   0.10959   0.07019   0.00000  Uiso   1.00
H680   H     0.29733   0.42197   0.37870   0.00000  Uiso   1.00
H681   H     0.22214   0.48980   0.97500   0.00000  Uiso   1.00
O682   O     0.49592   0.15094   0.03906   0.00000  Uiso   1.00
O683   O     0.32539   0.56077   0.44382   0.00000  Uiso   1.00
O684   O     0.22674   0.64976   0.91417   0.00000  Uiso   1.00
N685   N     0.47196   0.29899   0.06102   0.00000  Uiso   1.00
N686   N     0.35045   0.59103   0.34947   0.00000  Uiso   1.00
N687   N     0.28014   0.65446   0.97205   0.00000  Uiso   1.00
N688   N     0.43563   0.17699   0.07066   0.00000  Uiso   1.00
N689   N     0.31411   0.46903   0.35911   0.00000  Uiso   1.00
N690   N     0.24381   0.53245   0.98169   0.00000  Uiso   1.00
C691   C     0.37072   0.02554   0.62663   0.00000  Uiso   1.00
C692   C     0.38974   0.93329   0.61090   0.00000  Uiso   1.00
C693   C     0.42598   0.92369   0.59230   0.00000  Uiso   1.00
C694   C     0.43820   0.83328   0.58007   0.00000  Uiso   1.00
C695   C     0.47127   0.70189   0.55473   0.00000  Uiso   1.00
C696   C     0.35626   0.01377   0.69040   0.00000  Uiso   1.00
C697   C     0.36433   0.07184   0.73865   0.00000  Uiso   1.00
C698   C     0.34836   0.04919   0.79334   0.00000  Uiso   1.00
C699   C     0.32942   0.04278   0.89142   0.00000  Uiso   1.00
C700   C     0.33689   0.03125   0.58638   0.00000  Uiso   1.00
C701   C     0.32867   0.10402   0.54717   0.00000  Uiso   1.00
C702   C     0.29638   0.09609   0.51430   0.00000  Uiso   1.00
C703   C     0.24736   0.11681   0.45087   0.00000  Uiso   1.00
C704   C     0.32799   0.88207   0.63798   0.00000  Uiso   1.00
C705   C     0.36653   0.85537   0.61706   0.00000  Uiso   1.00
C706   C     0.37870   0.76495   0.60485   0.00000  Uiso   1.00
C707   C     0.41495   0.75521   0.58624   0.00000  Uiso   1.00
C708   C     0.33305   0.93585   0.69656   0.00000  Uiso   1.00
C709   C     0.31706   0.91311   0.75120   0.00000  Uiso   1.00
C710   C     0.32511   0.97112   0.79951   0.00000  Uiso   1.00
C711   C     0.31368   0.95332   0.59254   0.00000  Uiso   1.00
C712   C     0.28139   0.94528   0.55972   0.00000  Uiso   1.00
C713   C     0.27313   0.01802   0.52047   0.00000  Uiso   1.00
H714   H     0.38879   0.08622   0.62184   0.00000  Uiso   1.00
H715   H     0.44393   0.98401   0.58755   0.00000  Uiso   1.00
H716   H     0.38229   0.13215   0.73386   0.00000  Uiso   1.00
H717   H     0.34663   0.16431   0.54242   0.00000  Uiso   1.00
H718   H     0.49483   0.83633   0.55226   0.00000  Uiso   1.00
H719   H     0.36485   0.14870   0.86078   0.00000  Uiso   1.00
H720   H     0.28966   0.21653   0.45708   0.00000  Uiso   1.00
H721   H     0.30992   0.82140   0.64277   0.00000  Uiso   1.00
H722   H     0.36074   0.70466   0.60963   0.00000  Uiso   1.00
H723   H     0.29910   0.85280   0.75595   0.00000  Uiso   1.00
H724   H     0.26344   0.88496   0.56450   0.00000  Uiso   1.00
H725   H     0.42731   0.60959   0.57019   0.00000  Uiso   1.00
H726   H     0.29733   0.92197   0.87870   0.00000  Uiso   1.00
H727   H     0.22214   0.98980   0.47500   0.00000  Uiso   1.00
O728   O     0.49592   0.65094   0.53906   0.00000  Uiso   1.00
O729   O     0.32539   0.06077   0.94382   0.00000  Uiso   1.00
O730   O     0.22674   0.14976   0.41417   0.00000  Uiso   1.00
N731   N     0.47196   0.79899   0.56102   0.00000  Uiso   1.00
N732   N     0.35045   0.09103   0.84947   0.00000  Uiso   1.00
N733   N     0.28014   0.15446   0.47205   0.00000  Uiso   1.00
N734   N     0.43563   0.67699   0.57066   0.00000  Uiso   1.00
N735   N     0.31411   0.96903   0.85911   0.00000  Uiso   1.00
N736   N     0.24381   0.03245   0.48169   0.00000  Uiso   1.00
