data_job_05715
_audit_creation_date              2018-12-19
_audit_creation_method            'Materials Studio'
_symmetry_space_group_name_H-M    'P1'
_symmetry_Int_Tables_number       1
_symmetry_cell_setting            triclinic
loop_
_symmetry_equiv_pos_as_xyz
  x,y,z
_cell_length_a                    27.4340
_cell_length_b                    27.4340
_cell_length_c                    13.5070
_cell_angle_alpha                 90.0000
_cell_angle_beta                  90.0000
_cell_angle_gamma                 90.0000
loop_
_atom_site_label
_atom_site_type_symbol
_atom_site_fract_x
_atom_site_fract_y
_atom_site_fract_z
_atom_site_U_iso_or_equiv
_atom_site_adp_type
_atom_site_occupancy
C1     C     0.00803   0.20513   0.78556   0.00000  Uiso   1.00
C2     C     0.05258   0.20637   0.85305   0.00000  Uiso   1.00
C3     C     0.10075   0.20877   0.82209   0.00000  Uiso   1.00
C4     C     0.13624   0.20955   0.89535   0.00000  Uiso   1.00
C5     C     0.20728   0.21170   0.98485   0.00000  Uiso   1.00
C6     C     0.97994   0.15916   0.81339   0.00000  Uiso   1.00
C7     C     0.96703   0.12188   0.74906   0.00000  Uiso   1.00
C8     C     0.94137   0.08293   0.78893   0.00000  Uiso   1.00
C9     C     0.89960   0.01180   0.81683   0.00000  Uiso   1.00
C10    C     0.97608   0.24786   0.81714   0.00000  Uiso   1.00
C11    C     0.95991   0.28516   0.75598   0.00000  Uiso   1.00
C12    C     0.93098   0.32088   0.79901   0.00000  Uiso   1.00
C13    C     0.88322   0.38747   0.83274   0.00000  Uiso   1.00
C14    C     0.98540   0.20224   0.97074   0.00000  Uiso   1.00
C15    C     0.04028   0.20480   0.95363   0.00000  Uiso   1.00
C16    C     0.07571   0.20558   0.02696   0.00000  Uiso   1.00
C17    C     0.12392   0.20798   0.99611   0.00000  Uiso   1.00
C18    C     0.96764   0.15759   0.91396   0.00000  Uiso   1.00
C19    C     0.94199   0.11869   0.95393   0.00000  Uiso   1.00
C20    C     0.92905   0.08136   0.88969   0.00000  Uiso   1.00
C21    C     0.96378   0.24629   0.91772   0.00000  Uiso   1.00
C22    C     0.93487   0.28196   0.96086   0.00000  Uiso   1.00
C23    C     0.91866   0.31930   0.89977   0.00000  Uiso   1.00
H24    H     0.01761   0.20635   0.70726   0.00000  Uiso   1.00
H25    H     0.11025   0.20998   0.74424   0.00000  Uiso   1.00
H26    H     0.97655   0.12311   0.67123   0.00000  Uiso   1.00
H27    H     0.96943   0.28636   0.67815   0.00000  Uiso   1.00
H28    H     0.20755   0.21331   0.82961   0.00000  Uiso   1.00
H29    H     0.92561   0.03014   0.67565   0.00000  Uiso   1.00
H30    H     0.91060   0.37438   0.69023   0.00000  Uiso   1.00
H31    H     0.97582   0.20101   0.04904   0.00000  Uiso   1.00
H32    H     0.06618   0.20436   0.10479   0.00000  Uiso   1.00
H33    H     0.93248   0.11749   0.03177   0.00000  Uiso   1.00
H34    H     0.92536   0.28073   0.03869   0.00000  Uiso   1.00
H35    H     0.17178   0.20874   0.12224   0.00000  Uiso   1.00
H36    H     0.88984   0.02557   0.96827   0.00000  Uiso   1.00
H37    H     0.87483   0.36981   0.98286   0.00000  Uiso   1.00
O38    O     0.24985   0.21331   0.00642   0.00000  Uiso   1.00
O39    O     0.87996   0.97300   0.80443   0.00000  Uiso   1.00
O40    O     0.86027   0.42464   0.82357   0.00000  Uiso   1.00
N41    N     0.18673   0.21178   0.89083   0.00000  Uiso   1.00
N42    N     0.92314   0.04053   0.74689   0.00000  Uiso   1.00
N43    N     0.90910   0.36236   0.76052   0.00000  Uiso   1.00
N44    N     0.16748   0.20933   0.04829   0.00000  Uiso   1.00
N45    N     0.90389   0.03807   0.90435   0.00000  Uiso   1.00
N46    N     0.88985   0.35990   0.91798   0.00000  Uiso   1.00
C47    C     0.50803   0.70513   0.28556   0.00000  Uiso   1.00
C48    C     0.55258   0.70637   0.35305   0.00000  Uiso   1.00
C49    C     0.60075   0.70877   0.32209   0.00000  Uiso   1.00
C50    C     0.63624   0.70955   0.39535   0.00000  Uiso   1.00
C51    C     0.70728   0.71170   0.48485   0.00000  Uiso   1.00
C52    C     0.47994   0.65916   0.31339   0.00000  Uiso   1.00
C53    C     0.46703   0.62188   0.24906   0.00000  Uiso   1.00
C54    C     0.44137   0.58293   0.28893   0.00000  Uiso   1.00
C55    C     0.39960   0.51180   0.31683   0.00000  Uiso   1.00
C56    C     0.47608   0.74786   0.31714   0.00000  Uiso   1.00
C57    C     0.45991   0.78516   0.25598   0.00000  Uiso   1.00
C58    C     0.43098   0.82088   0.29901   0.00000  Uiso   1.00
C59    C     0.38322   0.88747   0.33274   0.00000  Uiso   1.00
C60    C     0.48540   0.70224   0.47074   0.00000  Uiso   1.00
C61    C     0.54028   0.70480   0.45363   0.00000  Uiso   1.00
C62    C     0.57571   0.70558   0.52696   0.00000  Uiso   1.00
C63    C     0.62392   0.70798   0.49611   0.00000  Uiso   1.00
C64    C     0.46764   0.65759   0.41396   0.00000  Uiso   1.00
C65    C     0.44199   0.61869   0.45393   0.00000  Uiso   1.00
C66    C     0.42905   0.58136   0.38969   0.00000  Uiso   1.00
C67    C     0.46378   0.74629   0.41772   0.00000  Uiso   1.00
C68    C     0.43487   0.78196   0.46086   0.00000  Uiso   1.00
C69    C     0.41866   0.81930   0.39977   0.00000  Uiso   1.00
H70    H     0.51761   0.70635   0.20726   0.00000  Uiso   1.00
H71    H     0.61025   0.70998   0.24424   0.00000  Uiso   1.00
H72    H     0.47655   0.62311   0.17123   0.00000  Uiso   1.00
H73    H     0.46943   0.78636   0.17815   0.00000  Uiso   1.00
H74    H     0.70755   0.71331   0.32961   0.00000  Uiso   1.00
H75    H     0.42561   0.53014   0.17565   0.00000  Uiso   1.00
H76    H     0.41060   0.87438   0.19023   0.00000  Uiso   1.00
H77    H     0.47582   0.70101   0.54904   0.00000  Uiso   1.00
H78    H     0.56618   0.70436   0.60479   0.00000  Uiso   1.00
H79    H     0.43248   0.61749   0.53177   0.00000  Uiso   1.00
H80    H     0.42536   0.78073   0.53869   0.00000  Uiso   1.00
H81    H     0.67178   0.70874   0.62224   0.00000  Uiso   1.00
H82    H     0.38984   0.52557   0.46827   0.00000  Uiso   1.00
H83    H     0.37483   0.86981   0.48286   0.00000  Uiso   1.00
O84    O     0.74985   0.71331   0.50642   0.00000  Uiso   1.00
O85    O     0.37996   0.47300   0.30443   0.00000  Uiso   1.00
O86    O     0.36027   0.92464   0.32357   0.00000  Uiso   1.00
N87    N     0.68673   0.71178   0.39083   0.00000  Uiso   1.00
N88    N     0.42314   0.54053   0.24689   0.00000  Uiso   1.00
N89    N     0.40910   0.86236   0.26052   0.00000  Uiso   1.00
N90    N     0.66748   0.70933   0.54829   0.00000  Uiso   1.00
N91    N     0.40389   0.53807   0.40435   0.00000  Uiso   1.00
N92    N     0.38985   0.85990   0.41798   0.00000  Uiso   1.00
C93    C     0.99197   0.79487   0.78556   0.00000  Uiso   1.00
C94    C     0.94742   0.79363   0.85305   0.00000  Uiso   1.00
C95    C     0.89925   0.79123   0.82209   0.00000  Uiso   1.00
C96    C     0.86376   0.79045   0.89535   0.00000  Uiso   1.00
C97    C     0.79272   0.78830   0.98485   0.00000  Uiso   1.00
C98    C     0.02006   0.84084   0.81339   0.00000  Uiso   1.00
C99    C     0.03297   0.87812   0.74906   0.00000  Uiso   1.00
C100   C     0.05863   0.91707   0.78893   0.00000  Uiso   1.00
C101   C     0.10040   0.98820   0.81683   0.00000  Uiso   1.00
C102   C     0.02392   0.75214   0.81714   0.00000  Uiso   1.00
C103   C     0.04009   0.71484   0.75598   0.00000  Uiso   1.00
C104   C     0.06902   0.67912   0.79901   0.00000  Uiso   1.00
C105   C     0.11678   0.61253   0.83274   0.00000  Uiso   1.00
C106   C     0.01460   0.79776   0.97074   0.00000  Uiso   1.00
C107   C     0.95972   0.79520   0.95363   0.00000  Uiso   1.00
C108   C     0.92429   0.79442   0.02696   0.00000  Uiso   1.00
C109   C     0.87608   0.79202   0.99611   0.00000  Uiso   1.00
C110   C     0.03236   0.84241   0.91396   0.00000  Uiso   1.00
C111   C     0.05801   0.88131   0.95393   0.00000  Uiso   1.00
C112   C     0.07095   0.91864   0.88969   0.00000  Uiso   1.00
C113   C     0.03622   0.75371   0.91772   0.00000  Uiso   1.00
C114   C     0.06513   0.71804   0.96086   0.00000  Uiso   1.00
C115   C     0.08134   0.68070   0.89977   0.00000  Uiso   1.00
H116   H     0.98239   0.79365   0.70726   0.00000  Uiso   1.00
H117   H     0.88975   0.79002   0.74424   0.00000  Uiso   1.00
H118   H     0.02345   0.87689   0.67123   0.00000  Uiso   1.00
H119   H     0.03057   0.71364   0.67815   0.00000  Uiso   1.00
H120   H     0.79245   0.78669   0.82961   0.00000  Uiso   1.00
H121   H     0.07439   0.96986   0.67565   0.00000  Uiso   1.00
H122   H     0.08940   0.62562   0.69023   0.00000  Uiso   1.00
H123   H     0.02418   0.79899   0.04904   0.00000  Uiso   1.00
H124   H     0.93382   0.79564   0.10479   0.00000  Uiso   1.00
H125   H     0.06752   0.88251   0.03177   0.00000  Uiso   1.00
H126   H     0.07464   0.71927   0.03869   0.00000  Uiso   1.00
H127   H     0.82822   0.79126   0.12224   0.00000  Uiso   1.00
H128   H     0.11016   0.97443   0.96827   0.00000  Uiso   1.00
H129   H     0.12517   0.63019   0.98286   0.00000  Uiso   1.00
O130   O     0.75015   0.78669   0.00642   0.00000  Uiso   1.00
O131   O     0.12004   0.02700   0.80443   0.00000  Uiso   1.00
O132   O     0.13973   0.57536   0.82357   0.00000  Uiso   1.00
N133   N     0.81327   0.78822   0.89083   0.00000  Uiso   1.00
N134   N     0.07686   0.95947   0.74689   0.00000  Uiso   1.00
N135   N     0.09090   0.63764   0.76052   0.00000  Uiso   1.00
N136   N     0.83252   0.79067   0.04829   0.00000  Uiso   1.00
N137   N     0.09611   0.96193   0.90435   0.00000  Uiso   1.00
N138   N     0.11015   0.64010   0.91798   0.00000  Uiso   1.00
C139   C     0.49197   0.29487   0.28556   0.00000  Uiso   1.00
C140   C     0.44742   0.29363   0.35305   0.00000  Uiso   1.00
C141   C     0.39925   0.29123   0.32209   0.00000  Uiso   1.00
C142   C     0.36376   0.29045   0.39535   0.00000  Uiso   1.00
C143   C     0.29272   0.28830   0.48485   0.00000  Uiso   1.00
C144   C     0.52006   0.34084   0.31339   0.00000  Uiso   1.00
C145   C     0.53297   0.37812   0.24906   0.00000  Uiso   1.00
C146   C     0.55863   0.41707   0.28893   0.00000  Uiso   1.00
C147   C     0.60040   0.48820   0.31683   0.00000  Uiso   1.00
C148   C     0.52392   0.25214   0.31714   0.00000  Uiso   1.00
C149   C     0.54009   0.21484   0.25598   0.00000  Uiso   1.00
C150   C     0.56902   0.17912   0.29901   0.00000  Uiso   1.00
C151   C     0.61678   0.11253   0.33274   0.00000  Uiso   1.00
C152   C     0.51460   0.29776   0.47074   0.00000  Uiso   1.00
C153   C     0.45972   0.29520   0.45363   0.00000  Uiso   1.00
C154   C     0.42429   0.29442   0.52696   0.00000  Uiso   1.00
C155   C     0.37608   0.29202   0.49611   0.00000  Uiso   1.00
C156   C     0.53236   0.34241   0.41396   0.00000  Uiso   1.00
C157   C     0.55801   0.38131   0.45393   0.00000  Uiso   1.00
C158   C     0.57095   0.41864   0.38969   0.00000  Uiso   1.00
C159   C     0.53622   0.25371   0.41772   0.00000  Uiso   1.00
C160   C     0.56513   0.21804   0.46086   0.00000  Uiso   1.00
C161   C     0.58134   0.18070   0.39977   0.00000  Uiso   1.00
H162   H     0.48239   0.29365   0.20726   0.00000  Uiso   1.00
H163   H     0.38975   0.29002   0.24424   0.00000  Uiso   1.00
H164   H     0.52345   0.37689   0.17123   0.00000  Uiso   1.00
H165   H     0.53057   0.21364   0.17815   0.00000  Uiso   1.00
H166   H     0.29245   0.28669   0.32961   0.00000  Uiso   1.00
H167   H     0.57439   0.46986   0.17565   0.00000  Uiso   1.00
H168   H     0.58940   0.12562   0.19023   0.00000  Uiso   1.00
H169   H     0.52418   0.29899   0.54904   0.00000  Uiso   1.00
H170   H     0.43382   0.29564   0.60479   0.00000  Uiso   1.00
H171   H     0.56752   0.38251   0.53177   0.00000  Uiso   1.00
H172   H     0.57464   0.21927   0.53869   0.00000  Uiso   1.00
H173   H     0.32822   0.29126   0.62224   0.00000  Uiso   1.00
H174   H     0.61016   0.47443   0.46827   0.00000  Uiso   1.00
H175   H     0.62517   0.13019   0.48286   0.00000  Uiso   1.00
O176   O     0.25015   0.28669   0.50642   0.00000  Uiso   1.00
O177   O     0.62004   0.52700   0.30443   0.00000  Uiso   1.00
O178   O     0.63973   0.07536   0.32357   0.00000  Uiso   1.00
N179   N     0.31327   0.28822   0.39083   0.00000  Uiso   1.00
N180   N     0.57686   0.45947   0.24689   0.00000  Uiso   1.00
N181   N     0.59090   0.13764   0.26052   0.00000  Uiso   1.00
N182   N     0.33252   0.29067   0.54829   0.00000  Uiso   1.00
N183   N     0.59611   0.46193   0.40435   0.00000  Uiso   1.00
N184   N     0.61015   0.14010   0.41798   0.00000  Uiso   1.00
C185   C     0.20513   0.99197   0.21444   0.00000  Uiso   1.00
C186   C     0.20637   0.94742   0.14695   0.00000  Uiso   1.00
C187   C     0.20877   0.89925   0.17791   0.00000  Uiso   1.00
C188   C     0.20955   0.86376   0.10465   0.00000  Uiso   1.00
C189   C     0.21170   0.79272   0.01515   0.00000  Uiso   1.00
C190   C     0.15916   0.02006   0.18661   0.00000  Uiso   1.00
C191   C     0.12188   0.03297   0.25094   0.00000  Uiso   1.00
C192   C     0.08293   0.05863   0.21107   0.00000  Uiso   1.00
C193   C     0.01180   0.10040   0.18317   0.00000  Uiso   1.00
C194   C     0.24786   0.02392   0.18286   0.00000  Uiso   1.00
C195   C     0.28516   0.04009   0.24402   0.00000  Uiso   1.00
C196   C     0.32088   0.06902   0.20099   0.00000  Uiso   1.00
C197   C     0.38747   0.11678   0.16726   0.00000  Uiso   1.00
C198   C     0.20224   0.01460   0.02926   0.00000  Uiso   1.00
C199   C     0.20480   0.95972   0.04637   0.00000  Uiso   1.00
C200   C     0.20558   0.92429   0.97304   0.00000  Uiso   1.00
C201   C     0.20798   0.87608   0.00389   0.00000  Uiso   1.00
C202   C     0.15759   0.03236   0.08604   0.00000  Uiso   1.00
C203   C     0.11869   0.05801   0.04607   0.00000  Uiso   1.00
C204   C     0.08136   0.07095   0.11031   0.00000  Uiso   1.00
C205   C     0.24629   0.03622   0.08228   0.00000  Uiso   1.00
C206   C     0.28196   0.06513   0.03914   0.00000  Uiso   1.00
C207   C     0.31930   0.08134   0.10023   0.00000  Uiso   1.00
H208   H     0.20635   0.98239   0.29274   0.00000  Uiso   1.00
H209   H     0.20998   0.88975   0.25576   0.00000  Uiso   1.00
H210   H     0.12311   0.02345   0.32877   0.00000  Uiso   1.00
H211   H     0.28636   0.03057   0.32185   0.00000  Uiso   1.00
H212   H     0.21331   0.79245   0.17039   0.00000  Uiso   1.00
H213   H     0.03014   0.07439   0.32435   0.00000  Uiso   1.00
H214   H     0.37438   0.08940   0.30977   0.00000  Uiso   1.00
H215   H     0.20101   0.02418   0.95096   0.00000  Uiso   1.00
H216   H     0.20436   0.93382   0.89521   0.00000  Uiso   1.00
H217   H     0.11749   0.06752   0.96823   0.00000  Uiso   1.00
H218   H     0.28073   0.07464   0.96131   0.00000  Uiso   1.00
H219   H     0.20874   0.82822   0.87776   0.00000  Uiso   1.00
H220   H     0.02557   0.11016   0.03173   0.00000  Uiso   1.00
H221   H     0.36981   0.12517   0.01714   0.00000  Uiso   1.00
O222   O     0.21331   0.75015   0.99358   0.00000  Uiso   1.00
O223   O     0.97300   0.12004   0.19557   0.00000  Uiso   1.00
O224   O     0.42464   0.13973   0.17643   0.00000  Uiso   1.00
N225   N     0.21178   0.81327   0.10917   0.00000  Uiso   1.00
N226   N     0.04053   0.07686   0.25311   0.00000  Uiso   1.00
N227   N     0.36236   0.09090   0.23948   0.00000  Uiso   1.00
N228   N     0.20933   0.83252   0.95171   0.00000  Uiso   1.00
N229   N     0.03807   0.09611   0.09565   0.00000  Uiso   1.00
N230   N     0.35990   0.11015   0.08202   0.00000  Uiso   1.00
C231   C     0.70513   0.49197   0.71444   0.00000  Uiso   1.00
C232   C     0.70637   0.44742   0.64695   0.00000  Uiso   1.00
C233   C     0.70877   0.39925   0.67791   0.00000  Uiso   1.00
C234   C     0.70955   0.36376   0.60465   0.00000  Uiso   1.00
C235   C     0.71170   0.29272   0.51515   0.00000  Uiso   1.00
C236   C     0.65916   0.52006   0.68661   0.00000  Uiso   1.00
C237   C     0.62188   0.53297   0.75094   0.00000  Uiso   1.00
C238   C     0.58293   0.55863   0.71107   0.00000  Uiso   1.00
C239   C     0.51180   0.60040   0.68317   0.00000  Uiso   1.00
C240   C     0.74786   0.52392   0.68286   0.00000  Uiso   1.00
C241   C     0.78516   0.54009   0.74402   0.00000  Uiso   1.00
C242   C     0.82088   0.56902   0.70099   0.00000  Uiso   1.00
C243   C     0.88747   0.61678   0.66726   0.00000  Uiso   1.00
C244   C     0.70224   0.51460   0.52926   0.00000  Uiso   1.00
C245   C     0.70480   0.45972   0.54637   0.00000  Uiso   1.00
C246   C     0.70558   0.42429   0.47304   0.00000  Uiso   1.00
C247   C     0.70798   0.37608   0.50389   0.00000  Uiso   1.00
C248   C     0.65759   0.53236   0.58604   0.00000  Uiso   1.00
C249   C     0.61869   0.55801   0.54607   0.00000  Uiso   1.00
C250   C     0.58136   0.57095   0.61031   0.00000  Uiso   1.00
C251   C     0.74629   0.53622   0.58228   0.00000  Uiso   1.00
C252   C     0.78196   0.56513   0.53914   0.00000  Uiso   1.00
C253   C     0.81930   0.58134   0.60023   0.00000  Uiso   1.00
H254   H     0.70635   0.48239   0.79274   0.00000  Uiso   1.00
H255   H     0.70998   0.38975   0.75576   0.00000  Uiso   1.00
H256   H     0.62311   0.52345   0.82877   0.00000  Uiso   1.00
H257   H     0.78636   0.53057   0.82185   0.00000  Uiso   1.00
H258   H     0.71331   0.29245   0.67039   0.00000  Uiso   1.00
H259   H     0.53014   0.57439   0.82435   0.00000  Uiso   1.00
H260   H     0.87438   0.58940   0.80977   0.00000  Uiso   1.00
H261   H     0.70101   0.52418   0.45096   0.00000  Uiso   1.00
H262   H     0.70436   0.43382   0.39521   0.00000  Uiso   1.00
H263   H     0.61749   0.56752   0.46823   0.00000  Uiso   1.00
H264   H     0.78073   0.57464   0.46131   0.00000  Uiso   1.00
H265   H     0.70874   0.32822   0.37776   0.00000  Uiso   1.00
H266   H     0.52557   0.61016   0.53173   0.00000  Uiso   1.00
H267   H     0.86981   0.62517   0.51714   0.00000  Uiso   1.00
O268   O     0.71331   0.25015   0.49358   0.00000  Uiso   1.00
O269   O     0.47300   0.62004   0.69557   0.00000  Uiso   1.00
O270   O     0.92464   0.63973   0.67643   0.00000  Uiso   1.00
N271   N     0.71178   0.31327   0.60917   0.00000  Uiso   1.00
N272   N     0.54053   0.57686   0.75311   0.00000  Uiso   1.00
N273   N     0.86236   0.59090   0.73948   0.00000  Uiso   1.00
N274   N     0.70933   0.33252   0.45171   0.00000  Uiso   1.00
N275   N     0.53807   0.59611   0.59565   0.00000  Uiso   1.00
N276   N     0.85990   0.61015   0.58202   0.00000  Uiso   1.00
C277   C     0.79487   0.00803   0.21444   0.00000  Uiso   1.00
C278   C     0.79363   0.05258   0.14695   0.00000  Uiso   1.00
C279   C     0.79123   0.10075   0.17791   0.00000  Uiso   1.00
C280   C     0.79045   0.13624   0.10465   0.00000  Uiso   1.00
C281   C     0.78830   0.20728   0.01515   0.00000  Uiso   1.00
C282   C     0.84084   0.97994   0.18661   0.00000  Uiso   1.00
C283   C     0.87812   0.96703   0.25094   0.00000  Uiso   1.00
C284   C     0.91707   0.94137   0.21107   0.00000  Uiso   1.00
C285   C     0.98820   0.89960   0.18317   0.00000  Uiso   1.00
C286   C     0.75214   0.97608   0.18286   0.00000  Uiso   1.00
C287   C     0.71484   0.95991   0.24402   0.00000  Uiso   1.00
C288   C     0.67912   0.93098   0.20099   0.00000  Uiso   1.00
C289   C     0.61253   0.88322   0.16726   0.00000  Uiso   1.00
C290   C     0.79776   0.98540   0.02926   0.00000  Uiso   1.00
C291   C     0.79520   0.04028   0.04637   0.00000  Uiso   1.00
C292   C     0.79442   0.07571   0.97304   0.00000  Uiso   1.00
C293   C     0.79202   0.12392   0.00389   0.00000  Uiso   1.00
C294   C     0.84241   0.96764   0.08604   0.00000  Uiso   1.00
C295   C     0.88131   0.94199   0.04607   0.00000  Uiso   1.00
C296   C     0.91864   0.92905   0.11031   0.00000  Uiso   1.00
C297   C     0.75371   0.96378   0.08228   0.00000  Uiso   1.00
C298   C     0.71804   0.93487   0.03914   0.00000  Uiso   1.00
C299   C     0.68070   0.91866   0.10023   0.00000  Uiso   1.00
H300   H     0.79365   0.01761   0.29274   0.00000  Uiso   1.00
H301   H     0.79002   0.11025   0.25576   0.00000  Uiso   1.00
H302   H     0.87689   0.97655   0.32877   0.00000  Uiso   1.00
H303   H     0.71364   0.96943   0.32185   0.00000  Uiso   1.00
H304   H     0.78669   0.20755   0.17039   0.00000  Uiso   1.00
H305   H     0.96986   0.92561   0.32435   0.00000  Uiso   1.00
H306   H     0.62562   0.91060   0.30977   0.00000  Uiso   1.00
H307   H     0.79899   0.97582   0.95096   0.00000  Uiso   1.00
H308   H     0.79564   0.06618   0.89521   0.00000  Uiso   1.00
H309   H     0.88251   0.93248   0.96823   0.00000  Uiso   1.00
H310   H     0.71927   0.92536   0.96131   0.00000  Uiso   1.00
H311   H     0.79126   0.17178   0.87776   0.00000  Uiso   1.00
H312   H     0.97443   0.88984   0.03173   0.00000  Uiso   1.00
H313   H     0.63019   0.87483   0.01714   0.00000  Uiso   1.00
O314   O     0.78669   0.24985   0.99358   0.00000  Uiso   1.00
O315   O     0.02700   0.87996   0.19557   0.00000  Uiso   1.00
O316   O     0.57536   0.86027   0.17643   0.00000  Uiso   1.00
N317   N     0.78822   0.18673   0.10917   0.00000  Uiso   1.00
N318   N     0.95947   0.92314   0.25311   0.00000  Uiso   1.00
N319   N     0.63764   0.90910   0.23948   0.00000  Uiso   1.00
N320   N     0.79067   0.16748   0.95171   0.00000  Uiso   1.00
N321   N     0.96193   0.90389   0.09565   0.00000  Uiso   1.00
N322   N     0.64010   0.88985   0.08202   0.00000  Uiso   1.00
C323   C     0.29487   0.50803   0.71444   0.00000  Uiso   1.00
C324   C     0.29363   0.55258   0.64695   0.00000  Uiso   1.00
C325   C     0.29123   0.60075   0.67791   0.00000  Uiso   1.00
C326   C     0.29045   0.63624   0.60465   0.00000  Uiso   1.00
C327   C     0.28830   0.70728   0.51515   0.00000  Uiso   1.00
C328   C     0.34084   0.47994   0.68661   0.00000  Uiso   1.00
C329   C     0.37812   0.46703   0.75094   0.00000  Uiso   1.00
C330   C     0.41707   0.44137   0.71107   0.00000  Uiso   1.00
C331   C     0.48820   0.39960   0.68317   0.00000  Uiso   1.00
C332   C     0.25214   0.47608   0.68286   0.00000  Uiso   1.00
C333   C     0.21484   0.45991   0.74402   0.00000  Uiso   1.00
C334   C     0.17912   0.43098   0.70099   0.00000  Uiso   1.00
C335   C     0.11253   0.38322   0.66726   0.00000  Uiso   1.00
C336   C     0.29776   0.48540   0.52926   0.00000  Uiso   1.00
C337   C     0.29520   0.54028   0.54637   0.00000  Uiso   1.00
C338   C     0.29442   0.57571   0.47304   0.00000  Uiso   1.00
C339   C     0.29202   0.62392   0.50389   0.00000  Uiso   1.00
C340   C     0.34241   0.46764   0.58604   0.00000  Uiso   1.00
C341   C     0.38131   0.44199   0.54607   0.00000  Uiso   1.00
C342   C     0.41864   0.42905   0.61031   0.00000  Uiso   1.00
C343   C     0.25371   0.46378   0.58228   0.00000  Uiso   1.00
C344   C     0.21804   0.43487   0.53914   0.00000  Uiso   1.00
C345   C     0.18070   0.41866   0.60023   0.00000  Uiso   1.00
H346   H     0.29365   0.51761   0.79274   0.00000  Uiso   1.00
H347   H     0.29002   0.61025   0.75576   0.00000  Uiso   1.00
H348   H     0.37689   0.47655   0.82877   0.00000  Uiso   1.00
H349   H     0.21364   0.46943   0.82185   0.00000  Uiso   1.00
H350   H     0.28669   0.70755   0.67039   0.00000  Uiso   1.00
H351   H     0.46986   0.42561   0.82435   0.00000  Uiso   1.00
H352   H     0.12562   0.41060   0.80977   0.00000  Uiso   1.00
H353   H     0.29899   0.47582   0.45096   0.00000  Uiso   1.00
H354   H     0.29564   0.56618   0.39521   0.00000  Uiso   1.00
H355   H     0.38251   0.43248   0.46823   0.00000  Uiso   1.00
H356   H     0.21927   0.42536   0.46131   0.00000  Uiso   1.00
H357   H     0.29126   0.67178   0.37776   0.00000  Uiso   1.00
H358   H     0.47443   0.38984   0.53173   0.00000  Uiso   1.00
H359   H     0.13019   0.37483   0.51714   0.00000  Uiso   1.00
O360   O     0.28669   0.74985   0.49358   0.00000  Uiso   1.00
O361   O     0.52700   0.37996   0.69557   0.00000  Uiso   1.00
O362   O     0.07536   0.36027   0.67643   0.00000  Uiso   1.00
N363   N     0.28822   0.68673   0.60917   0.00000  Uiso   1.00
N364   N     0.45947   0.42314   0.75311   0.00000  Uiso   1.00
N365   N     0.13764   0.40910   0.73948   0.00000  Uiso   1.00
N366   N     0.29067   0.66748   0.45171   0.00000  Uiso   1.00
N367   N     0.46193   0.40389   0.59565   0.00000  Uiso   1.00
N368   N     0.14010   0.38985   0.58202   0.00000  Uiso   1.00
C369   C     0.49197   0.20513   0.96444   0.00000  Uiso   1.00
C370   C     0.44742   0.20637   0.89695   0.00000  Uiso   1.00
C371   C     0.39925   0.20877   0.92791   0.00000  Uiso   1.00
C372   C     0.36376   0.20955   0.85465   0.00000  Uiso   1.00
C373   C     0.29272   0.21170   0.76515   0.00000  Uiso   1.00
C374   C     0.52006   0.15916   0.93661   0.00000  Uiso   1.00
C375   C     0.53297   0.12188   0.00094   0.00000  Uiso   1.00
C376   C     0.55863   0.08293   0.96107   0.00000  Uiso   1.00
C377   C     0.60040   0.01180   0.93317   0.00000  Uiso   1.00
C378   C     0.52392   0.24786   0.93286   0.00000  Uiso   1.00
C379   C     0.54009   0.28516   0.99402   0.00000  Uiso   1.00
C380   C     0.56902   0.32088   0.95099   0.00000  Uiso   1.00
C381   C     0.61678   0.38747   0.91726   0.00000  Uiso   1.00
C382   C     0.51460   0.20224   0.77926   0.00000  Uiso   1.00
C383   C     0.45972   0.20480   0.79637   0.00000  Uiso   1.00
C384   C     0.42429   0.20558   0.72304   0.00000  Uiso   1.00
C385   C     0.37608   0.20798   0.75389   0.00000  Uiso   1.00
C386   C     0.53236   0.15759   0.83604   0.00000  Uiso   1.00
C387   C     0.55801   0.11869   0.79607   0.00000  Uiso   1.00
C388   C     0.57095   0.08136   0.86031   0.00000  Uiso   1.00
C389   C     0.53622   0.24629   0.83228   0.00000  Uiso   1.00
C390   C     0.56513   0.28196   0.78914   0.00000  Uiso   1.00
C391   C     0.58134   0.31930   0.85023   0.00000  Uiso   1.00
H392   H     0.48239   0.20635   0.04274   0.00000  Uiso   1.00
H393   H     0.38975   0.20998   0.00576   0.00000  Uiso   1.00
H394   H     0.52345   0.12311   0.07877   0.00000  Uiso   1.00
H395   H     0.53057   0.28636   0.07185   0.00000  Uiso   1.00
H396   H     0.29245   0.21331   0.92039   0.00000  Uiso   1.00
H397   H     0.57439   0.03014   0.07435   0.00000  Uiso   1.00
H398   H     0.58940   0.37438   0.05977   0.00000  Uiso   1.00
H399   H     0.52418   0.20101   0.70096   0.00000  Uiso   1.00
H400   H     0.43382   0.20436   0.64521   0.00000  Uiso   1.00
H401   H     0.56752   0.11749   0.71823   0.00000  Uiso   1.00
H402   H     0.57464   0.28073   0.71131   0.00000  Uiso   1.00
H403   H     0.32822   0.20874   0.62776   0.00000  Uiso   1.00
H404   H     0.61016   0.02557   0.78173   0.00000  Uiso   1.00
H405   H     0.62517   0.36981   0.76714   0.00000  Uiso   1.00
O406   O     0.25015   0.21331   0.74358   0.00000  Uiso   1.00
O407   O     0.62004   0.97300   0.94557   0.00000  Uiso   1.00
O408   O     0.63973   0.42464   0.92643   0.00000  Uiso   1.00
N409   N     0.31327   0.21178   0.85917   0.00000  Uiso   1.00
N410   N     0.57686   0.04053   0.00311   0.00000  Uiso   1.00
N411   N     0.59090   0.36236   0.98948   0.00000  Uiso   1.00
N412   N     0.33252   0.20933   0.70171   0.00000  Uiso   1.00
N413   N     0.59611   0.03807   0.84565   0.00000  Uiso   1.00
N414   N     0.61015   0.35990   0.83202   0.00000  Uiso   1.00
C415   C     0.99197   0.70513   0.46444   0.00000  Uiso   1.00
C416   C     0.94742   0.70637   0.39695   0.00000  Uiso   1.00
C417   C     0.89925   0.70877   0.42791   0.00000  Uiso   1.00
C418   C     0.86376   0.70955   0.35465   0.00000  Uiso   1.00
C419   C     0.79272   0.71170   0.26515   0.00000  Uiso   1.00
C420   C     0.02006   0.65916   0.43661   0.00000  Uiso   1.00
C421   C     0.03297   0.62188   0.50094   0.00000  Uiso   1.00
C422   C     0.05863   0.58293   0.46107   0.00000  Uiso   1.00
C423   C     0.10040   0.51180   0.43317   0.00000  Uiso   1.00
C424   C     0.02392   0.74786   0.43286   0.00000  Uiso   1.00
C425   C     0.04009   0.78516   0.49402   0.00000  Uiso   1.00
C426   C     0.06902   0.82088   0.45099   0.00000  Uiso   1.00
C427   C     0.11678   0.88747   0.41726   0.00000  Uiso   1.00
C428   C     0.01460   0.70224   0.27926   0.00000  Uiso   1.00
C429   C     0.95972   0.70480   0.29637   0.00000  Uiso   1.00
C430   C     0.92429   0.70558   0.22304   0.00000  Uiso   1.00
C431   C     0.87608   0.70798   0.25389   0.00000  Uiso   1.00
C432   C     0.03236   0.65759   0.33604   0.00000  Uiso   1.00
C433   C     0.05801   0.61869   0.29607   0.00000  Uiso   1.00
C434   C     0.07095   0.58136   0.36031   0.00000  Uiso   1.00
C435   C     0.03622   0.74629   0.33228   0.00000  Uiso   1.00
C436   C     0.06513   0.78196   0.28914   0.00000  Uiso   1.00
C437   C     0.08134   0.81930   0.35023   0.00000  Uiso   1.00
H438   H     0.98239   0.70635   0.54274   0.00000  Uiso   1.00
H439   H     0.88975   0.70998   0.50576   0.00000  Uiso   1.00
H440   H     0.02345   0.62311   0.57877   0.00000  Uiso   1.00
H441   H     0.03057   0.78636   0.57185   0.00000  Uiso   1.00
H442   H     0.79245   0.71331   0.42039   0.00000  Uiso   1.00
H443   H     0.07439   0.53014   0.57435   0.00000  Uiso   1.00
H444   H     0.08940   0.87438   0.55977   0.00000  Uiso   1.00
H445   H     0.02418   0.70101   0.20096   0.00000  Uiso   1.00
H446   H     0.93382   0.70436   0.14521   0.00000  Uiso   1.00
H447   H     0.06752   0.61749   0.21823   0.00000  Uiso   1.00
H448   H     0.07464   0.78073   0.21131   0.00000  Uiso   1.00
H449   H     0.82822   0.70874   0.12776   0.00000  Uiso   1.00
H450   H     0.11016   0.52557   0.28173   0.00000  Uiso   1.00
H451   H     0.12517   0.86981   0.26714   0.00000  Uiso   1.00
O452   O     0.75015   0.71331   0.24358   0.00000  Uiso   1.00
O453   O     0.12004   0.47300   0.44557   0.00000  Uiso   1.00
O454   O     0.13973   0.92464   0.42643   0.00000  Uiso   1.00
N455   N     0.81327   0.71178   0.35917   0.00000  Uiso   1.00
N456   N     0.07686   0.54053   0.50311   0.00000  Uiso   1.00
N457   N     0.09090   0.86236   0.48948   0.00000  Uiso   1.00
N458   N     0.83252   0.70933   0.20171   0.00000  Uiso   1.00
N459   N     0.09611   0.53807   0.34565   0.00000  Uiso   1.00
N460   N     0.11015   0.85990   0.33202   0.00000  Uiso   1.00
C461   C     0.50803   0.79487   0.96444   0.00000  Uiso   1.00
C462   C     0.55258   0.79363   0.89695   0.00000  Uiso   1.00
C463   C     0.60075   0.79123   0.92791   0.00000  Uiso   1.00
C464   C     0.63624   0.79045   0.85465   0.00000  Uiso   1.00
C465   C     0.70728   0.78830   0.76515   0.00000  Uiso   1.00
C466   C     0.47994   0.84084   0.93661   0.00000  Uiso   1.00
C467   C     0.46703   0.87812   0.00094   0.00000  Uiso   1.00
C468   C     0.44137   0.91707   0.96107   0.00000  Uiso   1.00
C469   C     0.39960   0.98820   0.93317   0.00000  Uiso   1.00
C470   C     0.47608   0.75214   0.93286   0.00000  Uiso   1.00
C471   C     0.45991   0.71484   0.99402   0.00000  Uiso   1.00
C472   C     0.43098   0.67912   0.95099   0.00000  Uiso   1.00
C473   C     0.38322   0.61253   0.91726   0.00000  Uiso   1.00
C474   C     0.48540   0.79776   0.77926   0.00000  Uiso   1.00
C475   C     0.54028   0.79520   0.79637   0.00000  Uiso   1.00
C476   C     0.57571   0.79442   0.72304   0.00000  Uiso   1.00
C477   C     0.62392   0.79202   0.75389   0.00000  Uiso   1.00
C478   C     0.46764   0.84241   0.83604   0.00000  Uiso   1.00
C479   C     0.44199   0.88131   0.79607   0.00000  Uiso   1.00
C480   C     0.42905   0.91864   0.86031   0.00000  Uiso   1.00
C481   C     0.46378   0.75371   0.83228   0.00000  Uiso   1.00
C482   C     0.43487   0.71804   0.78914   0.00000  Uiso   1.00
C483   C     0.41866   0.68070   0.85023   0.00000  Uiso   1.00
H484   H     0.51761   0.79365   0.04274   0.00000  Uiso   1.00
H485   H     0.61025   0.79002   0.00576   0.00000  Uiso   1.00
H486   H     0.47655   0.87689   0.07877   0.00000  Uiso   1.00
H487   H     0.46943   0.71364   0.07185   0.00000  Uiso   1.00
H488   H     0.70755   0.78669   0.92039   0.00000  Uiso   1.00
H489   H     0.42561   0.96986   0.07435   0.00000  Uiso   1.00
H490   H     0.41060   0.62562   0.05977   0.00000  Uiso   1.00
H491   H     0.47582   0.79899   0.70096   0.00000  Uiso   1.00
H492   H     0.56618   0.79564   0.64521   0.00000  Uiso   1.00
H493   H     0.43248   0.88251   0.71823   0.00000  Uiso   1.00
H494   H     0.42536   0.71927   0.71131   0.00000  Uiso   1.00
H495   H     0.67178   0.79126   0.62776   0.00000  Uiso   1.00
H496   H     0.38984   0.97443   0.78173   0.00000  Uiso   1.00
H497   H     0.37483   0.63019   0.76714   0.00000  Uiso   1.00
O498   O     0.74985   0.78669   0.74358   0.00000  Uiso   1.00
O499   O     0.37996   0.02700   0.94557   0.00000  Uiso   1.00
O500   O     0.36027   0.57536   0.92643   0.00000  Uiso   1.00
N501   N     0.68673   0.78822   0.85917   0.00000  Uiso   1.00
N502   N     0.42314   0.95947   0.00311   0.00000  Uiso   1.00
N503   N     0.40910   0.63764   0.98948   0.00000  Uiso   1.00
N504   N     0.66748   0.79067   0.70171   0.00000  Uiso   1.00
N505   N     0.40389   0.96193   0.84565   0.00000  Uiso   1.00
N506   N     0.38985   0.64010   0.83202   0.00000  Uiso   1.00
C507   C     0.00803   0.29487   0.46444   0.00000  Uiso   1.00
C508   C     0.05258   0.29363   0.39695   0.00000  Uiso   1.00
C509   C     0.10075   0.29123   0.42791   0.00000  Uiso   1.00
C510   C     0.13624   0.29045   0.35465   0.00000  Uiso   1.00
C511   C     0.20728   0.28830   0.26515   0.00000  Uiso   1.00
C512   C     0.97994   0.34084   0.43661   0.00000  Uiso   1.00
C513   C     0.96703   0.37812   0.50094   0.00000  Uiso   1.00
C514   C     0.94137   0.41707   0.46107   0.00000  Uiso   1.00
C515   C     0.89960   0.48820   0.43317   0.00000  Uiso   1.00
C516   C     0.97608   0.25214   0.43286   0.00000  Uiso   1.00
C517   C     0.95991   0.21484   0.49402   0.00000  Uiso   1.00
C518   C     0.93098   0.17912   0.45099   0.00000  Uiso   1.00
C519   C     0.88322   0.11253   0.41726   0.00000  Uiso   1.00
C520   C     0.98540   0.29776   0.27926   0.00000  Uiso   1.00
C521   C     0.04028   0.29520   0.29637   0.00000  Uiso   1.00
C522   C     0.07571   0.29442   0.22304   0.00000  Uiso   1.00
C523   C     0.12392   0.29202   0.25389   0.00000  Uiso   1.00
C524   C     0.96764   0.34241   0.33604   0.00000  Uiso   1.00
C525   C     0.94199   0.38131   0.29607   0.00000  Uiso   1.00
C526   C     0.92905   0.41864   0.36031   0.00000  Uiso   1.00
C527   C     0.96378   0.25371   0.33228   0.00000  Uiso   1.00
C528   C     0.93487   0.21804   0.28914   0.00000  Uiso   1.00
C529   C     0.91866   0.18070   0.35023   0.00000  Uiso   1.00
H530   H     0.01761   0.29365   0.54274   0.00000  Uiso   1.00
H531   H     0.11025   0.29002   0.50576   0.00000  Uiso   1.00
H532   H     0.97655   0.37689   0.57877   0.00000  Uiso   1.00
H533   H     0.96943   0.21364   0.57185   0.00000  Uiso   1.00
H534   H     0.20755   0.28669   0.42039   0.00000  Uiso   1.00
H535   H     0.92561   0.46986   0.57435   0.00000  Uiso   1.00
H536   H     0.91060   0.12562   0.55977   0.00000  Uiso   1.00
H537   H     0.97582   0.29899   0.20096   0.00000  Uiso   1.00
H538   H     0.06618   0.29564   0.14521   0.00000  Uiso   1.00
H539   H     0.93248   0.38251   0.21823   0.00000  Uiso   1.00
H540   H     0.92536   0.21927   0.21131   0.00000  Uiso   1.00
H541   H     0.17178   0.29126   0.12776   0.00000  Uiso   1.00
H542   H     0.88984   0.47443   0.28173   0.00000  Uiso   1.00
H543   H     0.87483   0.13019   0.26714   0.00000  Uiso   1.00
O544   O     0.24985   0.28669   0.24358   0.00000  Uiso   1.00
O545   O     0.87996   0.52700   0.44557   0.00000  Uiso   1.00
O546   O     0.86027   0.07536   0.42643   0.00000  Uiso   1.00
N547   N     0.18673   0.28822   0.35917   0.00000  Uiso   1.00
N548   N     0.92314   0.45947   0.50311   0.00000  Uiso   1.00
N549   N     0.90910   0.13764   0.48948   0.00000  Uiso   1.00
N550   N     0.16748   0.29067   0.20171   0.00000  Uiso   1.00
N551   N     0.90389   0.46193   0.34565   0.00000  Uiso   1.00
N552   N     0.88985   0.14010   0.33202   0.00000  Uiso   1.00
C553   C     0.29487   0.99197   0.53556   0.00000  Uiso   1.00
C554   C     0.29363   0.94742   0.60305   0.00000  Uiso   1.00
C555   C     0.29123   0.89925   0.57209   0.00000  Uiso   1.00
C556   C     0.29045   0.86376   0.64535   0.00000  Uiso   1.00
C557   C     0.28830   0.79272   0.73485   0.00000  Uiso   1.00
C558   C     0.34084   0.02006   0.56339   0.00000  Uiso   1.00
C559   C     0.37812   0.03297   0.49906   0.00000  Uiso   1.00
C560   C     0.41707   0.05863   0.53893   0.00000  Uiso   1.00
C561   C     0.48820   0.10040   0.56683   0.00000  Uiso   1.00
C562   C     0.25214   0.02392   0.56714   0.00000  Uiso   1.00
C563   C     0.21484   0.04009   0.50598   0.00000  Uiso   1.00
C564   C     0.17912   0.06902   0.54901   0.00000  Uiso   1.00
C565   C     0.11253   0.11678   0.58274   0.00000  Uiso   1.00
C566   C     0.29776   0.01460   0.72074   0.00000  Uiso   1.00
C567   C     0.29520   0.95972   0.70363   0.00000  Uiso   1.00
C568   C     0.29442   0.92429   0.77696   0.00000  Uiso   1.00
C569   C     0.29202   0.87608   0.74611   0.00000  Uiso   1.00
C570   C     0.34241   0.03236   0.66396   0.00000  Uiso   1.00
C571   C     0.38131   0.05801   0.70393   0.00000  Uiso   1.00
C572   C     0.41864   0.07095   0.63969   0.00000  Uiso   1.00
C573   C     0.25371   0.03622   0.66772   0.00000  Uiso   1.00
C574   C     0.21804   0.06513   0.71086   0.00000  Uiso   1.00
C575   C     0.18070   0.08134   0.64977   0.00000  Uiso   1.00
H576   H     0.29365   0.98239   0.45726   0.00000  Uiso   1.00
H577   H     0.29002   0.88975   0.49424   0.00000  Uiso   1.00
H578   H     0.37689   0.02345   0.42123   0.00000  Uiso   1.00
H579   H     0.21364   0.03057   0.42815   0.00000  Uiso   1.00
H580   H     0.28669   0.79245   0.57961   0.00000  Uiso   1.00
H581   H     0.46986   0.07439   0.42565   0.00000  Uiso   1.00
H582   H     0.12562   0.08940   0.44023   0.00000  Uiso   1.00
H583   H     0.29899   0.02418   0.79904   0.00000  Uiso   1.00
H584   H     0.29564   0.93382   0.85479   0.00000  Uiso   1.00
H585   H     0.38251   0.06752   0.78177   0.00000  Uiso   1.00
H586   H     0.21927   0.07464   0.78869   0.00000  Uiso   1.00
H587   H     0.29126   0.82822   0.87224   0.00000  Uiso   1.00
H588   H     0.47443   0.11016   0.71827   0.00000  Uiso   1.00
H589   H     0.13019   0.12517   0.73286   0.00000  Uiso   1.00
O590   O     0.28669   0.75015   0.75642   0.00000  Uiso   1.00
O591   O     0.52700   0.12004   0.55443   0.00000  Uiso   1.00
O592   O     0.07536   0.13973   0.57357   0.00000  Uiso   1.00
N593   N     0.28822   0.81327   0.64083   0.00000  Uiso   1.00
N594   N     0.45947   0.07686   0.49689   0.00000  Uiso   1.00
N595   N     0.13764   0.09090   0.51052   0.00000  Uiso   1.00
N596   N     0.29067   0.83252   0.79829   0.00000  Uiso   1.00
N597   N     0.46193   0.09611   0.65435   0.00000  Uiso   1.00
N598   N     0.14010   0.11015   0.66798   0.00000  Uiso   1.00
C599   C     0.79487   0.49197   0.03556   0.00000  Uiso   1.00
C600   C     0.79363   0.44742   0.10305   0.00000  Uiso   1.00
C601   C     0.79123   0.39925   0.07209   0.00000  Uiso   1.00
C602   C     0.79045   0.36376   0.14535   0.00000  Uiso   1.00
C603   C     0.78830   0.29272   0.23485   0.00000  Uiso   1.00
C604   C     0.84084   0.52006   0.06339   0.00000  Uiso   1.00
C605   C     0.87812   0.53297   0.99906   0.00000  Uiso   1.00
C606   C     0.91707   0.55863   0.03893   0.00000  Uiso   1.00
C607   C     0.98820   0.60040   0.06683   0.00000  Uiso   1.00
C608   C     0.75214   0.52392   0.06714   0.00000  Uiso   1.00
C609   C     0.71484   0.54009   0.00598   0.00000  Uiso   1.00
C610   C     0.67912   0.56902   0.04901   0.00000  Uiso   1.00
C611   C     0.61253   0.61678   0.08274   0.00000  Uiso   1.00
C612   C     0.79776   0.51460   0.22074   0.00000  Uiso   1.00
C613   C     0.79520   0.45972   0.20363   0.00000  Uiso   1.00
C614   C     0.79442   0.42429   0.27696   0.00000  Uiso   1.00
C615   C     0.79202   0.37608   0.24611   0.00000  Uiso   1.00
C616   C     0.84241   0.53236   0.16396   0.00000  Uiso   1.00
C617   C     0.88131   0.55801   0.20393   0.00000  Uiso   1.00
C618   C     0.91864   0.57095   0.13969   0.00000  Uiso   1.00
C619   C     0.75371   0.53622   0.16772   0.00000  Uiso   1.00
C620   C     0.71804   0.56513   0.21086   0.00000  Uiso   1.00
C621   C     0.68070   0.58134   0.14977   0.00000  Uiso   1.00
H622   H     0.79365   0.48239   0.95726   0.00000  Uiso   1.00
H623   H     0.79002   0.38975   0.99424   0.00000  Uiso   1.00
H624   H     0.87689   0.52345   0.92123   0.00000  Uiso   1.00
H625   H     0.71364   0.53057   0.92815   0.00000  Uiso   1.00
H626   H     0.78669   0.29245   0.07961   0.00000  Uiso   1.00
H627   H     0.96986   0.57439   0.92565   0.00000  Uiso   1.00
H628   H     0.62562   0.58940   0.94023   0.00000  Uiso   1.00
H629   H     0.79899   0.52418   0.29904   0.00000  Uiso   1.00
H630   H     0.79564   0.43382   0.35479   0.00000  Uiso   1.00
H631   H     0.88251   0.56752   0.28177   0.00000  Uiso   1.00
H632   H     0.71927   0.57464   0.28869   0.00000  Uiso   1.00
H633   H     0.79126   0.32822   0.37224   0.00000  Uiso   1.00
H634   H     0.97443   0.61016   0.21827   0.00000  Uiso   1.00
H635   H     0.63019   0.62517   0.23286   0.00000  Uiso   1.00
O636   O     0.78669   0.25015   0.25642   0.00000  Uiso   1.00
O637   O     0.02700   0.62004   0.05443   0.00000  Uiso   1.00
O638   O     0.57536   0.63973   0.07357   0.00000  Uiso   1.00
N639   N     0.78822   0.31327   0.14083   0.00000  Uiso   1.00
N640   N     0.95947   0.57686   0.99689   0.00000  Uiso   1.00
N641   N     0.63764   0.59090   0.01052   0.00000  Uiso   1.00
N642   N     0.79067   0.33252   0.29829   0.00000  Uiso   1.00
N643   N     0.96193   0.59611   0.15435   0.00000  Uiso   1.00
N644   N     0.64010   0.61015   0.16798   0.00000  Uiso   1.00
C645   C     0.70513   0.00803   0.53556   0.00000  Uiso   1.00
C646   C     0.70637   0.05258   0.60305   0.00000  Uiso   1.00
C647   C     0.70877   0.10075   0.57209   0.00000  Uiso   1.00
C648   C     0.70955   0.13624   0.64535   0.00000  Uiso   1.00
C649   C     0.71170   0.20728   0.73485   0.00000  Uiso   1.00
C650   C     0.65916   0.97994   0.56339   0.00000  Uiso   1.00
C651   C     0.62188   0.96703   0.49906   0.00000  Uiso   1.00
C652   C     0.58293   0.94137   0.53893   0.00000  Uiso   1.00
C653   C     0.51180   0.89960   0.56683   0.00000  Uiso   1.00
C654   C     0.74786   0.97608   0.56714   0.00000  Uiso   1.00
C655   C     0.78516   0.95991   0.50598   0.00000  Uiso   1.00
C656   C     0.82088   0.93098   0.54901   0.00000  Uiso   1.00
C657   C     0.88747   0.88322   0.58274   0.00000  Uiso   1.00
C658   C     0.70224   0.98540   0.72074   0.00000  Uiso   1.00
C659   C     0.70480   0.04028   0.70363   0.00000  Uiso   1.00
C660   C     0.70558   0.07571   0.77696   0.00000  Uiso   1.00
C661   C     0.70798   0.12392   0.74611   0.00000  Uiso   1.00
C662   C     0.65759   0.96764   0.66396   0.00000  Uiso   1.00
C663   C     0.61869   0.94199   0.70393   0.00000  Uiso   1.00
C664   C     0.58136   0.92905   0.63969   0.00000  Uiso   1.00
C665   C     0.74629   0.96378   0.66772   0.00000  Uiso   1.00
C666   C     0.78196   0.93487   0.71086   0.00000  Uiso   1.00
C667   C     0.81930   0.91866   0.64977   0.00000  Uiso   1.00
H668   H     0.70635   0.01761   0.45726   0.00000  Uiso   1.00
H669   H     0.70998   0.11025   0.49424   0.00000  Uiso   1.00
H670   H     0.62311   0.97655   0.42123   0.00000  Uiso   1.00
H671   H     0.78636   0.96943   0.42815   0.00000  Uiso   1.00
H672   H     0.71331   0.20755   0.57961   0.00000  Uiso   1.00
H673   H     0.53014   0.92561   0.42565   0.00000  Uiso   1.00
H674   H     0.87438   0.91060   0.44023   0.00000  Uiso   1.00
H675   H     0.70101   0.97582   0.79904   0.00000  Uiso   1.00
H676   H     0.70436   0.06618   0.85479   0.00000  Uiso   1.00
H677   H     0.61749   0.93248   0.78177   0.00000  Uiso   1.00
H678   H     0.78073   0.92536   0.78869   0.00000  Uiso   1.00
H679   H     0.70874   0.17178   0.87224   0.00000  Uiso   1.00
H680   H     0.52557   0.88984   0.71827   0.00000  Uiso   1.00
H681   H     0.86981   0.87483   0.73286   0.00000  Uiso   1.00
O682   O     0.71331   0.24985   0.75642   0.00000  Uiso   1.00
O683   O     0.47300   0.87996   0.55443   0.00000  Uiso   1.00
O684   O     0.92464   0.86027   0.57357   0.00000  Uiso   1.00
N685   N     0.71178   0.18673   0.64083   0.00000  Uiso   1.00
N686   N     0.54053   0.92314   0.49689   0.00000  Uiso   1.00
N687   N     0.86236   0.90910   0.51052   0.00000  Uiso   1.00
N688   N     0.70933   0.16748   0.79829   0.00000  Uiso   1.00
N689   N     0.53807   0.90389   0.65435   0.00000  Uiso   1.00
N690   N     0.85990   0.88985   0.66798   0.00000  Uiso   1.00
C691   C     0.20513   0.50803   0.03556   0.00000  Uiso   1.00
C692   C     0.20637   0.55258   0.10305   0.00000  Uiso   1.00
C693   C     0.20877   0.60075   0.07209   0.00000  Uiso   1.00
C694   C     0.20955   0.63624   0.14535   0.00000  Uiso   1.00
C695   C     0.21170   0.70728   0.23485   0.00000  Uiso   1.00
C696   C     0.15916   0.47994   0.06339   0.00000  Uiso   1.00
C697   C     0.12188   0.46703   0.99906   0.00000  Uiso   1.00
C698   C     0.08293   0.44137   0.03893   0.00000  Uiso   1.00
C699   C     0.01180   0.39960   0.06683   0.00000  Uiso   1.00
C700   C     0.24786   0.47608   0.06714   0.00000  Uiso   1.00
C701   C     0.28516   0.45991   0.00598   0.00000  Uiso   1.00
C702   C     0.32088   0.43098   0.04901   0.00000  Uiso   1.00
C703   C     0.38747   0.38322   0.08274   0.00000  Uiso   1.00
C704   C     0.20224   0.48540   0.22074   0.00000  Uiso   1.00
C705   C     0.20480   0.54028   0.20363   0.00000  Uiso   1.00
C706   C     0.20558   0.57571   0.27696   0.00000  Uiso   1.00
C707   C     0.20798   0.62392   0.24611   0.00000  Uiso   1.00
C708   C     0.15759   0.46764   0.16396   0.00000  Uiso   1.00
C709   C     0.11869   0.44199   0.20393   0.00000  Uiso   1.00
C710   C     0.08136   0.42905   0.13969   0.00000  Uiso   1.00
C711   C     0.24629   0.46378   0.16772   0.00000  Uiso   1.00
C712   C     0.28196   0.43487   0.21086   0.00000  Uiso   1.00
C713   C     0.31930   0.41866   0.14977   0.00000  Uiso   1.00
H714   H     0.20635   0.51761   0.95726   0.00000  Uiso   1.00
H715   H     0.20998   0.61025   0.99424   0.00000  Uiso   1.00
H716   H     0.12311   0.47655   0.92123   0.00000  Uiso   1.00
H717   H     0.28636   0.46943   0.92815   0.00000  Uiso   1.00
H718   H     0.21331   0.70755   0.07961   0.00000  Uiso   1.00
H719   H     0.03014   0.42561   0.92565   0.00000  Uiso   1.00
H720   H     0.37438   0.41060   0.94023   0.00000  Uiso   1.00
H721   H     0.20101   0.47582   0.29904   0.00000  Uiso   1.00
H722   H     0.20436   0.56618   0.35479   0.00000  Uiso   1.00
H723   H     0.11749   0.43248   0.28177   0.00000  Uiso   1.00
H724   H     0.28073   0.42536   0.28869   0.00000  Uiso   1.00
H725   H     0.20874   0.67178   0.37224   0.00000  Uiso   1.00
H726   H     0.02557   0.38984   0.21827   0.00000  Uiso   1.00
H727   H     0.36981   0.37483   0.23286   0.00000  Uiso   1.00
O728   O     0.21331   0.74985   0.25642   0.00000  Uiso   1.00
O729   O     0.97300   0.37996   0.05443   0.00000  Uiso   1.00
O730   O     0.42464   0.36027   0.07357   0.00000  Uiso   1.00
N731   N     0.21178   0.68673   0.14083   0.00000  Uiso   1.00
N732   N     0.04053   0.42314   0.99689   0.00000  Uiso   1.00
N733   N     0.36236   0.40910   0.01052   0.00000  Uiso   1.00
N734   N     0.20933   0.66748   0.29829   0.00000  Uiso   1.00
N735   N     0.03807   0.40389   0.15435   0.00000  Uiso   1.00
N736   N     0.35990   0.38985   0.16798   0.00000  Uiso   1.00
