data_job_01518
_audit_creation_date              2018-12-19
_audit_creation_method            'Materials Studio'
_symmetry_space_group_name_H-M    'P1'
_symmetry_Int_Tables_number       1
_symmetry_cell_setting            triclinic
loop_
_symmetry_equiv_pos_as_xyz
  x,y,z
_cell_length_a                    35.4544
_cell_length_b                    35.4544
_cell_length_c                    7.5096
_cell_angle_alpha                 90.0000
_cell_angle_beta                  90.0000
_cell_angle_gamma                 90.0000
loop_
_atom_site_label
_atom_site_type_symbol
_atom_site_fract_x
_atom_site_fract_y
_atom_site_fract_z
_atom_site_U_iso_or_equiv
_atom_site_adp_type
_atom_site_occupancy
C1     C     0.90704   0.67165   0.51878   0.00000  Uiso   1.00
C2     C     0.92393   0.70831   0.44859   0.00000  Uiso   1.00
C3     C     0.92990   0.74086   0.54728   0.00000  Uiso   1.00
C4     C     0.94565   0.77140   0.45861   0.00000  Uiso   1.00
C5     C     0.97042   0.82862   0.37711   0.00000  Uiso   1.00
C6     C     0.87311   0.66318   0.40055   0.00000  Uiso   1.00
C7     C     0.83636   0.65779   0.45886   0.00000  Uiso   1.00
C8     C     0.80934   0.65034   0.32975   0.00000  Uiso   1.00
C9     C     0.75522   0.63748   0.17369   0.00000  Uiso   1.00
C10    C     0.93597   0.64096   0.47902   0.00000  Uiso   1.00
C11    C     0.95207   0.61687   0.60330   0.00000  Uiso   1.00
C12    C     0.97796   0.59070   0.54025   0.00000  Uiso   1.00
C13    C     0.02145   0.54335   0.50602   0.00000  Uiso   1.00
C14    C     0.92440   0.66800   0.18582   0.00000  Uiso   1.00
C15    C     0.93335   0.70633   0.26773   0.00000  Uiso   1.00
C16    C     0.94910   0.73682   0.17889   0.00000  Uiso   1.00
C17    C     0.95510   0.76941   0.27744   0.00000  Uiso   1.00
C18    C     0.88254   0.66120   0.21970   0.00000  Uiso   1.00
C19    C     0.85556   0.65375   0.09048   0.00000  Uiso   1.00
C20    C     0.81878   0.64835   0.14857   0.00000  Uiso   1.00
C21    C     0.94540   0.63898   0.29817   0.00000  Uiso   1.00
C22    C     0.97127   0.61284   0.23491   0.00000  Uiso   1.00
C23    C     0.98741   0.58872   0.35907   0.00000  Uiso   1.00
H24    H     0.89970   0.67319   0.65958   0.00000  Uiso   1.00
H25    H     0.92260   0.74238   0.68723   0.00000  Uiso   1.00
H26    H     0.82907   0.65932   0.59883   0.00000  Uiso   1.00
H27    H     0.94477   0.61841   0.74324   0.00000  Uiso   1.00
H28    H     0.95213   0.81822   0.63812   0.00000  Uiso   1.00
H29    H     0.75493   0.64307   0.45172   0.00000  Uiso   1.00
H30    H     0.99889   0.55681   0.75625   0.00000  Uiso   1.00
H31    H     0.93174   0.66646   0.04501   0.00000  Uiso   1.00
H32    H     0.95639   0.73528   0.03894   0.00000  Uiso   1.00
H33    H     0.86287   0.65222   0.95054   0.00000  Uiso   1.00
H34    H     0.97856   0.61132   0.09495   0.00000  Uiso   1.00
H35    H     0.97956   0.81246   0.11194   0.00000  Uiso   1.00
H36    H     0.78236   0.63731   0.92554   0.00000  Uiso   1.00
H37    H     0.02632   0.55105   0.23007   0.00000  Uiso   1.00
O38    O     0.98147   0.86074   0.38211   0.00000  Uiso   1.00
O39    O     0.72276   0.63094   0.13757   0.00000  Uiso   1.00
O40    O     0.04283   0.51777   0.53710   0.00000  Uiso   1.00
N41    N     0.95521   0.80742   0.51512   0.00000  Uiso   1.00
N42    N     0.77084   0.64367   0.34085   0.00000  Uiso   1.00
N43    N     0.99891   0.56302   0.62555   0.00000  Uiso   1.00
N44    N     0.96997   0.80432   0.23199   0.00000  Uiso   1.00
N45    N     0.78560   0.64057   0.05772   0.00000  Uiso   1.00
N46    N     0.01367   0.55992   0.34242   0.00000  Uiso   1.00
C47    C     0.40704   0.17165   0.01878   0.00000  Uiso   1.00
C48    C     0.42393   0.20831   0.94859   0.00000  Uiso   1.00
C49    C     0.42990   0.24086   0.04728   0.00000  Uiso   1.00
C50    C     0.44565   0.27140   0.95861   0.00000  Uiso   1.00
C51    C     0.47042   0.32862   0.87711   0.00000  Uiso   1.00
C52    C     0.37311   0.16318   0.90055   0.00000  Uiso   1.00
C53    C     0.33636   0.15779   0.95886   0.00000  Uiso   1.00
C54    C     0.30934   0.15034   0.82975   0.00000  Uiso   1.00
C55    C     0.25522   0.13748   0.67369   0.00000  Uiso   1.00
C56    C     0.43597   0.14096   0.97902   0.00000  Uiso   1.00
C57    C     0.45207   0.11687   0.10330   0.00000  Uiso   1.00
C58    C     0.47796   0.09070   0.04025   0.00000  Uiso   1.00
C59    C     0.52145   0.04335   0.00602   0.00000  Uiso   1.00
C60    C     0.42440   0.16800   0.68582   0.00000  Uiso   1.00
C61    C     0.43335   0.20633   0.76773   0.00000  Uiso   1.00
C62    C     0.44910   0.23682   0.67889   0.00000  Uiso   1.00
C63    C     0.45510   0.26941   0.77744   0.00000  Uiso   1.00
C64    C     0.38254   0.16120   0.71970   0.00000  Uiso   1.00
C65    C     0.35556   0.15375   0.59048   0.00000  Uiso   1.00
C66    C     0.31878   0.14835   0.64857   0.00000  Uiso   1.00
C67    C     0.44540   0.13898   0.79817   0.00000  Uiso   1.00
C68    C     0.47127   0.11284   0.73491   0.00000  Uiso   1.00
C69    C     0.48741   0.08872   0.85907   0.00000  Uiso   1.00
H70    H     0.39970   0.17319   0.15958   0.00000  Uiso   1.00
H71    H     0.42260   0.24238   0.18723   0.00000  Uiso   1.00
H72    H     0.32907   0.15932   0.09883   0.00000  Uiso   1.00
H73    H     0.44477   0.11841   0.24324   0.00000  Uiso   1.00
H74    H     0.45213   0.31822   0.13812   0.00000  Uiso   1.00
H75    H     0.25493   0.14307   0.95172   0.00000  Uiso   1.00
H76    H     0.49889   0.05681   0.25625   0.00000  Uiso   1.00
H77    H     0.43174   0.16646   0.54501   0.00000  Uiso   1.00
H78    H     0.45639   0.23528   0.53894   0.00000  Uiso   1.00
H79    H     0.36287   0.15222   0.45054   0.00000  Uiso   1.00
H80    H     0.47856   0.11132   0.59495   0.00000  Uiso   1.00
H81    H     0.47956   0.31246   0.61194   0.00000  Uiso   1.00
H82    H     0.28236   0.13731   0.42554   0.00000  Uiso   1.00
H83    H     0.52632   0.05105   0.73007   0.00000  Uiso   1.00
O84    O     0.48147   0.36074   0.88211   0.00000  Uiso   1.00
O85    O     0.22276   0.13094   0.63757   0.00000  Uiso   1.00
O86    O     0.54283   0.01777   0.03710   0.00000  Uiso   1.00
N87    N     0.45521   0.30742   0.01512   0.00000  Uiso   1.00
N88    N     0.27084   0.14367   0.84085   0.00000  Uiso   1.00
N89    N     0.49891   0.06302   0.12555   0.00000  Uiso   1.00
N90    N     0.46997   0.30432   0.73199   0.00000  Uiso   1.00
N91    N     0.28560   0.14057   0.55772   0.00000  Uiso   1.00
N92    N     0.51367   0.05992   0.84242   0.00000  Uiso   1.00
C93    C     0.59296   0.82835   0.01878   0.00000  Uiso   1.00
C94    C     0.57607   0.79169   0.94859   0.00000  Uiso   1.00
C95    C     0.57010   0.75914   0.04728   0.00000  Uiso   1.00
C96    C     0.55435   0.72860   0.95861   0.00000  Uiso   1.00
C97    C     0.52958   0.67138   0.87711   0.00000  Uiso   1.00
C98    C     0.62689   0.83682   0.90055   0.00000  Uiso   1.00
C99    C     0.66364   0.84221   0.95886   0.00000  Uiso   1.00
C100   C     0.69066   0.84966   0.82975   0.00000  Uiso   1.00
C101   C     0.74478   0.86252   0.67369   0.00000  Uiso   1.00
C102   C     0.56403   0.85904   0.97902   0.00000  Uiso   1.00
C103   C     0.54793   0.88313   0.10330   0.00000  Uiso   1.00
C104   C     0.52204   0.90930   0.04025   0.00000  Uiso   1.00
C105   C     0.47855   0.95665   0.00602   0.00000  Uiso   1.00
C106   C     0.57560   0.83200   0.68582   0.00000  Uiso   1.00
C107   C     0.56665   0.79367   0.76773   0.00000  Uiso   1.00
C108   C     0.55090   0.76318   0.67889   0.00000  Uiso   1.00
C109   C     0.54490   0.73059   0.77744   0.00000  Uiso   1.00
C110   C     0.61746   0.83880   0.71970   0.00000  Uiso   1.00
C111   C     0.64444   0.84625   0.59048   0.00000  Uiso   1.00
C112   C     0.68122   0.85165   0.64857   0.00000  Uiso   1.00
C113   C     0.55460   0.86102   0.79817   0.00000  Uiso   1.00
C114   C     0.52873   0.88716   0.73491   0.00000  Uiso   1.00
C115   C     0.51259   0.91128   0.85907   0.00000  Uiso   1.00
H116   H     0.60030   0.82681   0.15958   0.00000  Uiso   1.00
H117   H     0.57740   0.75762   0.18723   0.00000  Uiso   1.00
H118   H     0.67093   0.84068   0.09883   0.00000  Uiso   1.00
H119   H     0.55523   0.88159   0.24324   0.00000  Uiso   1.00
H120   H     0.54787   0.68178   0.13812   0.00000  Uiso   1.00
H121   H     0.74507   0.85693   0.95172   0.00000  Uiso   1.00
H122   H     0.50111   0.94319   0.25625   0.00000  Uiso   1.00
H123   H     0.56826   0.83354   0.54501   0.00000  Uiso   1.00
H124   H     0.54361   0.76472   0.53894   0.00000  Uiso   1.00
H125   H     0.63713   0.84778   0.45054   0.00000  Uiso   1.00
H126   H     0.52144   0.88868   0.59495   0.00000  Uiso   1.00
H127   H     0.52044   0.68754   0.61194   0.00000  Uiso   1.00
H128   H     0.71764   0.86269   0.42554   0.00000  Uiso   1.00
H129   H     0.47368   0.94895   0.73007   0.00000  Uiso   1.00
O130   O     0.51853   0.63926   0.88211   0.00000  Uiso   1.00
O131   O     0.77724   0.86906   0.63757   0.00000  Uiso   1.00
O132   O     0.45717   0.98223   0.03710   0.00000  Uiso   1.00
N133   N     0.54479   0.69258   0.01512   0.00000  Uiso   1.00
N134   N     0.72916   0.85633   0.84085   0.00000  Uiso   1.00
N135   N     0.50109   0.93698   0.12555   0.00000  Uiso   1.00
N136   N     0.53003   0.69568   0.73199   0.00000  Uiso   1.00
N137   N     0.71440   0.85943   0.55772   0.00000  Uiso   1.00
N138   N     0.48633   0.94008   0.84242   0.00000  Uiso   1.00
C139   C     0.09296   0.32835   0.51878   0.00000  Uiso   1.00
C140   C     0.07607   0.29169   0.44859   0.00000  Uiso   1.00
C141   C     0.07010   0.25914   0.54728   0.00000  Uiso   1.00
C142   C     0.05435   0.22860   0.45861   0.00000  Uiso   1.00
C143   C     0.02958   0.17138   0.37711   0.00000  Uiso   1.00
C144   C     0.12689   0.33682   0.40055   0.00000  Uiso   1.00
C145   C     0.16364   0.34221   0.45886   0.00000  Uiso   1.00
C146   C     0.19066   0.34966   0.32975   0.00000  Uiso   1.00
C147   C     0.24478   0.36252   0.17369   0.00000  Uiso   1.00
C148   C     0.06403   0.35904   0.47902   0.00000  Uiso   1.00
C149   C     0.04793   0.38313   0.60330   0.00000  Uiso   1.00
C150   C     0.02204   0.40930   0.54025   0.00000  Uiso   1.00
C151   C     0.97855   0.45665   0.50602   0.00000  Uiso   1.00
C152   C     0.07560   0.33200   0.18582   0.00000  Uiso   1.00
C153   C     0.06665   0.29367   0.26773   0.00000  Uiso   1.00
C154   C     0.05090   0.26318   0.17889   0.00000  Uiso   1.00
C155   C     0.04490   0.23059   0.27744   0.00000  Uiso   1.00
C156   C     0.11746   0.33880   0.21970   0.00000  Uiso   1.00
C157   C     0.14444   0.34625   0.09048   0.00000  Uiso   1.00
C158   C     0.18122   0.35165   0.14857   0.00000  Uiso   1.00
C159   C     0.05460   0.36102   0.29817   0.00000  Uiso   1.00
C160   C     0.02873   0.38716   0.23491   0.00000  Uiso   1.00
C161   C     0.01259   0.41128   0.35907   0.00000  Uiso   1.00
H162   H     0.10030   0.32681   0.65958   0.00000  Uiso   1.00
H163   H     0.07740   0.25762   0.68723   0.00000  Uiso   1.00
H164   H     0.17093   0.34068   0.59883   0.00000  Uiso   1.00
H165   H     0.05523   0.38159   0.74324   0.00000  Uiso   1.00
H166   H     0.04787   0.18178   0.63812   0.00000  Uiso   1.00
H167   H     0.24507   0.35693   0.45172   0.00000  Uiso   1.00
H168   H     0.00111   0.44319   0.75625   0.00000  Uiso   1.00
H169   H     0.06826   0.33354   0.04501   0.00000  Uiso   1.00
H170   H     0.04361   0.26472   0.03894   0.00000  Uiso   1.00
H171   H     0.13713   0.34778   0.95054   0.00000  Uiso   1.00
H172   H     0.02144   0.38868   0.09495   0.00000  Uiso   1.00
H173   H     0.02044   0.18754   0.11194   0.00000  Uiso   1.00
H174   H     0.21764   0.36269   0.92554   0.00000  Uiso   1.00
H175   H     0.97368   0.44895   0.23007   0.00000  Uiso   1.00
O176   O     0.01853   0.13926   0.38211   0.00000  Uiso   1.00
O177   O     0.27724   0.36906   0.13757   0.00000  Uiso   1.00
O178   O     0.95717   0.48223   0.53710   0.00000  Uiso   1.00
N179   N     0.04479   0.19258   0.51512   0.00000  Uiso   1.00
N180   N     0.22916   0.35633   0.34085   0.00000  Uiso   1.00
N181   N     0.00109   0.43698   0.62555   0.00000  Uiso   1.00
N182   N     0.03003   0.19568   0.23199   0.00000  Uiso   1.00
N183   N     0.21440   0.35943   0.05772   0.00000  Uiso   1.00
N184   N     0.98633   0.44008   0.34242   0.00000  Uiso   1.00
C185   C     0.32835   0.40704   0.76878   0.00000  Uiso   1.00
C186   C     0.29169   0.42393   0.69859   0.00000  Uiso   1.00
C187   C     0.25914   0.42990   0.79728   0.00000  Uiso   1.00
C188   C     0.22860   0.44565   0.70861   0.00000  Uiso   1.00
C189   C     0.17138   0.47042   0.62711   0.00000  Uiso   1.00
C190   C     0.33682   0.37311   0.65055   0.00000  Uiso   1.00
C191   C     0.34221   0.33636   0.70886   0.00000  Uiso   1.00
C192   C     0.34966   0.30934   0.57975   0.00000  Uiso   1.00
C193   C     0.36252   0.25522   0.42369   0.00000  Uiso   1.00
C194   C     0.35904   0.43597   0.72902   0.00000  Uiso   1.00
C195   C     0.38313   0.45207   0.85330   0.00000  Uiso   1.00
C196   C     0.40930   0.47796   0.79025   0.00000  Uiso   1.00
C197   C     0.45665   0.52145   0.75602   0.00000  Uiso   1.00
C198   C     0.33200   0.42440   0.43582   0.00000  Uiso   1.00
C199   C     0.29367   0.43335   0.51773   0.00000  Uiso   1.00
C200   C     0.26318   0.44910   0.42889   0.00000  Uiso   1.00
C201   C     0.23059   0.45510   0.52744   0.00000  Uiso   1.00
C202   C     0.33880   0.38254   0.46970   0.00000  Uiso   1.00
C203   C     0.34625   0.35556   0.34048   0.00000  Uiso   1.00
C204   C     0.35165   0.31878   0.39857   0.00000  Uiso   1.00
C205   C     0.36102   0.44540   0.54817   0.00000  Uiso   1.00
C206   C     0.38716   0.47127   0.48491   0.00000  Uiso   1.00
C207   C     0.41128   0.48741   0.60907   0.00000  Uiso   1.00
H208   H     0.32681   0.39970   0.90958   0.00000  Uiso   1.00
H209   H     0.25762   0.42260   0.93723   0.00000  Uiso   1.00
H210   H     0.34068   0.32907   0.84883   0.00000  Uiso   1.00
H211   H     0.38159   0.44477   0.99324   0.00000  Uiso   1.00
H212   H     0.18178   0.45213   0.88812   0.00000  Uiso   1.00
H213   H     0.35693   0.25493   0.70172   0.00000  Uiso   1.00
H214   H     0.44319   0.49889   0.00625   0.00000  Uiso   1.00
H215   H     0.33354   0.43174   0.29501   0.00000  Uiso   1.00
H216   H     0.26472   0.45639   0.28894   0.00000  Uiso   1.00
H217   H     0.34778   0.36287   0.20054   0.00000  Uiso   1.00
H218   H     0.38868   0.47856   0.34495   0.00000  Uiso   1.00
H219   H     0.18754   0.47956   0.36194   0.00000  Uiso   1.00
H220   H     0.36269   0.28236   0.17554   0.00000  Uiso   1.00
H221   H     0.44895   0.52632   0.48007   0.00000  Uiso   1.00
O222   O     0.13926   0.48147   0.63211   0.00000  Uiso   1.00
O223   O     0.36906   0.22276   0.38757   0.00000  Uiso   1.00
O224   O     0.48223   0.54283   0.78710   0.00000  Uiso   1.00
N225   N     0.19258   0.45521   0.76512   0.00000  Uiso   1.00
N226   N     0.35633   0.27084   0.59085   0.00000  Uiso   1.00
N227   N     0.43698   0.49891   0.87555   0.00000  Uiso   1.00
N228   N     0.19568   0.46997   0.48199   0.00000  Uiso   1.00
N229   N     0.35943   0.28560   0.30772   0.00000  Uiso   1.00
N230   N     0.44008   0.51367   0.59242   0.00000  Uiso   1.00
C231   C     0.82835   0.90704   0.26878   0.00000  Uiso   1.00
C232   C     0.79169   0.92393   0.19859   0.00000  Uiso   1.00
C233   C     0.75914   0.92990   0.29728   0.00000  Uiso   1.00
C234   C     0.72860   0.94565   0.20861   0.00000  Uiso   1.00
C235   C     0.67138   0.97042   0.12711   0.00000  Uiso   1.00
C236   C     0.83682   0.87311   0.15055   0.00000  Uiso   1.00
C237   C     0.84221   0.83636   0.20886   0.00000  Uiso   1.00
C238   C     0.84966   0.80934   0.07975   0.00000  Uiso   1.00
C239   C     0.86252   0.75522   0.92369   0.00000  Uiso   1.00
C240   C     0.85904   0.93597   0.22902   0.00000  Uiso   1.00
C241   C     0.88313   0.95207   0.35330   0.00000  Uiso   1.00
C242   C     0.90930   0.97796   0.29025   0.00000  Uiso   1.00
C243   C     0.95665   0.02145   0.25602   0.00000  Uiso   1.00
C244   C     0.83200   0.92440   0.93582   0.00000  Uiso   1.00
C245   C     0.79367   0.93335   0.01773   0.00000  Uiso   1.00
C246   C     0.76318   0.94910   0.92889   0.00000  Uiso   1.00
C247   C     0.73059   0.95510   0.02744   0.00000  Uiso   1.00
C248   C     0.83880   0.88254   0.96970   0.00000  Uiso   1.00
C249   C     0.84625   0.85556   0.84048   0.00000  Uiso   1.00
C250   C     0.85165   0.81878   0.89857   0.00000  Uiso   1.00
C251   C     0.86102   0.94540   0.04817   0.00000  Uiso   1.00
C252   C     0.88716   0.97127   0.98491   0.00000  Uiso   1.00
C253   C     0.91128   0.98741   0.10907   0.00000  Uiso   1.00
H254   H     0.82681   0.89970   0.40958   0.00000  Uiso   1.00
H255   H     0.75762   0.92260   0.43723   0.00000  Uiso   1.00
H256   H     0.84068   0.82907   0.34883   0.00000  Uiso   1.00
H257   H     0.88159   0.94477   0.49324   0.00000  Uiso   1.00
H258   H     0.68178   0.95213   0.38812   0.00000  Uiso   1.00
H259   H     0.85693   0.75493   0.20172   0.00000  Uiso   1.00
H260   H     0.94319   0.99889   0.50625   0.00000  Uiso   1.00
H261   H     0.83354   0.93174   0.79501   0.00000  Uiso   1.00
H262   H     0.76472   0.95639   0.78894   0.00000  Uiso   1.00
H263   H     0.84778   0.86287   0.70054   0.00000  Uiso   1.00
H264   H     0.88868   0.97856   0.84495   0.00000  Uiso   1.00
H265   H     0.68754   0.97956   0.86194   0.00000  Uiso   1.00
H266   H     0.86269   0.78236   0.67554   0.00000  Uiso   1.00
H267   H     0.94895   0.02632   0.98007   0.00000  Uiso   1.00
O268   O     0.63926   0.98147   0.13211   0.00000  Uiso   1.00
O269   O     0.86906   0.72276   0.88757   0.00000  Uiso   1.00
O270   O     0.98223   0.04283   0.28710   0.00000  Uiso   1.00
N271   N     0.69258   0.95521   0.26512   0.00000  Uiso   1.00
N272   N     0.85633   0.77084   0.09085   0.00000  Uiso   1.00
N273   N     0.93698   0.99891   0.37555   0.00000  Uiso   1.00
N274   N     0.69568   0.96997   0.98199   0.00000  Uiso   1.00
N275   N     0.85943   0.78560   0.80772   0.00000  Uiso   1.00
N276   N     0.94008   0.01367   0.09242   0.00000  Uiso   1.00
C277   C     0.17165   0.09296   0.26878   0.00000  Uiso   1.00
C278   C     0.20831   0.07607   0.19859   0.00000  Uiso   1.00
C279   C     0.24086   0.07010   0.29728   0.00000  Uiso   1.00
C280   C     0.27140   0.05435   0.20861   0.00000  Uiso   1.00
C281   C     0.32862   0.02958   0.12711   0.00000  Uiso   1.00
C282   C     0.16318   0.12689   0.15055   0.00000  Uiso   1.00
C283   C     0.15779   0.16364   0.20886   0.00000  Uiso   1.00
C284   C     0.15034   0.19066   0.07975   0.00000  Uiso   1.00
C285   C     0.13748   0.24478   0.92369   0.00000  Uiso   1.00
C286   C     0.14096   0.06403   0.22902   0.00000  Uiso   1.00
C287   C     0.11687   0.04793   0.35330   0.00000  Uiso   1.00
C288   C     0.09070   0.02204   0.29025   0.00000  Uiso   1.00
C289   C     0.04335   0.97855   0.25602   0.00000  Uiso   1.00
C290   C     0.16800   0.07560   0.93582   0.00000  Uiso   1.00
C291   C     0.20633   0.06665   0.01773   0.00000  Uiso   1.00
C292   C     0.23682   0.05090   0.92889   0.00000  Uiso   1.00
C293   C     0.26941   0.04490   0.02744   0.00000  Uiso   1.00
C294   C     0.16120   0.11746   0.96970   0.00000  Uiso   1.00
C295   C     0.15375   0.14444   0.84048   0.00000  Uiso   1.00
C296   C     0.14835   0.18122   0.89857   0.00000  Uiso   1.00
C297   C     0.13898   0.05460   0.04817   0.00000  Uiso   1.00
C298   C     0.11284   0.02873   0.98491   0.00000  Uiso   1.00
C299   C     0.08872   0.01259   0.10907   0.00000  Uiso   1.00
H300   H     0.17319   0.10030   0.40958   0.00000  Uiso   1.00
H301   H     0.24238   0.07740   0.43723   0.00000  Uiso   1.00
H302   H     0.15932   0.17093   0.34883   0.00000  Uiso   1.00
H303   H     0.11841   0.05523   0.49324   0.00000  Uiso   1.00
H304   H     0.31822   0.04787   0.38812   0.00000  Uiso   1.00
H305   H     0.14307   0.24507   0.20172   0.00000  Uiso   1.00
H306   H     0.05681   0.00111   0.50625   0.00000  Uiso   1.00
H307   H     0.16646   0.06826   0.79501   0.00000  Uiso   1.00
H308   H     0.23528   0.04361   0.78894   0.00000  Uiso   1.00
H309   H     0.15222   0.13713   0.70054   0.00000  Uiso   1.00
H310   H     0.11132   0.02144   0.84495   0.00000  Uiso   1.00
H311   H     0.31246   0.02044   0.86194   0.00000  Uiso   1.00
H312   H     0.13731   0.21764   0.67554   0.00000  Uiso   1.00
H313   H     0.05105   0.97368   0.98007   0.00000  Uiso   1.00
O314   O     0.36074   0.01853   0.13211   0.00000  Uiso   1.00
O315   O     0.13094   0.27724   0.88757   0.00000  Uiso   1.00
O316   O     0.01777   0.95717   0.28710   0.00000  Uiso   1.00
N317   N     0.30742   0.04479   0.26512   0.00000  Uiso   1.00
N318   N     0.14367   0.22916   0.09085   0.00000  Uiso   1.00
N319   N     0.06302   0.00109   0.37555   0.00000  Uiso   1.00
N320   N     0.30432   0.03003   0.98199   0.00000  Uiso   1.00
N321   N     0.14057   0.21440   0.80772   0.00000  Uiso   1.00
N322   N     0.05992   0.98633   0.09242   0.00000  Uiso   1.00
C323   C     0.67165   0.59296   0.76878   0.00000  Uiso   1.00
C324   C     0.70831   0.57607   0.69859   0.00000  Uiso   1.00
C325   C     0.74086   0.57010   0.79728   0.00000  Uiso   1.00
C326   C     0.77140   0.55435   0.70861   0.00000  Uiso   1.00
C327   C     0.82862   0.52958   0.62711   0.00000  Uiso   1.00
C328   C     0.66318   0.62689   0.65055   0.00000  Uiso   1.00
C329   C     0.65779   0.66364   0.70886   0.00000  Uiso   1.00
C330   C     0.65034   0.69066   0.57975   0.00000  Uiso   1.00
C331   C     0.63748   0.74478   0.42369   0.00000  Uiso   1.00
C332   C     0.64096   0.56403   0.72902   0.00000  Uiso   1.00
C333   C     0.61687   0.54793   0.85330   0.00000  Uiso   1.00
C334   C     0.59070   0.52204   0.79025   0.00000  Uiso   1.00
C335   C     0.54335   0.47855   0.75602   0.00000  Uiso   1.00
C336   C     0.66800   0.57560   0.43582   0.00000  Uiso   1.00
C337   C     0.70633   0.56665   0.51773   0.00000  Uiso   1.00
C338   C     0.73682   0.55090   0.42889   0.00000  Uiso   1.00
C339   C     0.76941   0.54490   0.52744   0.00000  Uiso   1.00
C340   C     0.66120   0.61746   0.46970   0.00000  Uiso   1.00
C341   C     0.65375   0.64444   0.34048   0.00000  Uiso   1.00
C342   C     0.64835   0.68122   0.39857   0.00000  Uiso   1.00
C343   C     0.63898   0.55460   0.54817   0.00000  Uiso   1.00
C344   C     0.61284   0.52873   0.48491   0.00000  Uiso   1.00
C345   C     0.58872   0.51259   0.60907   0.00000  Uiso   1.00
H346   H     0.67319   0.60030   0.90958   0.00000  Uiso   1.00
H347   H     0.74238   0.57740   0.93723   0.00000  Uiso   1.00
H348   H     0.65932   0.67093   0.84883   0.00000  Uiso   1.00
H349   H     0.61841   0.55523   0.99324   0.00000  Uiso   1.00
H350   H     0.81822   0.54787   0.88812   0.00000  Uiso   1.00
H351   H     0.64307   0.74507   0.70172   0.00000  Uiso   1.00
H352   H     0.55681   0.50111   0.00625   0.00000  Uiso   1.00
H353   H     0.66646   0.56826   0.29501   0.00000  Uiso   1.00
H354   H     0.73528   0.54361   0.28894   0.00000  Uiso   1.00
H355   H     0.65222   0.63713   0.20054   0.00000  Uiso   1.00
H356   H     0.61132   0.52144   0.34495   0.00000  Uiso   1.00
H357   H     0.81246   0.52044   0.36194   0.00000  Uiso   1.00
H358   H     0.63731   0.71764   0.17554   0.00000  Uiso   1.00
H359   H     0.55105   0.47368   0.48007   0.00000  Uiso   1.00
O360   O     0.86074   0.51853   0.63211   0.00000  Uiso   1.00
O361   O     0.63094   0.77724   0.38757   0.00000  Uiso   1.00
O362   O     0.51777   0.45717   0.78710   0.00000  Uiso   1.00
N363   N     0.80742   0.54479   0.76512   0.00000  Uiso   1.00
N364   N     0.64367   0.72916   0.59085   0.00000  Uiso   1.00
N365   N     0.56302   0.50109   0.87555   0.00000  Uiso   1.00
N366   N     0.80432   0.53003   0.48199   0.00000  Uiso   1.00
N367   N     0.64057   0.71440   0.30772   0.00000  Uiso   1.00
N368   N     0.55992   0.48633   0.59242   0.00000  Uiso   1.00
C369   C     0.09296   0.82835   0.73122   0.00000  Uiso   1.00
C370   C     0.07607   0.79169   0.80141   0.00000  Uiso   1.00
C371   C     0.07010   0.75914   0.70272   0.00000  Uiso   1.00
C372   C     0.05435   0.72860   0.79139   0.00000  Uiso   1.00
C373   C     0.02958   0.67138   0.87289   0.00000  Uiso   1.00
C374   C     0.12689   0.83682   0.84945   0.00000  Uiso   1.00
C375   C     0.16364   0.84221   0.79114   0.00000  Uiso   1.00
C376   C     0.19066   0.84966   0.92025   0.00000  Uiso   1.00
C377   C     0.24478   0.86252   0.07631   0.00000  Uiso   1.00
C378   C     0.06403   0.85904   0.77098   0.00000  Uiso   1.00
C379   C     0.04793   0.88313   0.64670   0.00000  Uiso   1.00
C380   C     0.02204   0.90930   0.70975   0.00000  Uiso   1.00
C381   C     0.97855   0.95665   0.74398   0.00000  Uiso   1.00
C382   C     0.07560   0.83200   0.06418   0.00000  Uiso   1.00
C383   C     0.06665   0.79367   0.98227   0.00000  Uiso   1.00
C384   C     0.05090   0.76318   0.07111   0.00000  Uiso   1.00
C385   C     0.04490   0.73059   0.97256   0.00000  Uiso   1.00
C386   C     0.11746   0.83880   0.03030   0.00000  Uiso   1.00
C387   C     0.14444   0.84625   0.15952   0.00000  Uiso   1.00
C388   C     0.18122   0.85165   0.10143   0.00000  Uiso   1.00
C389   C     0.05460   0.86102   0.95183   0.00000  Uiso   1.00
C390   C     0.02873   0.88716   0.01509   0.00000  Uiso   1.00
C391   C     0.01259   0.91128   0.89093   0.00000  Uiso   1.00
H392   H     0.10030   0.82681   0.59042   0.00000  Uiso   1.00
H393   H     0.07740   0.75762   0.56277   0.00000  Uiso   1.00
H394   H     0.17093   0.84068   0.65117   0.00000  Uiso   1.00
H395   H     0.05523   0.88159   0.50676   0.00000  Uiso   1.00
H396   H     0.04787   0.68178   0.61188   0.00000  Uiso   1.00
H397   H     0.24507   0.85693   0.79828   0.00000  Uiso   1.00
H398   H     0.00111   0.94319   0.49375   0.00000  Uiso   1.00
H399   H     0.06826   0.83354   0.20499   0.00000  Uiso   1.00
H400   H     0.04361   0.76472   0.21106   0.00000  Uiso   1.00
H401   H     0.13713   0.84778   0.29946   0.00000  Uiso   1.00
H402   H     0.02144   0.88868   0.15505   0.00000  Uiso   1.00
H403   H     0.02044   0.68754   0.13806   0.00000  Uiso   1.00
H404   H     0.21764   0.86269   0.32446   0.00000  Uiso   1.00
H405   H     0.97368   0.94895   0.01993   0.00000  Uiso   1.00
O406   O     0.01853   0.63926   0.86789   0.00000  Uiso   1.00
O407   O     0.27724   0.86906   0.11243   0.00000  Uiso   1.00
O408   O     0.95717   0.98223   0.71290   0.00000  Uiso   1.00
N409   N     0.04479   0.69258   0.73488   0.00000  Uiso   1.00
N410   N     0.22916   0.85633   0.90915   0.00000  Uiso   1.00
N411   N     0.00109   0.93698   0.62445   0.00000  Uiso   1.00
N412   N     0.03003   0.69568   0.01801   0.00000  Uiso   1.00
N413   N     0.21440   0.85943   0.19228   0.00000  Uiso   1.00
N414   N     0.98633   0.94008   0.90758   0.00000  Uiso   1.00
C415   C     0.59296   0.32835   0.23122   0.00000  Uiso   1.00
C416   C     0.57607   0.29169   0.30141   0.00000  Uiso   1.00
C417   C     0.57010   0.25914   0.20272   0.00000  Uiso   1.00
C418   C     0.55435   0.22860   0.29139   0.00000  Uiso   1.00
C419   C     0.52958   0.17138   0.37289   0.00000  Uiso   1.00
C420   C     0.62689   0.33682   0.34945   0.00000  Uiso   1.00
C421   C     0.66364   0.34221   0.29114   0.00000  Uiso   1.00
C422   C     0.69066   0.34966   0.42025   0.00000  Uiso   1.00
C423   C     0.74478   0.36252   0.57631   0.00000  Uiso   1.00
C424   C     0.56403   0.35904   0.27098   0.00000  Uiso   1.00
C425   C     0.54793   0.38313   0.14670   0.00000  Uiso   1.00
C426   C     0.52204   0.40930   0.20975   0.00000  Uiso   1.00
C427   C     0.47855   0.45665   0.24398   0.00000  Uiso   1.00
C428   C     0.57560   0.33200   0.56418   0.00000  Uiso   1.00
C429   C     0.56665   0.29367   0.48227   0.00000  Uiso   1.00
C430   C     0.55090   0.26318   0.57111   0.00000  Uiso   1.00
C431   C     0.54490   0.23059   0.47256   0.00000  Uiso   1.00
C432   C     0.61746   0.33880   0.53030   0.00000  Uiso   1.00
C433   C     0.64444   0.34625   0.65952   0.00000  Uiso   1.00
C434   C     0.68122   0.35165   0.60143   0.00000  Uiso   1.00
C435   C     0.55460   0.36102   0.45183   0.00000  Uiso   1.00
C436   C     0.52873   0.38716   0.51509   0.00000  Uiso   1.00
C437   C     0.51259   0.41128   0.39093   0.00000  Uiso   1.00
H438   H     0.60030   0.32681   0.09042   0.00000  Uiso   1.00
H439   H     0.57740   0.25762   0.06277   0.00000  Uiso   1.00
H440   H     0.67093   0.34068   0.15117   0.00000  Uiso   1.00
H441   H     0.55523   0.38159   0.00676   0.00000  Uiso   1.00
H442   H     0.54787   0.18178   0.11188   0.00000  Uiso   1.00
H443   H     0.74507   0.35693   0.29828   0.00000  Uiso   1.00
H444   H     0.50111   0.44319   0.99375   0.00000  Uiso   1.00
H445   H     0.56826   0.33354   0.70499   0.00000  Uiso   1.00
H446   H     0.54361   0.26472   0.71106   0.00000  Uiso   1.00
H447   H     0.63713   0.34778   0.79946   0.00000  Uiso   1.00
H448   H     0.52144   0.38868   0.65505   0.00000  Uiso   1.00
H449   H     0.52044   0.18754   0.63806   0.00000  Uiso   1.00
H450   H     0.71764   0.36269   0.82446   0.00000  Uiso   1.00
H451   H     0.47368   0.44895   0.51993   0.00000  Uiso   1.00
O452   O     0.51853   0.13926   0.36789   0.00000  Uiso   1.00
O453   O     0.77724   0.36906   0.61243   0.00000  Uiso   1.00
O454   O     0.45717   0.48223   0.21290   0.00000  Uiso   1.00
N455   N     0.54479   0.19258   0.23488   0.00000  Uiso   1.00
N456   N     0.72916   0.35633   0.40915   0.00000  Uiso   1.00
N457   N     0.50109   0.43698   0.12445   0.00000  Uiso   1.00
N458   N     0.53003   0.19568   0.51801   0.00000  Uiso   1.00
N459   N     0.71440   0.35943   0.69228   0.00000  Uiso   1.00
N460   N     0.48633   0.44008   0.40758   0.00000  Uiso   1.00
C461   C     0.40704   0.67165   0.23122   0.00000  Uiso   1.00
C462   C     0.42393   0.70831   0.30141   0.00000  Uiso   1.00
C463   C     0.42990   0.74086   0.20272   0.00000  Uiso   1.00
C464   C     0.44565   0.77140   0.29139   0.00000  Uiso   1.00
C465   C     0.47042   0.82862   0.37289   0.00000  Uiso   1.00
C466   C     0.37311   0.66318   0.34945   0.00000  Uiso   1.00
C467   C     0.33636   0.65779   0.29114   0.00000  Uiso   1.00
C468   C     0.30934   0.65034   0.42025   0.00000  Uiso   1.00
C469   C     0.25522   0.63748   0.57631   0.00000  Uiso   1.00
C470   C     0.43597   0.64096   0.27098   0.00000  Uiso   1.00
C471   C     0.45207   0.61687   0.14670   0.00000  Uiso   1.00
C472   C     0.47796   0.59070   0.20975   0.00000  Uiso   1.00
C473   C     0.52145   0.54335   0.24398   0.00000  Uiso   1.00
C474   C     0.42440   0.66800   0.56418   0.00000  Uiso   1.00
C475   C     0.43335   0.70633   0.48227   0.00000  Uiso   1.00
C476   C     0.44910   0.73682   0.57111   0.00000  Uiso   1.00
C477   C     0.45510   0.76941   0.47256   0.00000  Uiso   1.00
C478   C     0.38254   0.66120   0.53030   0.00000  Uiso   1.00
C479   C     0.35556   0.65375   0.65952   0.00000  Uiso   1.00
C480   C     0.31878   0.64835   0.60143   0.00000  Uiso   1.00
C481   C     0.44540   0.63898   0.45183   0.00000  Uiso   1.00
C482   C     0.47127   0.61284   0.51509   0.00000  Uiso   1.00
C483   C     0.48741   0.58872   0.39093   0.00000  Uiso   1.00
H484   H     0.39970   0.67319   0.09042   0.00000  Uiso   1.00
H485   H     0.42260   0.74238   0.06277   0.00000  Uiso   1.00
H486   H     0.32907   0.65932   0.15117   0.00000  Uiso   1.00
H487   H     0.44477   0.61841   0.00676   0.00000  Uiso   1.00
H488   H     0.45213   0.81822   0.11188   0.00000  Uiso   1.00
H489   H     0.25493   0.64307   0.29828   0.00000  Uiso   1.00
H490   H     0.49889   0.55681   0.99375   0.00000  Uiso   1.00
H491   H     0.43174   0.66646   0.70499   0.00000  Uiso   1.00
H492   H     0.45639   0.73528   0.71106   0.00000  Uiso   1.00
H493   H     0.36287   0.65222   0.79946   0.00000  Uiso   1.00
H494   H     0.47856   0.61132   0.65505   0.00000  Uiso   1.00
H495   H     0.47956   0.81246   0.63806   0.00000  Uiso   1.00
H496   H     0.28236   0.63731   0.82446   0.00000  Uiso   1.00
H497   H     0.52632   0.55105   0.51993   0.00000  Uiso   1.00
O498   O     0.48147   0.86074   0.36789   0.00000  Uiso   1.00
O499   O     0.22276   0.63094   0.61243   0.00000  Uiso   1.00
O500   O     0.54283   0.51777   0.21290   0.00000  Uiso   1.00
N501   N     0.45521   0.80742   0.23488   0.00000  Uiso   1.00
N502   N     0.27084   0.64367   0.40915   0.00000  Uiso   1.00
N503   N     0.49891   0.56302   0.12445   0.00000  Uiso   1.00
N504   N     0.46997   0.80432   0.51801   0.00000  Uiso   1.00
N505   N     0.28560   0.64057   0.69228   0.00000  Uiso   1.00
N506   N     0.51367   0.55992   0.40758   0.00000  Uiso   1.00
C507   C     0.90704   0.17165   0.73122   0.00000  Uiso   1.00
C508   C     0.92393   0.20831   0.80141   0.00000  Uiso   1.00
C509   C     0.92990   0.24086   0.70272   0.00000  Uiso   1.00
C510   C     0.94565   0.27140   0.79139   0.00000  Uiso   1.00
C511   C     0.97042   0.32862   0.87289   0.00000  Uiso   1.00
C512   C     0.87311   0.16318   0.84945   0.00000  Uiso   1.00
C513   C     0.83636   0.15779   0.79114   0.00000  Uiso   1.00
C514   C     0.80934   0.15034   0.92025   0.00000  Uiso   1.00
C515   C     0.75522   0.13748   0.07631   0.00000  Uiso   1.00
C516   C     0.93597   0.14096   0.77098   0.00000  Uiso   1.00
C517   C     0.95207   0.11687   0.64670   0.00000  Uiso   1.00
C518   C     0.97796   0.09070   0.70975   0.00000  Uiso   1.00
C519   C     0.02145   0.04335   0.74398   0.00000  Uiso   1.00
C520   C     0.92440   0.16800   0.06418   0.00000  Uiso   1.00
C521   C     0.93335   0.20633   0.98227   0.00000  Uiso   1.00
C522   C     0.94910   0.23682   0.07111   0.00000  Uiso   1.00
C523   C     0.95510   0.26941   0.97256   0.00000  Uiso   1.00
C524   C     0.88254   0.16120   0.03030   0.00000  Uiso   1.00
C525   C     0.85556   0.15375   0.15952   0.00000  Uiso   1.00
C526   C     0.81878   0.14835   0.10143   0.00000  Uiso   1.00
C527   C     0.94540   0.13898   0.95183   0.00000  Uiso   1.00
C528   C     0.97127   0.11284   0.01509   0.00000  Uiso   1.00
C529   C     0.98741   0.08872   0.89093   0.00000  Uiso   1.00
H530   H     0.89970   0.17319   0.59042   0.00000  Uiso   1.00
H531   H     0.92260   0.24238   0.56277   0.00000  Uiso   1.00
H532   H     0.82907   0.15932   0.65117   0.00000  Uiso   1.00
H533   H     0.94477   0.11841   0.50676   0.00000  Uiso   1.00
H534   H     0.95213   0.31822   0.61188   0.00000  Uiso   1.00
H535   H     0.75493   0.14307   0.79828   0.00000  Uiso   1.00
H536   H     0.99889   0.05681   0.49375   0.00000  Uiso   1.00
H537   H     0.93174   0.16646   0.20499   0.00000  Uiso   1.00
H538   H     0.95639   0.23528   0.21106   0.00000  Uiso   1.00
H539   H     0.86287   0.15222   0.29946   0.00000  Uiso   1.00
H540   H     0.97856   0.11132   0.15505   0.00000  Uiso   1.00
H541   H     0.97956   0.31246   0.13806   0.00000  Uiso   1.00
H542   H     0.78236   0.13731   0.32446   0.00000  Uiso   1.00
H543   H     0.02632   0.05105   0.01993   0.00000  Uiso   1.00
O544   O     0.98147   0.36074   0.86789   0.00000  Uiso   1.00
O545   O     0.72276   0.13094   0.11243   0.00000  Uiso   1.00
O546   O     0.04283   0.01777   0.71290   0.00000  Uiso   1.00
N547   N     0.95521   0.30742   0.73488   0.00000  Uiso   1.00
N548   N     0.77084   0.14367   0.90915   0.00000  Uiso   1.00
N549   N     0.99891   0.06302   0.62445   0.00000  Uiso   1.00
N550   N     0.96997   0.30432   0.01801   0.00000  Uiso   1.00
N551   N     0.78560   0.14057   0.19228   0.00000  Uiso   1.00
N552   N     0.01367   0.05992   0.90758   0.00000  Uiso   1.00
C553   C     0.67165   0.09296   0.48122   0.00000  Uiso   1.00
C554   C     0.70831   0.07607   0.55141   0.00000  Uiso   1.00
C555   C     0.74086   0.07010   0.45272   0.00000  Uiso   1.00
C556   C     0.77140   0.05435   0.54139   0.00000  Uiso   1.00
C557   C     0.82862   0.02958   0.62289   0.00000  Uiso   1.00
C558   C     0.66318   0.12689   0.59945   0.00000  Uiso   1.00
C559   C     0.65779   0.16364   0.54114   0.00000  Uiso   1.00
C560   C     0.65034   0.19066   0.67025   0.00000  Uiso   1.00
C561   C     0.63748   0.24478   0.82631   0.00000  Uiso   1.00
C562   C     0.64096   0.06403   0.52098   0.00000  Uiso   1.00
C563   C     0.61687   0.04793   0.39670   0.00000  Uiso   1.00
C564   C     0.59070   0.02204   0.45975   0.00000  Uiso   1.00
C565   C     0.54335   0.97855   0.49398   0.00000  Uiso   1.00
C566   C     0.66800   0.07560   0.81418   0.00000  Uiso   1.00
C567   C     0.70633   0.06665   0.73227   0.00000  Uiso   1.00
C568   C     0.73682   0.05090   0.82111   0.00000  Uiso   1.00
C569   C     0.76941   0.04490   0.72256   0.00000  Uiso   1.00
C570   C     0.66120   0.11746   0.78030   0.00000  Uiso   1.00
C571   C     0.65375   0.14444   0.90952   0.00000  Uiso   1.00
C572   C     0.64835   0.18122   0.85143   0.00000  Uiso   1.00
C573   C     0.63898   0.05460   0.70183   0.00000  Uiso   1.00
C574   C     0.61284   0.02873   0.76509   0.00000  Uiso   1.00
C575   C     0.58872   0.01259   0.64093   0.00000  Uiso   1.00
H576   H     0.67319   0.10030   0.34042   0.00000  Uiso   1.00
H577   H     0.74238   0.07740   0.31277   0.00000  Uiso   1.00
H578   H     0.65932   0.17093   0.40117   0.00000  Uiso   1.00
H579   H     0.61841   0.05523   0.25676   0.00000  Uiso   1.00
H580   H     0.81822   0.04787   0.36188   0.00000  Uiso   1.00
H581   H     0.64307   0.24507   0.54828   0.00000  Uiso   1.00
H582   H     0.55681   0.00111   0.24375   0.00000  Uiso   1.00
H583   H     0.66646   0.06826   0.95499   0.00000  Uiso   1.00
H584   H     0.73528   0.04361   0.96106   0.00000  Uiso   1.00
H585   H     0.65222   0.13713   0.04946   0.00000  Uiso   1.00
H586   H     0.61132   0.02144   0.90505   0.00000  Uiso   1.00
H587   H     0.81246   0.02044   0.88806   0.00000  Uiso   1.00
H588   H     0.63731   0.21764   0.07446   0.00000  Uiso   1.00
H589   H     0.55105   0.97368   0.76993   0.00000  Uiso   1.00
O590   O     0.86074   0.01853   0.61789   0.00000  Uiso   1.00
O591   O     0.63094   0.27724   0.86243   0.00000  Uiso   1.00
O592   O     0.51777   0.95717   0.46290   0.00000  Uiso   1.00
N593   N     0.80742   0.04479   0.48488   0.00000  Uiso   1.00
N594   N     0.64367   0.22916   0.65915   0.00000  Uiso   1.00
N595   N     0.56302   0.00109   0.37445   0.00000  Uiso   1.00
N596   N     0.80432   0.03003   0.76801   0.00000  Uiso   1.00
N597   N     0.64057   0.21440   0.94228   0.00000  Uiso   1.00
N598   N     0.55992   0.98633   0.65758   0.00000  Uiso   1.00
C599   C     0.17165   0.59296   0.98122   0.00000  Uiso   1.00
C600   C     0.20831   0.57607   0.05141   0.00000  Uiso   1.00
C601   C     0.24086   0.57010   0.95272   0.00000  Uiso   1.00
C602   C     0.27140   0.55435   0.04139   0.00000  Uiso   1.00
C603   C     0.32862   0.52958   0.12289   0.00000  Uiso   1.00
C604   C     0.16318   0.62689   0.09945   0.00000  Uiso   1.00
C605   C     0.15779   0.66364   0.04114   0.00000  Uiso   1.00
C606   C     0.15034   0.69066   0.17025   0.00000  Uiso   1.00
C607   C     0.13748   0.74478   0.32631   0.00000  Uiso   1.00
C608   C     0.14096   0.56403   0.02098   0.00000  Uiso   1.00
C609   C     0.11687   0.54793   0.89670   0.00000  Uiso   1.00
C610   C     0.09070   0.52204   0.95975   0.00000  Uiso   1.00
C611   C     0.04335   0.47855   0.99398   0.00000  Uiso   1.00
C612   C     0.16800   0.57560   0.31418   0.00000  Uiso   1.00
C613   C     0.20633   0.56665   0.23227   0.00000  Uiso   1.00
C614   C     0.23682   0.55090   0.32111   0.00000  Uiso   1.00
C615   C     0.26941   0.54490   0.22256   0.00000  Uiso   1.00
C616   C     0.16120   0.61746   0.28030   0.00000  Uiso   1.00
C617   C     0.15375   0.64444   0.40952   0.00000  Uiso   1.00
C618   C     0.14835   0.68122   0.35143   0.00000  Uiso   1.00
C619   C     0.13898   0.55460   0.20183   0.00000  Uiso   1.00
C620   C     0.11284   0.52873   0.26509   0.00000  Uiso   1.00
C621   C     0.08872   0.51259   0.14093   0.00000  Uiso   1.00
H622   H     0.17319   0.60030   0.84042   0.00000  Uiso   1.00
H623   H     0.24238   0.57740   0.81277   0.00000  Uiso   1.00
H624   H     0.15932   0.67093   0.90117   0.00000  Uiso   1.00
H625   H     0.11841   0.55523   0.75676   0.00000  Uiso   1.00
H626   H     0.31822   0.54787   0.86188   0.00000  Uiso   1.00
H627   H     0.14307   0.74507   0.04828   0.00000  Uiso   1.00
H628   H     0.05681   0.50111   0.74375   0.00000  Uiso   1.00
H629   H     0.16646   0.56826   0.45499   0.00000  Uiso   1.00
H630   H     0.23528   0.54361   0.46106   0.00000  Uiso   1.00
H631   H     0.15222   0.63713   0.54946   0.00000  Uiso   1.00
H632   H     0.11132   0.52144   0.40505   0.00000  Uiso   1.00
H633   H     0.31246   0.52044   0.38806   0.00000  Uiso   1.00
H634   H     0.13731   0.71764   0.57446   0.00000  Uiso   1.00
H635   H     0.05105   0.47368   0.26993   0.00000  Uiso   1.00
O636   O     0.36074   0.51853   0.11789   0.00000  Uiso   1.00
O637   O     0.13094   0.77724   0.36243   0.00000  Uiso   1.00
O638   O     0.01777   0.45717   0.96290   0.00000  Uiso   1.00
N639   N     0.30742   0.54479   0.98488   0.00000  Uiso   1.00
N640   N     0.14367   0.72916   0.15915   0.00000  Uiso   1.00
N641   N     0.06302   0.50109   0.87445   0.00000  Uiso   1.00
N642   N     0.30432   0.53003   0.26801   0.00000  Uiso   1.00
N643   N     0.14057   0.71440   0.44228   0.00000  Uiso   1.00
N644   N     0.05992   0.48633   0.15758   0.00000  Uiso   1.00
C645   C     0.82835   0.40704   0.98122   0.00000  Uiso   1.00
C646   C     0.79169   0.42393   0.05141   0.00000  Uiso   1.00
C647   C     0.75914   0.42990   0.95272   0.00000  Uiso   1.00
C648   C     0.72860   0.44565   0.04139   0.00000  Uiso   1.00
C649   C     0.67138   0.47042   0.12289   0.00000  Uiso   1.00
C650   C     0.83682   0.37311   0.09945   0.00000  Uiso   1.00
C651   C     0.84221   0.33636   0.04114   0.00000  Uiso   1.00
C652   C     0.84966   0.30934   0.17025   0.00000  Uiso   1.00
C653   C     0.86252   0.25522   0.32631   0.00000  Uiso   1.00
C654   C     0.85904   0.43597   0.02098   0.00000  Uiso   1.00
C655   C     0.88313   0.45207   0.89670   0.00000  Uiso   1.00
C656   C     0.90930   0.47796   0.95975   0.00000  Uiso   1.00
C657   C     0.95665   0.52145   0.99398   0.00000  Uiso   1.00
C658   C     0.83200   0.42440   0.31418   0.00000  Uiso   1.00
C659   C     0.79367   0.43335   0.23227   0.00000  Uiso   1.00
C660   C     0.76318   0.44910   0.32111   0.00000  Uiso   1.00
C661   C     0.73059   0.45510   0.22256   0.00000  Uiso   1.00
C662   C     0.83880   0.38254   0.28030   0.00000  Uiso   1.00
C663   C     0.84625   0.35556   0.40952   0.00000  Uiso   1.00
C664   C     0.85165   0.31878   0.35143   0.00000  Uiso   1.00
C665   C     0.86102   0.44540   0.20183   0.00000  Uiso   1.00
C666   C     0.88716   0.47127   0.26509   0.00000  Uiso   1.00
C667   C     0.91128   0.48741   0.14093   0.00000  Uiso   1.00
H668   H     0.82681   0.39970   0.84042   0.00000  Uiso   1.00
H669   H     0.75762   0.42260   0.81277   0.00000  Uiso   1.00
H670   H     0.84068   0.32907   0.90117   0.00000  Uiso   1.00
H671   H     0.88159   0.44477   0.75676   0.00000  Uiso   1.00
H672   H     0.68178   0.45213   0.86188   0.00000  Uiso   1.00
H673   H     0.85693   0.25493   0.04828   0.00000  Uiso   1.00
H674   H     0.94319   0.49889   0.74375   0.00000  Uiso   1.00
H675   H     0.83354   0.43174   0.45499   0.00000  Uiso   1.00
H676   H     0.76472   0.45639   0.46106   0.00000  Uiso   1.00
H677   H     0.84778   0.36287   0.54946   0.00000  Uiso   1.00
H678   H     0.88868   0.47856   0.40505   0.00000  Uiso   1.00
H679   H     0.68754   0.47956   0.38806   0.00000  Uiso   1.00
H680   H     0.86269   0.28236   0.57446   0.00000  Uiso   1.00
H681   H     0.94895   0.52632   0.26993   0.00000  Uiso   1.00
O682   O     0.63926   0.48147   0.11789   0.00000  Uiso   1.00
O683   O     0.86906   0.22276   0.36243   0.00000  Uiso   1.00
O684   O     0.98223   0.54283   0.96290   0.00000  Uiso   1.00
N685   N     0.69258   0.45521   0.98488   0.00000  Uiso   1.00
N686   N     0.85633   0.27084   0.15915   0.00000  Uiso   1.00
N687   N     0.93698   0.49891   0.87445   0.00000  Uiso   1.00
N688   N     0.69568   0.46997   0.26801   0.00000  Uiso   1.00
N689   N     0.85943   0.28560   0.44228   0.00000  Uiso   1.00
N690   N     0.94008   0.51367   0.15758   0.00000  Uiso   1.00
C691   C     0.32835   0.90704   0.48122   0.00000  Uiso   1.00
C692   C     0.29169   0.92393   0.55141   0.00000  Uiso   1.00
C693   C     0.25914   0.92990   0.45272   0.00000  Uiso   1.00
C694   C     0.22860   0.94565   0.54139   0.00000  Uiso   1.00
C695   C     0.17138   0.97042   0.62289   0.00000  Uiso   1.00
C696   C     0.33682   0.87311   0.59945   0.00000  Uiso   1.00
C697   C     0.34221   0.83636   0.54114   0.00000  Uiso   1.00
C698   C     0.34966   0.80934   0.67025   0.00000  Uiso   1.00
C699   C     0.36252   0.75522   0.82631   0.00000  Uiso   1.00
C700   C     0.35904   0.93597   0.52098   0.00000  Uiso   1.00
C701   C     0.38313   0.95207   0.39670   0.00000  Uiso   1.00
C702   C     0.40930   0.97796   0.45975   0.00000  Uiso   1.00
C703   C     0.45665   0.02145   0.49398   0.00000  Uiso   1.00
C704   C     0.33200   0.92440   0.81418   0.00000  Uiso   1.00
C705   C     0.29367   0.93335   0.73227   0.00000  Uiso   1.00
C706   C     0.26318   0.94910   0.82111   0.00000  Uiso   1.00
C707   C     0.23059   0.95510   0.72256   0.00000  Uiso   1.00
C708   C     0.33880   0.88254   0.78030   0.00000  Uiso   1.00
C709   C     0.34625   0.85556   0.90952   0.00000  Uiso   1.00
C710   C     0.35165   0.81878   0.85143   0.00000  Uiso   1.00
C711   C     0.36102   0.94540   0.70183   0.00000  Uiso   1.00
C712   C     0.38716   0.97127   0.76509   0.00000  Uiso   1.00
C713   C     0.41128   0.98741   0.64093   0.00000  Uiso   1.00
H714   H     0.32681   0.89970   0.34042   0.00000  Uiso   1.00
H715   H     0.25762   0.92260   0.31277   0.00000  Uiso   1.00
H716   H     0.34068   0.82907   0.40117   0.00000  Uiso   1.00
H717   H     0.38159   0.94477   0.25676   0.00000  Uiso   1.00
H718   H     0.18178   0.95213   0.36188   0.00000  Uiso   1.00
H719   H     0.35693   0.75493   0.54828   0.00000  Uiso   1.00
H720   H     0.44319   0.99889   0.24375   0.00000  Uiso   1.00
H721   H     0.33354   0.93174   0.95499   0.00000  Uiso   1.00
H722   H     0.26472   0.95639   0.96106   0.00000  Uiso   1.00
H723   H     0.34778   0.86287   0.04946   0.00000  Uiso   1.00
H724   H     0.38868   0.97856   0.90505   0.00000  Uiso   1.00
H725   H     0.18754   0.97956   0.88806   0.00000  Uiso   1.00
H726   H     0.36269   0.78236   0.07446   0.00000  Uiso   1.00
H727   H     0.44895   0.02632   0.76993   0.00000  Uiso   1.00
O728   O     0.13926   0.98147   0.61789   0.00000  Uiso   1.00
O729   O     0.36906   0.72276   0.86243   0.00000  Uiso   1.00
O730   O     0.48223   0.04283   0.46290   0.00000  Uiso   1.00
N731   N     0.19258   0.95521   0.48488   0.00000  Uiso   1.00
N732   N     0.35633   0.77084   0.65915   0.00000  Uiso   1.00
N733   N     0.43698   0.99891   0.37445   0.00000  Uiso   1.00
N734   N     0.19568   0.96997   0.76801   0.00000  Uiso   1.00
N735   N     0.35943   0.78560   0.94228   0.00000  Uiso   1.00
N736   N     0.44008   0.01367   0.65758   0.00000  Uiso   1.00
