data_job_03959
_audit_creation_date              2018-12-19
_audit_creation_method            'Materials Studio'
_symmetry_space_group_name_H-M    'P1'
_symmetry_Int_Tables_number       1
_symmetry_cell_setting            triclinic
loop_
_symmetry_equiv_pos_as_xyz
  x,y,z
_cell_length_a                    13.4949
_cell_length_b                    21.1583
_cell_length_c                    38.1456
_cell_angle_alpha                 90.0000
_cell_angle_beta                  90.0000
_cell_angle_gamma                 90.0000
loop_
_atom_site_label
_atom_site_type_symbol
_atom_site_fract_x
_atom_site_fract_y
_atom_site_fract_z
_atom_site_U_iso_or_equiv
_atom_site_adp_type
_atom_site_occupancy
C1     C     0.47556   0.22383   0.68742   0.00000  Uiso   1.00
C2     C     0.38430   0.18497   0.67788   0.00000  Uiso   1.00
C3     C     0.33736   0.18458   0.64551   0.00000  Uiso   1.00
C4     C     0.25493   0.14581   0.64205   0.00000  Uiso   1.00
C5     C     0.11839   0.09112   0.62301   0.00000  Uiso   1.00
C6     C     0.44643   0.26317   0.71929   0.00000  Uiso   1.00
C7     C     0.45175   0.32852   0.72174   0.00000  Uiso   1.00
C8     C     0.42163   0.35559   0.75314   0.00000  Uiso   1.00
C9     C     0.38161   0.42229   0.79838   0.00000  Uiso   1.00
C10    C     0.55283   0.17667   0.70032   0.00000  Uiso   1.00
C11    C     0.64763   0.16931   0.68681   0.00000  Uiso   1.00
C12    C     0.70711   0.12356   0.70225   0.00000  Uiso   1.00
C13    C     0.83230   0.05597   0.71803   0.00000  Uiso   1.00
C14    C     0.41263   0.15568   0.73884   0.00000  Uiso   1.00
C15    C     0.35012   0.14795   0.70581   0.00000  Uiso   1.00
C16    C     0.26774   0.10917   0.70240   0.00000  Uiso   1.00
C17    C     0.22069   0.10872   0.67003   0.00000  Uiso   1.00
C18    C     0.41225   0.22615   0.74722   0.00000  Uiso   1.00
C19    C     0.38212   0.25312   0.77862   0.00000  Uiso   1.00
C20    C     0.38738   0.31850   0.78112   0.00000  Uiso   1.00
C21    C     0.51865   0.13965   0.72824   0.00000  Uiso   1.00
C22    C     0.57800   0.09390   0.74370   0.00000  Uiso   1.00
C23    C     0.67286   0.08647   0.73023   0.00000  Uiso   1.00
H24    H     0.50218   0.25266   0.66568   0.00000  Uiso   1.00
H25    H     0.36383   0.21324   0.62391   0.00000  Uiso   1.00
H26    H     0.47821   0.35716   0.70012   0.00000  Uiso   1.00
H27    H     0.67406   0.19796   0.66520   0.00000  Uiso   1.00
H28    H     0.19536   0.15322   0.58992   0.00000  Uiso   1.00
H29    H     0.43656   0.45669   0.75062   0.00000  Uiso   1.00
H30    H     0.84955   0.12100   0.67699   0.00000  Uiso   1.00
H31    H     0.38602   0.12686   0.76058   0.00000  Uiso   1.00
H32    H     0.24130   0.08053   0.72402   0.00000  Uiso   1.00
H33    H     0.35568   0.22446   0.80023   0.00000  Uiso   1.00
H34    H     0.55152   0.06527   0.76531   0.00000  Uiso   1.00
H35    H     0.09591   0.04552   0.67118   0.00000  Uiso   1.00
H36    H     0.33711   0.34899   0.83188   0.00000  Uiso   1.00
H37    H     0.75009   0.01330   0.75825   0.00000  Uiso   1.00
O38    O     0.05251   0.07118   0.60479   0.00000  Uiso   1.00
O39    O     0.36897   0.46932   0.81562   0.00000  Uiso   1.00
O40    O     0.91079   0.02890   0.71902   0.00000  Uiso   1.00
N41    N     0.19183   0.13422   0.61406   0.00000  Uiso   1.00
N42    N     0.41732   0.41795   0.76430   0.00000  Uiso   1.00
N43    N     0.80343   0.10412   0.69547   0.00000  Uiso   1.00
N44    N     0.13831   0.07627   0.65778   0.00000  Uiso   1.00
N45    N     0.36380   0.35999   0.80803   0.00000  Uiso   1.00
N46    N     0.74992   0.04617   0.73919   0.00000  Uiso   1.00
C47    C     0.47556   0.72383   0.18742   0.00000  Uiso   1.00
C48    C     0.38430   0.68497   0.17788   0.00000  Uiso   1.00
C49    C     0.33736   0.68458   0.14551   0.00000  Uiso   1.00
C50    C     0.25493   0.64581   0.14205   0.00000  Uiso   1.00
C51    C     0.11839   0.59112   0.12301   0.00000  Uiso   1.00
C52    C     0.44643   0.76317   0.21929   0.00000  Uiso   1.00
C53    C     0.45175   0.82852   0.22174   0.00000  Uiso   1.00
C54    C     0.42163   0.85559   0.25314   0.00000  Uiso   1.00
C55    C     0.38161   0.92229   0.29838   0.00000  Uiso   1.00
C56    C     0.55283   0.67667   0.20032   0.00000  Uiso   1.00
C57    C     0.64763   0.66931   0.18681   0.00000  Uiso   1.00
C58    C     0.70711   0.62356   0.20225   0.00000  Uiso   1.00
C59    C     0.83230   0.55597   0.21803   0.00000  Uiso   1.00
C60    C     0.41263   0.65568   0.23884   0.00000  Uiso   1.00
C61    C     0.35012   0.64795   0.20581   0.00000  Uiso   1.00
C62    C     0.26774   0.60917   0.20240   0.00000  Uiso   1.00
C63    C     0.22069   0.60872   0.17003   0.00000  Uiso   1.00
C64    C     0.41225   0.72615   0.24722   0.00000  Uiso   1.00
C65    C     0.38212   0.75312   0.27862   0.00000  Uiso   1.00
C66    C     0.38738   0.81850   0.28112   0.00000  Uiso   1.00
C67    C     0.51865   0.63965   0.22824   0.00000  Uiso   1.00
C68    C     0.57800   0.59390   0.24370   0.00000  Uiso   1.00
C69    C     0.67286   0.58647   0.23023   0.00000  Uiso   1.00
H70    H     0.50218   0.75266   0.16568   0.00000  Uiso   1.00
H71    H     0.36383   0.71324   0.12391   0.00000  Uiso   1.00
H72    H     0.47821   0.85716   0.20012   0.00000  Uiso   1.00
H73    H     0.67406   0.69796   0.16520   0.00000  Uiso   1.00
H74    H     0.19536   0.65322   0.08992   0.00000  Uiso   1.00
H75    H     0.43656   0.95669   0.25062   0.00000  Uiso   1.00
H76    H     0.84955   0.62100   0.17699   0.00000  Uiso   1.00
H77    H     0.38602   0.62686   0.26058   0.00000  Uiso   1.00
H78    H     0.24130   0.58053   0.22402   0.00000  Uiso   1.00
H79    H     0.35568   0.72446   0.30023   0.00000  Uiso   1.00
H80    H     0.55152   0.56527   0.26531   0.00000  Uiso   1.00
H81    H     0.09591   0.54552   0.17118   0.00000  Uiso   1.00
H82    H     0.33711   0.84899   0.33188   0.00000  Uiso   1.00
H83    H     0.75009   0.51330   0.25825   0.00000  Uiso   1.00
O84    O     0.05251   0.57118   0.10479   0.00000  Uiso   1.00
O85    O     0.36897   0.96932   0.31562   0.00000  Uiso   1.00
O86    O     0.91079   0.52890   0.21902   0.00000  Uiso   1.00
N87    N     0.19183   0.63422   0.11406   0.00000  Uiso   1.00
N88    N     0.41732   0.91795   0.26430   0.00000  Uiso   1.00
N89    N     0.80343   0.60412   0.19547   0.00000  Uiso   1.00
N90    N     0.13831   0.57627   0.15778   0.00000  Uiso   1.00
N91    N     0.36380   0.85999   0.30803   0.00000  Uiso   1.00
N92    N     0.74992   0.54617   0.23919   0.00000  Uiso   1.00
C93    C     0.97556   0.22383   0.18742   0.00000  Uiso   1.00
C94    C     0.88430   0.18497   0.17788   0.00000  Uiso   1.00
C95    C     0.83736   0.18458   0.14551   0.00000  Uiso   1.00
C96    C     0.75493   0.14581   0.14205   0.00000  Uiso   1.00
C97    C     0.61839   0.09112   0.12301   0.00000  Uiso   1.00
C98    C     0.94643   0.26317   0.21929   0.00000  Uiso   1.00
C99    C     0.95175   0.32852   0.22174   0.00000  Uiso   1.00
C100   C     0.92163   0.35559   0.25314   0.00000  Uiso   1.00
C101   C     0.88161   0.42229   0.29838   0.00000  Uiso   1.00
C102   C     0.05283   0.17667   0.20032   0.00000  Uiso   1.00
C103   C     0.14763   0.16931   0.18681   0.00000  Uiso   1.00
C104   C     0.20711   0.12356   0.20225   0.00000  Uiso   1.00
C105   C     0.33230   0.05597   0.21803   0.00000  Uiso   1.00
C106   C     0.91263   0.15568   0.23884   0.00000  Uiso   1.00
C107   C     0.85012   0.14795   0.20581   0.00000  Uiso   1.00
C108   C     0.76774   0.10917   0.20240   0.00000  Uiso   1.00
C109   C     0.72069   0.10872   0.17003   0.00000  Uiso   1.00
C110   C     0.91225   0.22615   0.24722   0.00000  Uiso   1.00
C111   C     0.88212   0.25312   0.27862   0.00000  Uiso   1.00
C112   C     0.88738   0.31850   0.28112   0.00000  Uiso   1.00
C113   C     0.01865   0.13965   0.22824   0.00000  Uiso   1.00
C114   C     0.07800   0.09390   0.24370   0.00000  Uiso   1.00
C115   C     0.17286   0.08647   0.23023   0.00000  Uiso   1.00
H116   H     0.00218   0.25266   0.16568   0.00000  Uiso   1.00
H117   H     0.86383   0.21324   0.12391   0.00000  Uiso   1.00
H118   H     0.97821   0.35716   0.20012   0.00000  Uiso   1.00
H119   H     0.17406   0.19796   0.16520   0.00000  Uiso   1.00
H120   H     0.69536   0.15322   0.08992   0.00000  Uiso   1.00
H121   H     0.93656   0.45669   0.25062   0.00000  Uiso   1.00
H122   H     0.34955   0.12100   0.17699   0.00000  Uiso   1.00
H123   H     0.88602   0.12686   0.26058   0.00000  Uiso   1.00
H124   H     0.74130   0.08053   0.22402   0.00000  Uiso   1.00
H125   H     0.85568   0.22446   0.30023   0.00000  Uiso   1.00
H126   H     0.05152   0.06527   0.26531   0.00000  Uiso   1.00
H127   H     0.59591   0.04552   0.17118   0.00000  Uiso   1.00
H128   H     0.83711   0.34899   0.33188   0.00000  Uiso   1.00
H129   H     0.25009   0.01330   0.25825   0.00000  Uiso   1.00
O130   O     0.55251   0.07118   0.10479   0.00000  Uiso   1.00
O131   O     0.86897   0.46932   0.31562   0.00000  Uiso   1.00
O132   O     0.41079   0.02890   0.21902   0.00000  Uiso   1.00
N133   N     0.69183   0.13422   0.11406   0.00000  Uiso   1.00
N134   N     0.91732   0.41795   0.26430   0.00000  Uiso   1.00
N135   N     0.30343   0.10412   0.19547   0.00000  Uiso   1.00
N136   N     0.63831   0.07627   0.15778   0.00000  Uiso   1.00
N137   N     0.86380   0.35999   0.30803   0.00000  Uiso   1.00
N138   N     0.24992   0.04617   0.23919   0.00000  Uiso   1.00
C139   C     0.97556   0.72383   0.68742   0.00000  Uiso   1.00
C140   C     0.88430   0.68497   0.67788   0.00000  Uiso   1.00
C141   C     0.83736   0.68458   0.64551   0.00000  Uiso   1.00
C142   C     0.75493   0.64581   0.64205   0.00000  Uiso   1.00
C143   C     0.61839   0.59112   0.62301   0.00000  Uiso   1.00
C144   C     0.94643   0.76317   0.71929   0.00000  Uiso   1.00
C145   C     0.95175   0.82852   0.72174   0.00000  Uiso   1.00
C146   C     0.92163   0.85559   0.75314   0.00000  Uiso   1.00
C147   C     0.88161   0.92229   0.79838   0.00000  Uiso   1.00
C148   C     0.05283   0.67667   0.70032   0.00000  Uiso   1.00
C149   C     0.14763   0.66931   0.68681   0.00000  Uiso   1.00
C150   C     0.20711   0.62356   0.70225   0.00000  Uiso   1.00
C151   C     0.33230   0.55597   0.71803   0.00000  Uiso   1.00
C152   C     0.91263   0.65568   0.73884   0.00000  Uiso   1.00
C153   C     0.85012   0.64795   0.70581   0.00000  Uiso   1.00
C154   C     0.76774   0.60917   0.70240   0.00000  Uiso   1.00
C155   C     0.72069   0.60872   0.67003   0.00000  Uiso   1.00
C156   C     0.91225   0.72615   0.74722   0.00000  Uiso   1.00
C157   C     0.88212   0.75312   0.77862   0.00000  Uiso   1.00
C158   C     0.88738   0.81850   0.78112   0.00000  Uiso   1.00
C159   C     0.01865   0.63965   0.72824   0.00000  Uiso   1.00
C160   C     0.07800   0.59390   0.74370   0.00000  Uiso   1.00
C161   C     0.17286   0.58647   0.73023   0.00000  Uiso   1.00
H162   H     0.00218   0.75266   0.66568   0.00000  Uiso   1.00
H163   H     0.86383   0.71324   0.62391   0.00000  Uiso   1.00
H164   H     0.97821   0.85716   0.70012   0.00000  Uiso   1.00
H165   H     0.17406   0.69796   0.66520   0.00000  Uiso   1.00
H166   H     0.69536   0.65322   0.58992   0.00000  Uiso   1.00
H167   H     0.93656   0.95669   0.75062   0.00000  Uiso   1.00
H168   H     0.34955   0.62100   0.67699   0.00000  Uiso   1.00
H169   H     0.88602   0.62686   0.76058   0.00000  Uiso   1.00
H170   H     0.74130   0.58053   0.72402   0.00000  Uiso   1.00
H171   H     0.85568   0.72446   0.80023   0.00000  Uiso   1.00
H172   H     0.05152   0.56527   0.76531   0.00000  Uiso   1.00
H173   H     0.59591   0.54552   0.67118   0.00000  Uiso   1.00
H174   H     0.83711   0.84899   0.83188   0.00000  Uiso   1.00
H175   H     0.25009   0.51330   0.75825   0.00000  Uiso   1.00
O176   O     0.55251   0.57118   0.60479   0.00000  Uiso   1.00
O177   O     0.86897   0.96932   0.81562   0.00000  Uiso   1.00
O178   O     0.41079   0.52890   0.71902   0.00000  Uiso   1.00
N179   N     0.69183   0.63422   0.61406   0.00000  Uiso   1.00
N180   N     0.91732   0.91795   0.76430   0.00000  Uiso   1.00
N181   N     0.30343   0.60412   0.69547   0.00000  Uiso   1.00
N182   N     0.63831   0.57627   0.65778   0.00000  Uiso   1.00
N183   N     0.86380   0.85999   0.80803   0.00000  Uiso   1.00
N184   N     0.24992   0.54617   0.73919   0.00000  Uiso   1.00
C185   C     0.52444   0.77617   0.68742   0.00000  Uiso   1.00
C186   C     0.61570   0.81503   0.67788   0.00000  Uiso   1.00
C187   C     0.66264   0.81542   0.64551   0.00000  Uiso   1.00
C188   C     0.74507   0.85419   0.64205   0.00000  Uiso   1.00
C189   C     0.88161   0.90888   0.62301   0.00000  Uiso   1.00
C190   C     0.55357   0.73683   0.71929   0.00000  Uiso   1.00
C191   C     0.54825   0.67148   0.72174   0.00000  Uiso   1.00
C192   C     0.57837   0.64441   0.75314   0.00000  Uiso   1.00
C193   C     0.61839   0.57771   0.79838   0.00000  Uiso   1.00
C194   C     0.44717   0.82333   0.70032   0.00000  Uiso   1.00
C195   C     0.35237   0.83069   0.68681   0.00000  Uiso   1.00
C196   C     0.29289   0.87644   0.70225   0.00000  Uiso   1.00
C197   C     0.16770   0.94403   0.71803   0.00000  Uiso   1.00
C198   C     0.58737   0.84432   0.73884   0.00000  Uiso   1.00
C199   C     0.64988   0.85205   0.70581   0.00000  Uiso   1.00
C200   C     0.73226   0.89083   0.70240   0.00000  Uiso   1.00
C201   C     0.77931   0.89128   0.67003   0.00000  Uiso   1.00
C202   C     0.58775   0.77385   0.74722   0.00000  Uiso   1.00
C203   C     0.61788   0.74688   0.77862   0.00000  Uiso   1.00
C204   C     0.61262   0.68150   0.78112   0.00000  Uiso   1.00
C205   C     0.48135   0.86035   0.72824   0.00000  Uiso   1.00
C206   C     0.42200   0.90610   0.74370   0.00000  Uiso   1.00
C207   C     0.32714   0.91353   0.73023   0.00000  Uiso   1.00
H208   H     0.49782   0.74734   0.66568   0.00000  Uiso   1.00
H209   H     0.63617   0.78676   0.62391   0.00000  Uiso   1.00
H210   H     0.52179   0.64284   0.70012   0.00000  Uiso   1.00
H211   H     0.32594   0.80204   0.66520   0.00000  Uiso   1.00
H212   H     0.80464   0.84678   0.58992   0.00000  Uiso   1.00
H213   H     0.56344   0.54331   0.75062   0.00000  Uiso   1.00
H214   H     0.15045   0.87900   0.67699   0.00000  Uiso   1.00
H215   H     0.61398   0.87314   0.76058   0.00000  Uiso   1.00
H216   H     0.75870   0.91947   0.72402   0.00000  Uiso   1.00
H217   H     0.64432   0.77554   0.80023   0.00000  Uiso   1.00
H218   H     0.44848   0.93473   0.76531   0.00000  Uiso   1.00
H219   H     0.90409   0.95448   0.67118   0.00000  Uiso   1.00
H220   H     0.66289   0.65101   0.83188   0.00000  Uiso   1.00
H221   H     0.24991   0.98670   0.75825   0.00000  Uiso   1.00
O222   O     0.94749   0.92882   0.60479   0.00000  Uiso   1.00
O223   O     0.63103   0.53068   0.81562   0.00000  Uiso   1.00
O224   O     0.08921   0.97110   0.71902   0.00000  Uiso   1.00
N225   N     0.80817   0.86578   0.61406   0.00000  Uiso   1.00
N226   N     0.58268   0.58205   0.76430   0.00000  Uiso   1.00
N227   N     0.19657   0.89588   0.69547   0.00000  Uiso   1.00
N228   N     0.86169   0.92373   0.65778   0.00000  Uiso   1.00
N229   N     0.63620   0.64001   0.80803   0.00000  Uiso   1.00
N230   N     0.25008   0.95383   0.73919   0.00000  Uiso   1.00
C231   C     0.52444   0.27617   0.18742   0.00000  Uiso   1.00
C232   C     0.61570   0.31503   0.17788   0.00000  Uiso   1.00
C233   C     0.66264   0.31542   0.14551   0.00000  Uiso   1.00
C234   C     0.74507   0.35419   0.14205   0.00000  Uiso   1.00
C235   C     0.88161   0.40888   0.12301   0.00000  Uiso   1.00
C236   C     0.55357   0.23683   0.21929   0.00000  Uiso   1.00
C237   C     0.54825   0.17148   0.22174   0.00000  Uiso   1.00
C238   C     0.57837   0.14441   0.25314   0.00000  Uiso   1.00
C239   C     0.61839   0.07771   0.29838   0.00000  Uiso   1.00
C240   C     0.44717   0.32333   0.20032   0.00000  Uiso   1.00
C241   C     0.35237   0.33069   0.18681   0.00000  Uiso   1.00
C242   C     0.29289   0.37644   0.20225   0.00000  Uiso   1.00
C243   C     0.16770   0.44403   0.21803   0.00000  Uiso   1.00
C244   C     0.58737   0.34432   0.23884   0.00000  Uiso   1.00
C245   C     0.64988   0.35205   0.20581   0.00000  Uiso   1.00
C246   C     0.73226   0.39083   0.20240   0.00000  Uiso   1.00
C247   C     0.77931   0.39128   0.17003   0.00000  Uiso   1.00
C248   C     0.58775   0.27385   0.24722   0.00000  Uiso   1.00
C249   C     0.61788   0.24688   0.27862   0.00000  Uiso   1.00
C250   C     0.61262   0.18150   0.28112   0.00000  Uiso   1.00
C251   C     0.48135   0.36035   0.22824   0.00000  Uiso   1.00
C252   C     0.42200   0.40610   0.24370   0.00000  Uiso   1.00
C253   C     0.32714   0.41353   0.23023   0.00000  Uiso   1.00
H254   H     0.49782   0.24734   0.16568   0.00000  Uiso   1.00
H255   H     0.63617   0.28676   0.12391   0.00000  Uiso   1.00
H256   H     0.52179   0.14284   0.20012   0.00000  Uiso   1.00
H257   H     0.32594   0.30204   0.16520   0.00000  Uiso   1.00
H258   H     0.80464   0.34678   0.08992   0.00000  Uiso   1.00
H259   H     0.56344   0.04331   0.25062   0.00000  Uiso   1.00
H260   H     0.15045   0.37900   0.17699   0.00000  Uiso   1.00
H261   H     0.61398   0.37314   0.26058   0.00000  Uiso   1.00
H262   H     0.75870   0.41947   0.22402   0.00000  Uiso   1.00
H263   H     0.64432   0.27554   0.30023   0.00000  Uiso   1.00
H264   H     0.44848   0.43473   0.26531   0.00000  Uiso   1.00
H265   H     0.90409   0.45448   0.17118   0.00000  Uiso   1.00
H266   H     0.66289   0.15101   0.33188   0.00000  Uiso   1.00
H267   H     0.24991   0.48670   0.25825   0.00000  Uiso   1.00
O268   O     0.94749   0.42882   0.10479   0.00000  Uiso   1.00
O269   O     0.63103   0.03068   0.31562   0.00000  Uiso   1.00
O270   O     0.08921   0.47110   0.21902   0.00000  Uiso   1.00
N271   N     0.80817   0.36578   0.11406   0.00000  Uiso   1.00
N272   N     0.58268   0.08205   0.26430   0.00000  Uiso   1.00
N273   N     0.19657   0.39588   0.19547   0.00000  Uiso   1.00
N274   N     0.86169   0.42373   0.15778   0.00000  Uiso   1.00
N275   N     0.63620   0.14001   0.30803   0.00000  Uiso   1.00
N276   N     0.25008   0.45383   0.23919   0.00000  Uiso   1.00
C277   C     0.02444   0.77617   0.18742   0.00000  Uiso   1.00
C278   C     0.11570   0.81503   0.17788   0.00000  Uiso   1.00
C279   C     0.16264   0.81542   0.14551   0.00000  Uiso   1.00
C280   C     0.24507   0.85419   0.14205   0.00000  Uiso   1.00
C281   C     0.38161   0.90888   0.12301   0.00000  Uiso   1.00
C282   C     0.05357   0.73683   0.21929   0.00000  Uiso   1.00
C283   C     0.04825   0.67148   0.22174   0.00000  Uiso   1.00
C284   C     0.07837   0.64441   0.25314   0.00000  Uiso   1.00
C285   C     0.11839   0.57771   0.29838   0.00000  Uiso   1.00
C286   C     0.94717   0.82333   0.20032   0.00000  Uiso   1.00
C287   C     0.85237   0.83069   0.18681   0.00000  Uiso   1.00
C288   C     0.79289   0.87644   0.20225   0.00000  Uiso   1.00
C289   C     0.66770   0.94403   0.21803   0.00000  Uiso   1.00
C290   C     0.08737   0.84432   0.23884   0.00000  Uiso   1.00
C291   C     0.14988   0.85205   0.20581   0.00000  Uiso   1.00
C292   C     0.23226   0.89083   0.20240   0.00000  Uiso   1.00
C293   C     0.27931   0.89128   0.17003   0.00000  Uiso   1.00
C294   C     0.08775   0.77385   0.24722   0.00000  Uiso   1.00
C295   C     0.11788   0.74688   0.27862   0.00000  Uiso   1.00
C296   C     0.11262   0.68150   0.28112   0.00000  Uiso   1.00
C297   C     0.98135   0.86035   0.22824   0.00000  Uiso   1.00
C298   C     0.92200   0.90610   0.24370   0.00000  Uiso   1.00
C299   C     0.82714   0.91353   0.23023   0.00000  Uiso   1.00
H300   H     0.99782   0.74734   0.16568   0.00000  Uiso   1.00
H301   H     0.13617   0.78676   0.12391   0.00000  Uiso   1.00
H302   H     0.02179   0.64284   0.20012   0.00000  Uiso   1.00
H303   H     0.82594   0.80204   0.16520   0.00000  Uiso   1.00
H304   H     0.30464   0.84678   0.08992   0.00000  Uiso   1.00
H305   H     0.06344   0.54331   0.25062   0.00000  Uiso   1.00
H306   H     0.65045   0.87900   0.17699   0.00000  Uiso   1.00
H307   H     0.11398   0.87314   0.26058   0.00000  Uiso   1.00
H308   H     0.25870   0.91947   0.22402   0.00000  Uiso   1.00
H309   H     0.14432   0.77554   0.30023   0.00000  Uiso   1.00
H310   H     0.94848   0.93473   0.26531   0.00000  Uiso   1.00
H311   H     0.40409   0.95448   0.17118   0.00000  Uiso   1.00
H312   H     0.16289   0.65101   0.33188   0.00000  Uiso   1.00
H313   H     0.74991   0.98670   0.25825   0.00000  Uiso   1.00
O314   O     0.44749   0.92882   0.10479   0.00000  Uiso   1.00
O315   O     0.13103   0.53068   0.31562   0.00000  Uiso   1.00
O316   O     0.58921   0.97110   0.21902   0.00000  Uiso   1.00
N317   N     0.30817   0.86578   0.11406   0.00000  Uiso   1.00
N318   N     0.08268   0.58205   0.26430   0.00000  Uiso   1.00
N319   N     0.69657   0.89588   0.19547   0.00000  Uiso   1.00
N320   N     0.36169   0.92373   0.15778   0.00000  Uiso   1.00
N321   N     0.13620   0.64001   0.30803   0.00000  Uiso   1.00
N322   N     0.75008   0.95383   0.23919   0.00000  Uiso   1.00
C323   C     0.02444   0.27617   0.68742   0.00000  Uiso   1.00
C324   C     0.11570   0.31503   0.67788   0.00000  Uiso   1.00
C325   C     0.16264   0.31542   0.64551   0.00000  Uiso   1.00
C326   C     0.24507   0.35419   0.64205   0.00000  Uiso   1.00
C327   C     0.38161   0.40888   0.62301   0.00000  Uiso   1.00
C328   C     0.05357   0.23683   0.71929   0.00000  Uiso   1.00
C329   C     0.04825   0.17148   0.72174   0.00000  Uiso   1.00
C330   C     0.07837   0.14441   0.75314   0.00000  Uiso   1.00
C331   C     0.11839   0.07771   0.79838   0.00000  Uiso   1.00
C332   C     0.94717   0.32333   0.70032   0.00000  Uiso   1.00
C333   C     0.85237   0.33069   0.68681   0.00000  Uiso   1.00
C334   C     0.79289   0.37644   0.70225   0.00000  Uiso   1.00
C335   C     0.66770   0.44403   0.71803   0.00000  Uiso   1.00
C336   C     0.08737   0.34432   0.73884   0.00000  Uiso   1.00
C337   C     0.14988   0.35205   0.70581   0.00000  Uiso   1.00
C338   C     0.23226   0.39083   0.70240   0.00000  Uiso   1.00
C339   C     0.27931   0.39128   0.67003   0.00000  Uiso   1.00
C340   C     0.08775   0.27385   0.74722   0.00000  Uiso   1.00
C341   C     0.11788   0.24688   0.77862   0.00000  Uiso   1.00
C342   C     0.11262   0.18150   0.78112   0.00000  Uiso   1.00
C343   C     0.98135   0.36035   0.72824   0.00000  Uiso   1.00
C344   C     0.92200   0.40610   0.74370   0.00000  Uiso   1.00
C345   C     0.82714   0.41353   0.73023   0.00000  Uiso   1.00
H346   H     0.99782   0.24734   0.66568   0.00000  Uiso   1.00
H347   H     0.13617   0.28676   0.62391   0.00000  Uiso   1.00
H348   H     0.02179   0.14284   0.70012   0.00000  Uiso   1.00
H349   H     0.82594   0.30204   0.66520   0.00000  Uiso   1.00
H350   H     0.30464   0.34678   0.58992   0.00000  Uiso   1.00
H351   H     0.06344   0.04331   0.75062   0.00000  Uiso   1.00
H352   H     0.65045   0.37900   0.67699   0.00000  Uiso   1.00
H353   H     0.11398   0.37314   0.76058   0.00000  Uiso   1.00
H354   H     0.25870   0.41947   0.72402   0.00000  Uiso   1.00
H355   H     0.14432   0.27554   0.80023   0.00000  Uiso   1.00
H356   H     0.94848   0.43473   0.76531   0.00000  Uiso   1.00
H357   H     0.40409   0.45448   0.67118   0.00000  Uiso   1.00
H358   H     0.16289   0.15101   0.83188   0.00000  Uiso   1.00
H359   H     0.74991   0.48670   0.75825   0.00000  Uiso   1.00
O360   O     0.44749   0.42882   0.60479   0.00000  Uiso   1.00
O361   O     0.13103   0.03068   0.81562   0.00000  Uiso   1.00
O362   O     0.58921   0.47110   0.71902   0.00000  Uiso   1.00
N363   N     0.30817   0.36578   0.61406   0.00000  Uiso   1.00
N364   N     0.08268   0.08205   0.76430   0.00000  Uiso   1.00
N365   N     0.69657   0.39588   0.69547   0.00000  Uiso   1.00
N366   N     0.36169   0.42373   0.65778   0.00000  Uiso   1.00
N367   N     0.13620   0.14001   0.80803   0.00000  Uiso   1.00
N368   N     0.75008   0.45383   0.73919   0.00000  Uiso   1.00
C369   C     0.72556   0.02617   0.93742   0.00000  Uiso   1.00
C370   C     0.63430   0.06503   0.92788   0.00000  Uiso   1.00
C371   C     0.58736   0.06542   0.89551   0.00000  Uiso   1.00
C372   C     0.50493   0.10419   0.89205   0.00000  Uiso   1.00
C373   C     0.36839   0.15888   0.87301   0.00000  Uiso   1.00
C374   C     0.69643   0.98683   0.96929   0.00000  Uiso   1.00
C375   C     0.70175   0.92148   0.97174   0.00000  Uiso   1.00
C376   C     0.67163   0.89441   0.00314   0.00000  Uiso   1.00
C377   C     0.63161   0.82771   0.04838   0.00000  Uiso   1.00
C378   C     0.80283   0.07333   0.95032   0.00000  Uiso   1.00
C379   C     0.89763   0.08069   0.93681   0.00000  Uiso   1.00
C380   C     0.95711   0.12644   0.95225   0.00000  Uiso   1.00
C381   C     0.08230   0.19403   0.96803   0.00000  Uiso   1.00
C382   C     0.66263   0.09432   0.98884   0.00000  Uiso   1.00
C383   C     0.60012   0.10205   0.95581   0.00000  Uiso   1.00
C384   C     0.51774   0.14083   0.95240   0.00000  Uiso   1.00
C385   C     0.47069   0.14128   0.92003   0.00000  Uiso   1.00
C386   C     0.66225   0.02385   0.99722   0.00000  Uiso   1.00
C387   C     0.63212   0.99688   0.02862   0.00000  Uiso   1.00
C388   C     0.63738   0.93150   0.03112   0.00000  Uiso   1.00
C389   C     0.76865   0.11035   0.97824   0.00000  Uiso   1.00
C390   C     0.82800   0.15610   0.99370   0.00000  Uiso   1.00
C391   C     0.92286   0.16353   0.98023   0.00000  Uiso   1.00
H392   H     0.75218   0.99734   0.91568   0.00000  Uiso   1.00
H393   H     0.61383   0.03676   0.87391   0.00000  Uiso   1.00
H394   H     0.72821   0.89284   0.95012   0.00000  Uiso   1.00
H395   H     0.92406   0.05204   0.91520   0.00000  Uiso   1.00
H396   H     0.44536   0.09678   0.83992   0.00000  Uiso   1.00
H397   H     0.68656   0.79331   0.00062   0.00000  Uiso   1.00
H398   H     0.09955   0.12900   0.92699   0.00000  Uiso   1.00
H399   H     0.63602   0.12314   0.01058   0.00000  Uiso   1.00
H400   H     0.49130   0.16947   0.97402   0.00000  Uiso   1.00
H401   H     0.60568   0.02554   0.05023   0.00000  Uiso   1.00
H402   H     0.80152   0.18473   0.01531   0.00000  Uiso   1.00
H403   H     0.34591   0.20448   0.92118   0.00000  Uiso   1.00
H404   H     0.58711   0.90101   0.08188   0.00000  Uiso   1.00
H405   H     0.00009   0.23670   0.00825   0.00000  Uiso   1.00
O406   O     0.30251   0.17882   0.85479   0.00000  Uiso   1.00
O407   O     0.61897   0.78068   0.06562   0.00000  Uiso   1.00
O408   O     0.16079   0.22110   0.96902   0.00000  Uiso   1.00
N409   N     0.44183   0.11578   0.86406   0.00000  Uiso   1.00
N410   N     0.66732   0.83205   0.01430   0.00000  Uiso   1.00
N411   N     0.05343   0.14588   0.94547   0.00000  Uiso   1.00
N412   N     0.38831   0.17373   0.90778   0.00000  Uiso   1.00
N413   N     0.61380   0.89001   0.05803   0.00000  Uiso   1.00
N414   N     0.99992   0.20383   0.98919   0.00000  Uiso   1.00
C415   C     0.72556   0.52617   0.43742   0.00000  Uiso   1.00
C416   C     0.63430   0.56503   0.42788   0.00000  Uiso   1.00
C417   C     0.58736   0.56542   0.39551   0.00000  Uiso   1.00
C418   C     0.50493   0.60419   0.39205   0.00000  Uiso   1.00
C419   C     0.36839   0.65888   0.37301   0.00000  Uiso   1.00
C420   C     0.69643   0.48683   0.46929   0.00000  Uiso   1.00
C421   C     0.70175   0.42148   0.47174   0.00000  Uiso   1.00
C422   C     0.67163   0.39441   0.50314   0.00000  Uiso   1.00
C423   C     0.63161   0.32771   0.54838   0.00000  Uiso   1.00
C424   C     0.80283   0.57333   0.45032   0.00000  Uiso   1.00
C425   C     0.89763   0.58069   0.43681   0.00000  Uiso   1.00
C426   C     0.95711   0.62644   0.45225   0.00000  Uiso   1.00
C427   C     0.08230   0.69403   0.46803   0.00000  Uiso   1.00
C428   C     0.66263   0.59432   0.48884   0.00000  Uiso   1.00
C429   C     0.60012   0.60205   0.45581   0.00000  Uiso   1.00
C430   C     0.51774   0.64083   0.45240   0.00000  Uiso   1.00
C431   C     0.47069   0.64128   0.42003   0.00000  Uiso   1.00
C432   C     0.66225   0.52385   0.49722   0.00000  Uiso   1.00
C433   C     0.63212   0.49688   0.52862   0.00000  Uiso   1.00
C434   C     0.63738   0.43150   0.53112   0.00000  Uiso   1.00
C435   C     0.76865   0.61035   0.47824   0.00000  Uiso   1.00
C436   C     0.82800   0.65610   0.49370   0.00000  Uiso   1.00
C437   C     0.92286   0.66353   0.48023   0.00000  Uiso   1.00
H438   H     0.75218   0.49734   0.41568   0.00000  Uiso   1.00
H439   H     0.61383   0.53676   0.37391   0.00000  Uiso   1.00
H440   H     0.72821   0.39284   0.45012   0.00000  Uiso   1.00
H441   H     0.92406   0.55204   0.41520   0.00000  Uiso   1.00
H442   H     0.44536   0.59678   0.33992   0.00000  Uiso   1.00
H443   H     0.68656   0.29331   0.50062   0.00000  Uiso   1.00
H444   H     0.09955   0.62900   0.42699   0.00000  Uiso   1.00
H445   H     0.63602   0.62314   0.51058   0.00000  Uiso   1.00
H446   H     0.49130   0.66947   0.47402   0.00000  Uiso   1.00
H447   H     0.60568   0.52554   0.55023   0.00000  Uiso   1.00
H448   H     0.80152   0.68473   0.51531   0.00000  Uiso   1.00
H449   H     0.34591   0.70448   0.42118   0.00000  Uiso   1.00
H450   H     0.58711   0.40101   0.58188   0.00000  Uiso   1.00
H451   H     0.00009   0.73670   0.50825   0.00000  Uiso   1.00
O452   O     0.30251   0.67882   0.35479   0.00000  Uiso   1.00
O453   O     0.61897   0.28068   0.56562   0.00000  Uiso   1.00
O454   O     0.16079   0.72110   0.46902   0.00000  Uiso   1.00
N455   N     0.44183   0.61578   0.36406   0.00000  Uiso   1.00
N456   N     0.66732   0.33205   0.51430   0.00000  Uiso   1.00
N457   N     0.05343   0.64588   0.44547   0.00000  Uiso   1.00
N458   N     0.38831   0.67373   0.40778   0.00000  Uiso   1.00
N459   N     0.61380   0.39001   0.55803   0.00000  Uiso   1.00
N460   N     0.99992   0.70383   0.48919   0.00000  Uiso   1.00
C461   C     0.22556   0.02617   0.43742   0.00000  Uiso   1.00
C462   C     0.13430   0.06503   0.42788   0.00000  Uiso   1.00
C463   C     0.08736   0.06542   0.39551   0.00000  Uiso   1.00
C464   C     0.00493   0.10419   0.39205   0.00000  Uiso   1.00
C465   C     0.86839   0.15888   0.37301   0.00000  Uiso   1.00
C466   C     0.19643   0.98683   0.46929   0.00000  Uiso   1.00
C467   C     0.20175   0.92148   0.47174   0.00000  Uiso   1.00
C468   C     0.17163   0.89441   0.50314   0.00000  Uiso   1.00
C469   C     0.13161   0.82771   0.54838   0.00000  Uiso   1.00
C470   C     0.30283   0.07333   0.45032   0.00000  Uiso   1.00
C471   C     0.39763   0.08069   0.43681   0.00000  Uiso   1.00
C472   C     0.45711   0.12644   0.45225   0.00000  Uiso   1.00
C473   C     0.58230   0.19403   0.46803   0.00000  Uiso   1.00
C474   C     0.16263   0.09432   0.48884   0.00000  Uiso   1.00
C475   C     0.10012   0.10205   0.45581   0.00000  Uiso   1.00
C476   C     0.01774   0.14083   0.45240   0.00000  Uiso   1.00
C477   C     0.97069   0.14128   0.42003   0.00000  Uiso   1.00
C478   C     0.16225   0.02385   0.49722   0.00000  Uiso   1.00
C479   C     0.13212   0.99688   0.52862   0.00000  Uiso   1.00
C480   C     0.13738   0.93150   0.53112   0.00000  Uiso   1.00
C481   C     0.26865   0.11035   0.47824   0.00000  Uiso   1.00
C482   C     0.32800   0.15610   0.49370   0.00000  Uiso   1.00
C483   C     0.42286   0.16353   0.48023   0.00000  Uiso   1.00
H484   H     0.25218   0.99734   0.41568   0.00000  Uiso   1.00
H485   H     0.11383   0.03676   0.37391   0.00000  Uiso   1.00
H486   H     0.22821   0.89284   0.45012   0.00000  Uiso   1.00
H487   H     0.42406   0.05204   0.41520   0.00000  Uiso   1.00
H488   H     0.94536   0.09678   0.33992   0.00000  Uiso   1.00
H489   H     0.18656   0.79331   0.50062   0.00000  Uiso   1.00
H490   H     0.59955   0.12900   0.42699   0.00000  Uiso   1.00
H491   H     0.13602   0.12314   0.51058   0.00000  Uiso   1.00
H492   H     0.99130   0.16947   0.47402   0.00000  Uiso   1.00
H493   H     0.10568   0.02554   0.55023   0.00000  Uiso   1.00
H494   H     0.30152   0.18473   0.51531   0.00000  Uiso   1.00
H495   H     0.84591   0.20448   0.42118   0.00000  Uiso   1.00
H496   H     0.08711   0.90101   0.58188   0.00000  Uiso   1.00
H497   H     0.50009   0.23670   0.50825   0.00000  Uiso   1.00
O498   O     0.80251   0.17882   0.35479   0.00000  Uiso   1.00
O499   O     0.11897   0.78068   0.56562   0.00000  Uiso   1.00
O500   O     0.66079   0.22110   0.46902   0.00000  Uiso   1.00
N501   N     0.94183   0.11578   0.36406   0.00000  Uiso   1.00
N502   N     0.16732   0.83205   0.51430   0.00000  Uiso   1.00
N503   N     0.55343   0.14588   0.44547   0.00000  Uiso   1.00
N504   N     0.88831   0.17373   0.40778   0.00000  Uiso   1.00
N505   N     0.11380   0.89001   0.55803   0.00000  Uiso   1.00
N506   N     0.49992   0.20383   0.48919   0.00000  Uiso   1.00
C507   C     0.22556   0.52617   0.93742   0.00000  Uiso   1.00
C508   C     0.13430   0.56503   0.92788   0.00000  Uiso   1.00
C509   C     0.08736   0.56542   0.89551   0.00000  Uiso   1.00
C510   C     0.00493   0.60419   0.89205   0.00000  Uiso   1.00
C511   C     0.86839   0.65888   0.87301   0.00000  Uiso   1.00
C512   C     0.19643   0.48683   0.96929   0.00000  Uiso   1.00
C513   C     0.20175   0.42148   0.97174   0.00000  Uiso   1.00
C514   C     0.17163   0.39441   0.00314   0.00000  Uiso   1.00
C515   C     0.13161   0.32771   0.04838   0.00000  Uiso   1.00
C516   C     0.30283   0.57333   0.95032   0.00000  Uiso   1.00
C517   C     0.39763   0.58069   0.93681   0.00000  Uiso   1.00
C518   C     0.45711   0.62644   0.95225   0.00000  Uiso   1.00
C519   C     0.58230   0.69403   0.96803   0.00000  Uiso   1.00
C520   C     0.16263   0.59432   0.98884   0.00000  Uiso   1.00
C521   C     0.10012   0.60205   0.95581   0.00000  Uiso   1.00
C522   C     0.01774   0.64083   0.95240   0.00000  Uiso   1.00
C523   C     0.97069   0.64128   0.92003   0.00000  Uiso   1.00
C524   C     0.16225   0.52385   0.99722   0.00000  Uiso   1.00
C525   C     0.13212   0.49688   0.02862   0.00000  Uiso   1.00
C526   C     0.13738   0.43150   0.03112   0.00000  Uiso   1.00
C527   C     0.26865   0.61035   0.97824   0.00000  Uiso   1.00
C528   C     0.32800   0.65610   0.99370   0.00000  Uiso   1.00
C529   C     0.42286   0.66353   0.98023   0.00000  Uiso   1.00
H530   H     0.25218   0.49734   0.91568   0.00000  Uiso   1.00
H531   H     0.11383   0.53676   0.87391   0.00000  Uiso   1.00
H532   H     0.22821   0.39284   0.95012   0.00000  Uiso   1.00
H533   H     0.42406   0.55204   0.91520   0.00000  Uiso   1.00
H534   H     0.94536   0.59678   0.83992   0.00000  Uiso   1.00
H535   H     0.18656   0.29331   0.00062   0.00000  Uiso   1.00
H536   H     0.59955   0.62900   0.92699   0.00000  Uiso   1.00
H537   H     0.13602   0.62314   0.01058   0.00000  Uiso   1.00
H538   H     0.99130   0.66947   0.97402   0.00000  Uiso   1.00
H539   H     0.10568   0.52554   0.05023   0.00000  Uiso   1.00
H540   H     0.30152   0.68473   0.01531   0.00000  Uiso   1.00
H541   H     0.84591   0.70448   0.92118   0.00000  Uiso   1.00
H542   H     0.08711   0.40101   0.08188   0.00000  Uiso   1.00
H543   H     0.50009   0.73670   0.00825   0.00000  Uiso   1.00
O544   O     0.80251   0.67882   0.85479   0.00000  Uiso   1.00
O545   O     0.11897   0.28068   0.06562   0.00000  Uiso   1.00
O546   O     0.66079   0.72110   0.96902   0.00000  Uiso   1.00
N547   N     0.94183   0.61578   0.86406   0.00000  Uiso   1.00
N548   N     0.16732   0.33205   0.01430   0.00000  Uiso   1.00
N549   N     0.55343   0.64588   0.94547   0.00000  Uiso   1.00
N550   N     0.88831   0.67373   0.90778   0.00000  Uiso   1.00
N551   N     0.11380   0.39001   0.05803   0.00000  Uiso   1.00
N552   N     0.49992   0.70383   0.98919   0.00000  Uiso   1.00
C553   C     0.77444   0.47383   0.93742   0.00000  Uiso   1.00
C554   C     0.86570   0.43497   0.92788   0.00000  Uiso   1.00
C555   C     0.91264   0.43458   0.89551   0.00000  Uiso   1.00
C556   C     0.99507   0.39581   0.89205   0.00000  Uiso   1.00
C557   C     0.13161   0.34112   0.87301   0.00000  Uiso   1.00
C558   C     0.80357   0.51317   0.96929   0.00000  Uiso   1.00
C559   C     0.79825   0.57852   0.97174   0.00000  Uiso   1.00
C560   C     0.82837   0.60559   0.00314   0.00000  Uiso   1.00
C561   C     0.86839   0.67229   0.04838   0.00000  Uiso   1.00
C562   C     0.69717   0.42667   0.95032   0.00000  Uiso   1.00
C563   C     0.60237   0.41931   0.93681   0.00000  Uiso   1.00
C564   C     0.54289   0.37356   0.95225   0.00000  Uiso   1.00
C565   C     0.41770   0.30597   0.96803   0.00000  Uiso   1.00
C566   C     0.83737   0.40568   0.98884   0.00000  Uiso   1.00
C567   C     0.89988   0.39795   0.95581   0.00000  Uiso   1.00
C568   C     0.98226   0.35917   0.95240   0.00000  Uiso   1.00
C569   C     0.02931   0.35872   0.92003   0.00000  Uiso   1.00
C570   C     0.83775   0.47615   0.99722   0.00000  Uiso   1.00
C571   C     0.86788   0.50312   0.02862   0.00000  Uiso   1.00
C572   C     0.86262   0.56850   0.03112   0.00000  Uiso   1.00
C573   C     0.73135   0.38965   0.97824   0.00000  Uiso   1.00
C574   C     0.67200   0.34390   0.99370   0.00000  Uiso   1.00
C575   C     0.57714   0.33647   0.98023   0.00000  Uiso   1.00
H576   H     0.74782   0.50266   0.91568   0.00000  Uiso   1.00
H577   H     0.88617   0.46324   0.87391   0.00000  Uiso   1.00
H578   H     0.77179   0.60716   0.95012   0.00000  Uiso   1.00
H579   H     0.57594   0.44796   0.91520   0.00000  Uiso   1.00
H580   H     0.05464   0.40322   0.83992   0.00000  Uiso   1.00
H581   H     0.81344   0.70669   0.00062   0.00000  Uiso   1.00
H582   H     0.40045   0.37100   0.92699   0.00000  Uiso   1.00
H583   H     0.86398   0.37686   0.01058   0.00000  Uiso   1.00
H584   H     0.00870   0.33053   0.97402   0.00000  Uiso   1.00
H585   H     0.89432   0.47446   0.05023   0.00000  Uiso   1.00
H586   H     0.69848   0.31527   0.01531   0.00000  Uiso   1.00
H587   H     0.15409   0.29552   0.92118   0.00000  Uiso   1.00
H588   H     0.91289   0.59899   0.08188   0.00000  Uiso   1.00
H589   H     0.49991   0.26330   0.00825   0.00000  Uiso   1.00
O590   O     0.19749   0.32118   0.85479   0.00000  Uiso   1.00
O591   O     0.88103   0.71932   0.06562   0.00000  Uiso   1.00
O592   O     0.33921   0.27890   0.96902   0.00000  Uiso   1.00
N593   N     0.05817   0.38422   0.86406   0.00000  Uiso   1.00
N594   N     0.83268   0.66795   0.01430   0.00000  Uiso   1.00
N595   N     0.44657   0.35412   0.94547   0.00000  Uiso   1.00
N596   N     0.11169   0.32627   0.90778   0.00000  Uiso   1.00
N597   N     0.88620   0.60999   0.05803   0.00000  Uiso   1.00
N598   N     0.50008   0.29617   0.98919   0.00000  Uiso   1.00
C599   C     0.77444   0.97383   0.43742   0.00000  Uiso   1.00
C600   C     0.86570   0.93497   0.42788   0.00000  Uiso   1.00
C601   C     0.91264   0.93458   0.39551   0.00000  Uiso   1.00
C602   C     0.99507   0.89581   0.39205   0.00000  Uiso   1.00
C603   C     0.13161   0.84112   0.37301   0.00000  Uiso   1.00
C604   C     0.80357   0.01317   0.46929   0.00000  Uiso   1.00
C605   C     0.79825   0.07852   0.47174   0.00000  Uiso   1.00
C606   C     0.82837   0.10559   0.50314   0.00000  Uiso   1.00
C607   C     0.86839   0.17229   0.54838   0.00000  Uiso   1.00
C608   C     0.69717   0.92667   0.45032   0.00000  Uiso   1.00
C609   C     0.60237   0.91931   0.43681   0.00000  Uiso   1.00
C610   C     0.54289   0.87356   0.45225   0.00000  Uiso   1.00
C611   C     0.41770   0.80597   0.46803   0.00000  Uiso   1.00
C612   C     0.83737   0.90568   0.48884   0.00000  Uiso   1.00
C613   C     0.89988   0.89795   0.45581   0.00000  Uiso   1.00
C614   C     0.98226   0.85917   0.45240   0.00000  Uiso   1.00
C615   C     0.02931   0.85872   0.42003   0.00000  Uiso   1.00
C616   C     0.83775   0.97615   0.49722   0.00000  Uiso   1.00
C617   C     0.86788   0.00312   0.52862   0.00000  Uiso   1.00
C618   C     0.86262   0.06850   0.53112   0.00000  Uiso   1.00
C619   C     0.73135   0.88965   0.47824   0.00000  Uiso   1.00
C620   C     0.67200   0.84390   0.49370   0.00000  Uiso   1.00
C621   C     0.57714   0.83647   0.48023   0.00000  Uiso   1.00
H622   H     0.74782   0.00266   0.41568   0.00000  Uiso   1.00
H623   H     0.88617   0.96324   0.37391   0.00000  Uiso   1.00
H624   H     0.77179   0.10716   0.45012   0.00000  Uiso   1.00
H625   H     0.57594   0.94796   0.41520   0.00000  Uiso   1.00
H626   H     0.05464   0.90322   0.33992   0.00000  Uiso   1.00
H627   H     0.81344   0.20669   0.50062   0.00000  Uiso   1.00
H628   H     0.40045   0.87100   0.42699   0.00000  Uiso   1.00
H629   H     0.86398   0.87686   0.51058   0.00000  Uiso   1.00
H630   H     0.00870   0.83053   0.47402   0.00000  Uiso   1.00
H631   H     0.89432   0.97446   0.55023   0.00000  Uiso   1.00
H632   H     0.69848   0.81527   0.51531   0.00000  Uiso   1.00
H633   H     0.15409   0.79552   0.42118   0.00000  Uiso   1.00
H634   H     0.91289   0.09899   0.58188   0.00000  Uiso   1.00
H635   H     0.49991   0.76330   0.50825   0.00000  Uiso   1.00
O636   O     0.19749   0.82118   0.35479   0.00000  Uiso   1.00
O637   O     0.88103   0.21932   0.56562   0.00000  Uiso   1.00
O638   O     0.33921   0.77890   0.46902   0.00000  Uiso   1.00
N639   N     0.05817   0.88422   0.36406   0.00000  Uiso   1.00
N640   N     0.83268   0.16795   0.51430   0.00000  Uiso   1.00
N641   N     0.44657   0.85412   0.44547   0.00000  Uiso   1.00
N642   N     0.11169   0.82627   0.40778   0.00000  Uiso   1.00
N643   N     0.88620   0.10999   0.55803   0.00000  Uiso   1.00
N644   N     0.50008   0.79617   0.48919   0.00000  Uiso   1.00
C645   C     0.27444   0.47383   0.43742   0.00000  Uiso   1.00
C646   C     0.36570   0.43497   0.42788   0.00000  Uiso   1.00
C647   C     0.41264   0.43458   0.39551   0.00000  Uiso   1.00
C648   C     0.49507   0.39581   0.39205   0.00000  Uiso   1.00
C649   C     0.63161   0.34112   0.37301   0.00000  Uiso   1.00
C650   C     0.30357   0.51317   0.46929   0.00000  Uiso   1.00
C651   C     0.29825   0.57852   0.47174   0.00000  Uiso   1.00
C652   C     0.32837   0.60559   0.50314   0.00000  Uiso   1.00
C653   C     0.36839   0.67229   0.54838   0.00000  Uiso   1.00
C654   C     0.19717   0.42667   0.45032   0.00000  Uiso   1.00
C655   C     0.10237   0.41931   0.43681   0.00000  Uiso   1.00
C656   C     0.04289   0.37356   0.45225   0.00000  Uiso   1.00
C657   C     0.91770   0.30597   0.46803   0.00000  Uiso   1.00
C658   C     0.33737   0.40568   0.48884   0.00000  Uiso   1.00
C659   C     0.39988   0.39795   0.45581   0.00000  Uiso   1.00
C660   C     0.48226   0.35917   0.45240   0.00000  Uiso   1.00
C661   C     0.52931   0.35872   0.42003   0.00000  Uiso   1.00
C662   C     0.33775   0.47615   0.49722   0.00000  Uiso   1.00
C663   C     0.36788   0.50312   0.52862   0.00000  Uiso   1.00
C664   C     0.36262   0.56850   0.53112   0.00000  Uiso   1.00
C665   C     0.23135   0.38965   0.47824   0.00000  Uiso   1.00
C666   C     0.17200   0.34390   0.49370   0.00000  Uiso   1.00
C667   C     0.07714   0.33647   0.48023   0.00000  Uiso   1.00
H668   H     0.24782   0.50266   0.41568   0.00000  Uiso   1.00
H669   H     0.38617   0.46324   0.37391   0.00000  Uiso   1.00
H670   H     0.27179   0.60716   0.45012   0.00000  Uiso   1.00
H671   H     0.07594   0.44796   0.41520   0.00000  Uiso   1.00
H672   H     0.55464   0.40322   0.33992   0.00000  Uiso   1.00
H673   H     0.31344   0.70669   0.50062   0.00000  Uiso   1.00
H674   H     0.90045   0.37100   0.42699   0.00000  Uiso   1.00
H675   H     0.36398   0.37686   0.51058   0.00000  Uiso   1.00
H676   H     0.50870   0.33053   0.47402   0.00000  Uiso   1.00
H677   H     0.39432   0.47446   0.55023   0.00000  Uiso   1.00
H678   H     0.19848   0.31527   0.51531   0.00000  Uiso   1.00
H679   H     0.65409   0.29552   0.42118   0.00000  Uiso   1.00
H680   H     0.41289   0.59899   0.58188   0.00000  Uiso   1.00
H681   H     0.99991   0.26330   0.50825   0.00000  Uiso   1.00
O682   O     0.69749   0.32118   0.35479   0.00000  Uiso   1.00
O683   O     0.38103   0.71932   0.56562   0.00000  Uiso   1.00
O684   O     0.83921   0.27890   0.46902   0.00000  Uiso   1.00
N685   N     0.55817   0.38422   0.36406   0.00000  Uiso   1.00
N686   N     0.33268   0.66795   0.51430   0.00000  Uiso   1.00
N687   N     0.94657   0.35412   0.44547   0.00000  Uiso   1.00
N688   N     0.61169   0.32627   0.40778   0.00000  Uiso   1.00
N689   N     0.38620   0.60999   0.55803   0.00000  Uiso   1.00
N690   N     0.00008   0.29617   0.48919   0.00000  Uiso   1.00
C691   C     0.27444   0.97383   0.93742   0.00000  Uiso   1.00
C692   C     0.36570   0.93497   0.92788   0.00000  Uiso   1.00
C693   C     0.41264   0.93458   0.89551   0.00000  Uiso   1.00
C694   C     0.49507   0.89581   0.89205   0.00000  Uiso   1.00
C695   C     0.63161   0.84112   0.87301   0.00000  Uiso   1.00
C696   C     0.30357   0.01317   0.96929   0.00000  Uiso   1.00
C697   C     0.29825   0.07852   0.97174   0.00000  Uiso   1.00
C698   C     0.32837   0.10559   0.00314   0.00000  Uiso   1.00
C699   C     0.36839   0.17229   0.04838   0.00000  Uiso   1.00
C700   C     0.19717   0.92667   0.95032   0.00000  Uiso   1.00
C701   C     0.10237   0.91931   0.93681   0.00000  Uiso   1.00
C702   C     0.04289   0.87356   0.95225   0.00000  Uiso   1.00
C703   C     0.91770   0.80597   0.96803   0.00000  Uiso   1.00
C704   C     0.33737   0.90568   0.98884   0.00000  Uiso   1.00
C705   C     0.39988   0.89795   0.95581   0.00000  Uiso   1.00
C706   C     0.48226   0.85917   0.95240   0.00000  Uiso   1.00
C707   C     0.52931   0.85872   0.92003   0.00000  Uiso   1.00
C708   C     0.33775   0.97615   0.99722   0.00000  Uiso   1.00
C709   C     0.36788   0.00312   0.02862   0.00000  Uiso   1.00
C710   C     0.36262   0.06850   0.03112   0.00000  Uiso   1.00
C711   C     0.23135   0.88965   0.97824   0.00000  Uiso   1.00
C712   C     0.17200   0.84390   0.99370   0.00000  Uiso   1.00
C713   C     0.07714   0.83647   0.98023   0.00000  Uiso   1.00
H714   H     0.24782   0.00266   0.91568   0.00000  Uiso   1.00
H715   H     0.38617   0.96324   0.87391   0.00000  Uiso   1.00
H716   H     0.27179   0.10716   0.95012   0.00000  Uiso   1.00
H717   H     0.07594   0.94796   0.91520   0.00000  Uiso   1.00
H718   H     0.55464   0.90322   0.83992   0.00000  Uiso   1.00
H719   H     0.31344   0.20669   0.00062   0.00000  Uiso   1.00
H720   H     0.90045   0.87100   0.92699   0.00000  Uiso   1.00
H721   H     0.36398   0.87686   0.01058   0.00000  Uiso   1.00
H722   H     0.50870   0.83053   0.97402   0.00000  Uiso   1.00
H723   H     0.39432   0.97446   0.05023   0.00000  Uiso   1.00
H724   H     0.19848   0.81527   0.01531   0.00000  Uiso   1.00
H725   H     0.65409   0.79552   0.92118   0.00000  Uiso   1.00
H726   H     0.41289   0.09899   0.08188   0.00000  Uiso   1.00
H727   H     0.99991   0.76330   0.00825   0.00000  Uiso   1.00
O728   O     0.69749   0.82118   0.85479   0.00000  Uiso   1.00
O729   O     0.38103   0.21932   0.06562   0.00000  Uiso   1.00
O730   O     0.83921   0.77890   0.96902   0.00000  Uiso   1.00
N731   N     0.55817   0.88422   0.86406   0.00000  Uiso   1.00
N732   N     0.33268   0.16795   0.01430   0.00000  Uiso   1.00
N733   N     0.94657   0.85412   0.94547   0.00000  Uiso   1.00
N734   N     0.61169   0.82627   0.90778   0.00000  Uiso   1.00
N735   N     0.38620   0.10999   0.05803   0.00000  Uiso   1.00
N736   N     0.00008   0.79617   0.98919   0.00000  Uiso   1.00
