data_job_03172
_audit_creation_date              2018-12-19
_audit_creation_method            'Materials Studio'
_symmetry_space_group_name_H-M    'P1'
_symmetry_Int_Tables_number       1
_symmetry_cell_setting            triclinic
loop_
_symmetry_equiv_pos_as_xyz
  x,y,z
_cell_length_a                    12.4031
_cell_length_b                    80.3124
_cell_length_c                    15.4245
_cell_angle_alpha                 90.0000
_cell_angle_beta                  90.0000
_cell_angle_gamma                 90.0000
loop_
_atom_site_label
_atom_site_type_symbol
_atom_site_fract_x
_atom_site_fract_y
_atom_site_fract_z
_atom_site_U_iso_or_equiv
_atom_site_adp_type
_atom_site_occupancy
C1     C     0.30083   0.65997   0.41552   0.00000  Uiso   1.00
C2     C     0.37551   0.65912   0.49393   0.00000  Uiso   1.00
C3     C     0.35245   0.65134   0.57211   0.00000  Uiso   1.00
C4     C     0.43141   0.65196   0.63583   0.00000  Uiso   1.00
C5     C     0.53237   0.64942   0.75974   0.00000  Uiso   1.00
C6     C     0.28708   0.67842   0.39496   0.00000  Uiso   1.00
C7     C     0.18966   0.68687   0.38991   0.00000  Uiso   1.00
C8     C     0.19418   0.70372   0.37031   0.00000  Uiso   1.00
C9     C     0.15784   0.73114   0.34050   0.00000  Uiso   1.00
C10    C     0.36410   0.65259   0.33996   0.00000  Uiso   1.00
C11    C     0.33143   0.63932   0.28864   0.00000  Uiso   1.00
C12    C     0.40079   0.63444   0.22271   0.00000  Uiso   1.00
C13    C     0.48403   0.62175   0.10750   0.00000  Uiso   1.00
C14    C     0.48207   0.67489   0.38968   0.00000  Uiso   1.00
C15    C     0.47395   0.66723   0.47989   0.00000  Uiso   1.00
C16    C     0.55296   0.66785   0.54352   0.00000  Uiso   1.00
C17    C     0.53002   0.66008   0.62177   0.00000  Uiso   1.00
C18    C     0.38551   0.68652   0.38093   0.00000  Uiso   1.00
C19    C     0.39018   0.70337   0.36132   0.00000  Uiso   1.00
C20    C     0.29279   0.71184   0.35625   0.00000  Uiso   1.00
C21    C     0.46254   0.66069   0.32592   0.00000  Uiso   1.00
C22    C     0.53195   0.65583   0.26005   0.00000  Uiso   1.00
C23    C     0.49940   0.64256   0.20865   0.00000  Uiso   1.00
H24    H     0.22419   0.65366   0.42645   0.00000  Uiso   1.00
H25    H     0.27626   0.64507   0.58295   0.00000  Uiso   1.00
H26    H     0.11350   0.68059   0.40077   0.00000  Uiso   1.00
H27    H     0.25525   0.63306   0.29952   0.00000  Uiso   1.00
H28    H     0.37738   0.63914   0.75028   0.00000  Uiso   1.00
H29    H     0.03419   0.71402   0.36612   0.00000  Uiso   1.00
H30    H     0.33310   0.61379   0.15261   0.00000  Uiso   1.00
H31    H     0.55871   0.68120   0.37875   0.00000  Uiso   1.00
H32    H     0.62913   0.67412   0.53264   0.00000  Uiso   1.00
H33    H     0.46637   0.70964   0.35046   0.00000  Uiso   1.00
H34    H     0.60812   0.66211   0.24921   0.00000  Uiso   1.00
H35    H     0.66378   0.66271   0.70945   0.00000  Uiso   1.00
H36    H     0.32059   0.73760   0.32528   0.00000  Uiso   1.00
H37    H     0.61950   0.63736   0.11177   0.00000  Uiso   1.00
O38    O     0.56086   0.64578   0.83197   0.00000  Uiso   1.00
O39    O     0.11060   0.74402   0.32795   0.00000  Uiso   1.00
O40    O     0.50277   0.61252   0.04783   0.00000  Uiso   1.00
N41    N     0.43513   0.64565   0.71955   0.00000  Uiso   1.00
N42    N     0.11426   0.71567   0.36039   0.00000  Uiso   1.00
N43    N     0.39371   0.62196   0.16076   0.00000  Uiso   1.00
N44    N     0.58924   0.65834   0.69757   0.00000  Uiso   1.00
N45    N     0.26838   0.72835   0.33842   0.00000  Uiso   1.00
N46    N     0.54782   0.63464   0.13879   0.00000  Uiso   1.00
C47    C     0.30083   0.15997   0.91552   0.00000  Uiso   1.00
C48    C     0.37551   0.15912   0.99393   0.00000  Uiso   1.00
C49    C     0.35245   0.15134   0.07211   0.00000  Uiso   1.00
C50    C     0.43141   0.15196   0.13583   0.00000  Uiso   1.00
C51    C     0.53237   0.14942   0.25974   0.00000  Uiso   1.00
C52    C     0.28708   0.17842   0.89496   0.00000  Uiso   1.00
C53    C     0.18966   0.18687   0.88991   0.00000  Uiso   1.00
C54    C     0.19418   0.20372   0.87031   0.00000  Uiso   1.00
C55    C     0.15784   0.23114   0.84050   0.00000  Uiso   1.00
C56    C     0.36410   0.15259   0.83996   0.00000  Uiso   1.00
C57    C     0.33143   0.13932   0.78864   0.00000  Uiso   1.00
C58    C     0.40079   0.13444   0.72271   0.00000  Uiso   1.00
C59    C     0.48403   0.12175   0.60750   0.00000  Uiso   1.00
C60    C     0.48207   0.17489   0.88968   0.00000  Uiso   1.00
C61    C     0.47395   0.16723   0.97989   0.00000  Uiso   1.00
C62    C     0.55296   0.16785   0.04352   0.00000  Uiso   1.00
C63    C     0.53002   0.16008   0.12177   0.00000  Uiso   1.00
C64    C     0.38551   0.18652   0.88093   0.00000  Uiso   1.00
C65    C     0.39018   0.20337   0.86132   0.00000  Uiso   1.00
C66    C     0.29279   0.21184   0.85625   0.00000  Uiso   1.00
C67    C     0.46254   0.16069   0.82592   0.00000  Uiso   1.00
C68    C     0.53195   0.15583   0.76005   0.00000  Uiso   1.00
C69    C     0.49940   0.14256   0.70865   0.00000  Uiso   1.00
H70    H     0.22419   0.15366   0.92645   0.00000  Uiso   1.00
H71    H     0.27626   0.14507   0.08295   0.00000  Uiso   1.00
H72    H     0.11350   0.18059   0.90077   0.00000  Uiso   1.00
H73    H     0.25525   0.13306   0.79952   0.00000  Uiso   1.00
H74    H     0.37738   0.13914   0.25028   0.00000  Uiso   1.00
H75    H     0.03419   0.21402   0.86612   0.00000  Uiso   1.00
H76    H     0.33310   0.11379   0.65261   0.00000  Uiso   1.00
H77    H     0.55871   0.18120   0.87875   0.00000  Uiso   1.00
H78    H     0.62913   0.17412   0.03264   0.00000  Uiso   1.00
H79    H     0.46637   0.20964   0.85046   0.00000  Uiso   1.00
H80    H     0.60812   0.16211   0.74921   0.00000  Uiso   1.00
H81    H     0.66378   0.16271   0.20945   0.00000  Uiso   1.00
H82    H     0.32059   0.23760   0.82528   0.00000  Uiso   1.00
H83    H     0.61950   0.13736   0.61177   0.00000  Uiso   1.00
O84    O     0.56086   0.14578   0.33197   0.00000  Uiso   1.00
O85    O     0.11060   0.24402   0.82795   0.00000  Uiso   1.00
O86    O     0.50277   0.11252   0.54783   0.00000  Uiso   1.00
N87    N     0.43513   0.14565   0.21955   0.00000  Uiso   1.00
N88    N     0.11426   0.21567   0.86039   0.00000  Uiso   1.00
N89    N     0.39371   0.12196   0.66076   0.00000  Uiso   1.00
N90    N     0.58924   0.15834   0.19757   0.00000  Uiso   1.00
N91    N     0.26838   0.22835   0.83842   0.00000  Uiso   1.00
N92    N     0.54782   0.13464   0.63879   0.00000  Uiso   1.00
C93    C     0.80083   0.65997   0.91552   0.00000  Uiso   1.00
C94    C     0.87551   0.65912   0.99393   0.00000  Uiso   1.00
C95    C     0.85245   0.65134   0.07211   0.00000  Uiso   1.00
C96    C     0.93141   0.65196   0.13583   0.00000  Uiso   1.00
C97    C     0.03237   0.64942   0.25974   0.00000  Uiso   1.00
C98    C     0.78708   0.67842   0.89496   0.00000  Uiso   1.00
C99    C     0.68966   0.68687   0.88991   0.00000  Uiso   1.00
C100   C     0.69418   0.70372   0.87031   0.00000  Uiso   1.00
C101   C     0.65784   0.73114   0.84050   0.00000  Uiso   1.00
C102   C     0.86410   0.65259   0.83996   0.00000  Uiso   1.00
C103   C     0.83143   0.63932   0.78864   0.00000  Uiso   1.00
C104   C     0.90079   0.63444   0.72271   0.00000  Uiso   1.00
C105   C     0.98403   0.62175   0.60750   0.00000  Uiso   1.00
C106   C     0.98207   0.67489   0.88968   0.00000  Uiso   1.00
C107   C     0.97395   0.66723   0.97989   0.00000  Uiso   1.00
C108   C     0.05296   0.66785   0.04352   0.00000  Uiso   1.00
C109   C     0.03002   0.66008   0.12177   0.00000  Uiso   1.00
C110   C     0.88551   0.68652   0.88093   0.00000  Uiso   1.00
C111   C     0.89018   0.70337   0.86132   0.00000  Uiso   1.00
C112   C     0.79279   0.71184   0.85625   0.00000  Uiso   1.00
C113   C     0.96254   0.66069   0.82592   0.00000  Uiso   1.00
C114   C     0.03195   0.65583   0.76005   0.00000  Uiso   1.00
C115   C     0.99940   0.64256   0.70865   0.00000  Uiso   1.00
H116   H     0.72419   0.65366   0.92645   0.00000  Uiso   1.00
H117   H     0.77626   0.64507   0.08295   0.00000  Uiso   1.00
H118   H     0.61350   0.68059   0.90077   0.00000  Uiso   1.00
H119   H     0.75525   0.63306   0.79952   0.00000  Uiso   1.00
H120   H     0.87738   0.63914   0.25028   0.00000  Uiso   1.00
H121   H     0.53419   0.71402   0.86612   0.00000  Uiso   1.00
H122   H     0.83310   0.61379   0.65261   0.00000  Uiso   1.00
H123   H     0.05871   0.68120   0.87875   0.00000  Uiso   1.00
H124   H     0.12913   0.67412   0.03264   0.00000  Uiso   1.00
H125   H     0.96637   0.70964   0.85046   0.00000  Uiso   1.00
H126   H     0.10812   0.66211   0.74921   0.00000  Uiso   1.00
H127   H     0.16378   0.66271   0.20945   0.00000  Uiso   1.00
H128   H     0.82059   0.73760   0.82528   0.00000  Uiso   1.00
H129   H     0.11950   0.63736   0.61177   0.00000  Uiso   1.00
O130   O     0.06086   0.64578   0.33197   0.00000  Uiso   1.00
O131   O     0.61060   0.74402   0.82795   0.00000  Uiso   1.00
O132   O     0.00277   0.61252   0.54783   0.00000  Uiso   1.00
N133   N     0.93513   0.64565   0.21955   0.00000  Uiso   1.00
N134   N     0.61426   0.71567   0.86039   0.00000  Uiso   1.00
N135   N     0.89371   0.62196   0.66076   0.00000  Uiso   1.00
N136   N     0.08924   0.65834   0.19757   0.00000  Uiso   1.00
N137   N     0.76838   0.72835   0.83842   0.00000  Uiso   1.00
N138   N     0.04782   0.63464   0.63879   0.00000  Uiso   1.00
C139   C     0.80083   0.15997   0.41552   0.00000  Uiso   1.00
C140   C     0.87551   0.15912   0.49393   0.00000  Uiso   1.00
C141   C     0.85245   0.15134   0.57211   0.00000  Uiso   1.00
C142   C     0.93141   0.15196   0.63583   0.00000  Uiso   1.00
C143   C     0.03237   0.14942   0.75974   0.00000  Uiso   1.00
C144   C     0.78708   0.17842   0.39496   0.00000  Uiso   1.00
C145   C     0.68966   0.18687   0.38991   0.00000  Uiso   1.00
C146   C     0.69418   0.20372   0.37031   0.00000  Uiso   1.00
C147   C     0.65784   0.23114   0.34050   0.00000  Uiso   1.00
C148   C     0.86410   0.15259   0.33996   0.00000  Uiso   1.00
C149   C     0.83143   0.13932   0.28864   0.00000  Uiso   1.00
C150   C     0.90079   0.13444   0.22271   0.00000  Uiso   1.00
C151   C     0.98403   0.12175   0.10750   0.00000  Uiso   1.00
C152   C     0.98207   0.17489   0.38968   0.00000  Uiso   1.00
C153   C     0.97395   0.16723   0.47989   0.00000  Uiso   1.00
C154   C     0.05296   0.16785   0.54352   0.00000  Uiso   1.00
C155   C     0.03002   0.16008   0.62177   0.00000  Uiso   1.00
C156   C     0.88551   0.18652   0.38093   0.00000  Uiso   1.00
C157   C     0.89018   0.20337   0.36132   0.00000  Uiso   1.00
C158   C     0.79279   0.21184   0.35625   0.00000  Uiso   1.00
C159   C     0.96254   0.16069   0.32592   0.00000  Uiso   1.00
C160   C     0.03195   0.15583   0.26005   0.00000  Uiso   1.00
C161   C     0.99940   0.14256   0.20865   0.00000  Uiso   1.00
H162   H     0.72419   0.15366   0.42645   0.00000  Uiso   1.00
H163   H     0.77626   0.14507   0.58295   0.00000  Uiso   1.00
H164   H     0.61350   0.18059   0.40077   0.00000  Uiso   1.00
H165   H     0.75525   0.13306   0.29952   0.00000  Uiso   1.00
H166   H     0.87738   0.13914   0.75028   0.00000  Uiso   1.00
H167   H     0.53419   0.21402   0.36612   0.00000  Uiso   1.00
H168   H     0.83310   0.11379   0.15261   0.00000  Uiso   1.00
H169   H     0.05871   0.18120   0.37875   0.00000  Uiso   1.00
H170   H     0.12913   0.17412   0.53264   0.00000  Uiso   1.00
H171   H     0.96637   0.20964   0.35046   0.00000  Uiso   1.00
H172   H     0.10812   0.16211   0.24921   0.00000  Uiso   1.00
H173   H     0.16378   0.16271   0.70945   0.00000  Uiso   1.00
H174   H     0.82059   0.23760   0.32528   0.00000  Uiso   1.00
H175   H     0.11950   0.13736   0.11177   0.00000  Uiso   1.00
O176   O     0.06086   0.14578   0.83197   0.00000  Uiso   1.00
O177   O     0.61060   0.24402   0.32795   0.00000  Uiso   1.00
O178   O     0.00277   0.11252   0.04783   0.00000  Uiso   1.00
N179   N     0.93513   0.14565   0.71955   0.00000  Uiso   1.00
N180   N     0.61426   0.21567   0.36039   0.00000  Uiso   1.00
N181   N     0.89371   0.12196   0.16076   0.00000  Uiso   1.00
N182   N     0.08924   0.15834   0.69757   0.00000  Uiso   1.00
N183   N     0.76838   0.22835   0.33842   0.00000  Uiso   1.00
N184   N     0.04782   0.13464   0.13879   0.00000  Uiso   1.00
C185   C     0.69917   0.34003   0.41552   0.00000  Uiso   1.00
C186   C     0.62449   0.34088   0.49393   0.00000  Uiso   1.00
C187   C     0.64755   0.34866   0.57211   0.00000  Uiso   1.00
C188   C     0.56859   0.34804   0.63583   0.00000  Uiso   1.00
C189   C     0.46763   0.35058   0.75974   0.00000  Uiso   1.00
C190   C     0.71292   0.32158   0.39496   0.00000  Uiso   1.00
C191   C     0.81034   0.31313   0.38991   0.00000  Uiso   1.00
C192   C     0.80582   0.29628   0.37031   0.00000  Uiso   1.00
C193   C     0.84216   0.26886   0.34050   0.00000  Uiso   1.00
C194   C     0.63590   0.34741   0.33996   0.00000  Uiso   1.00
C195   C     0.66857   0.36068   0.28864   0.00000  Uiso   1.00
C196   C     0.59921   0.36556   0.22271   0.00000  Uiso   1.00
C197   C     0.51597   0.37825   0.10750   0.00000  Uiso   1.00
C198   C     0.51793   0.32511   0.38968   0.00000  Uiso   1.00
C199   C     0.52605   0.33277   0.47989   0.00000  Uiso   1.00
C200   C     0.44704   0.33215   0.54352   0.00000  Uiso   1.00
C201   C     0.46998   0.33992   0.62177   0.00000  Uiso   1.00
C202   C     0.61449   0.31348   0.38093   0.00000  Uiso   1.00
C203   C     0.60982   0.29663   0.36132   0.00000  Uiso   1.00
C204   C     0.70721   0.28816   0.35625   0.00000  Uiso   1.00
C205   C     0.53746   0.33931   0.32592   0.00000  Uiso   1.00
C206   C     0.46805   0.34417   0.26005   0.00000  Uiso   1.00
C207   C     0.50060   0.35744   0.20865   0.00000  Uiso   1.00
H208   H     0.77581   0.34634   0.42645   0.00000  Uiso   1.00
H209   H     0.72374   0.35493   0.58295   0.00000  Uiso   1.00
H210   H     0.88650   0.31941   0.40077   0.00000  Uiso   1.00
H211   H     0.74475   0.36694   0.29952   0.00000  Uiso   1.00
H212   H     0.62262   0.36086   0.75028   0.00000  Uiso   1.00
H213   H     0.96581   0.28598   0.36612   0.00000  Uiso   1.00
H214   H     0.66690   0.38621   0.15261   0.00000  Uiso   1.00
H215   H     0.44129   0.31880   0.37875   0.00000  Uiso   1.00
H216   H     0.37087   0.32588   0.53264   0.00000  Uiso   1.00
H217   H     0.53363   0.29036   0.35046   0.00000  Uiso   1.00
H218   H     0.39188   0.33789   0.24921   0.00000  Uiso   1.00
H219   H     0.33622   0.33729   0.70945   0.00000  Uiso   1.00
H220   H     0.67941   0.26240   0.32528   0.00000  Uiso   1.00
H221   H     0.38050   0.36264   0.11177   0.00000  Uiso   1.00
O222   O     0.43914   0.35422   0.83197   0.00000  Uiso   1.00
O223   O     0.88940   0.25598   0.32795   0.00000  Uiso   1.00
O224   O     0.49723   0.38748   0.04783   0.00000  Uiso   1.00
N225   N     0.56487   0.35435   0.71955   0.00000  Uiso   1.00
N226   N     0.88574   0.28433   0.36039   0.00000  Uiso   1.00
N227   N     0.60629   0.37804   0.16076   0.00000  Uiso   1.00
N228   N     0.41076   0.34166   0.69757   0.00000  Uiso   1.00
N229   N     0.73162   0.27165   0.33842   0.00000  Uiso   1.00
N230   N     0.45218   0.36536   0.13879   0.00000  Uiso   1.00
C231   C     0.69917   0.84003   0.91552   0.00000  Uiso   1.00
C232   C     0.62449   0.84088   0.99393   0.00000  Uiso   1.00
C233   C     0.64755   0.84866   0.07211   0.00000  Uiso   1.00
C234   C     0.56859   0.84804   0.13583   0.00000  Uiso   1.00
C235   C     0.46763   0.85058   0.25974   0.00000  Uiso   1.00
C236   C     0.71292   0.82158   0.89496   0.00000  Uiso   1.00
C237   C     0.81034   0.81313   0.88991   0.00000  Uiso   1.00
C238   C     0.80582   0.79628   0.87031   0.00000  Uiso   1.00
C239   C     0.84216   0.76886   0.84050   0.00000  Uiso   1.00
C240   C     0.63590   0.84741   0.83996   0.00000  Uiso   1.00
C241   C     0.66857   0.86068   0.78864   0.00000  Uiso   1.00
C242   C     0.59921   0.86556   0.72271   0.00000  Uiso   1.00
C243   C     0.51597   0.87825   0.60750   0.00000  Uiso   1.00
C244   C     0.51793   0.82511   0.88968   0.00000  Uiso   1.00
C245   C     0.52605   0.83277   0.97989   0.00000  Uiso   1.00
C246   C     0.44704   0.83215   0.04352   0.00000  Uiso   1.00
C247   C     0.46998   0.83992   0.12177   0.00000  Uiso   1.00
C248   C     0.61449   0.81348   0.88093   0.00000  Uiso   1.00
C249   C     0.60982   0.79663   0.86132   0.00000  Uiso   1.00
C250   C     0.70721   0.78816   0.85625   0.00000  Uiso   1.00
C251   C     0.53746   0.83931   0.82592   0.00000  Uiso   1.00
C252   C     0.46805   0.84417   0.76005   0.00000  Uiso   1.00
C253   C     0.50060   0.85744   0.70865   0.00000  Uiso   1.00
H254   H     0.77581   0.84634   0.92645   0.00000  Uiso   1.00
H255   H     0.72374   0.85493   0.08295   0.00000  Uiso   1.00
H256   H     0.88650   0.81941   0.90077   0.00000  Uiso   1.00
H257   H     0.74475   0.86694   0.79952   0.00000  Uiso   1.00
H258   H     0.62262   0.86086   0.25028   0.00000  Uiso   1.00
H259   H     0.96581   0.78598   0.86612   0.00000  Uiso   1.00
H260   H     0.66690   0.88621   0.65261   0.00000  Uiso   1.00
H261   H     0.44129   0.81880   0.87875   0.00000  Uiso   1.00
H262   H     0.37087   0.82588   0.03264   0.00000  Uiso   1.00
H263   H     0.53363   0.79036   0.85046   0.00000  Uiso   1.00
H264   H     0.39188   0.83789   0.74921   0.00000  Uiso   1.00
H265   H     0.33622   0.83729   0.20945   0.00000  Uiso   1.00
H266   H     0.67941   0.76240   0.82528   0.00000  Uiso   1.00
H267   H     0.38050   0.86264   0.61177   0.00000  Uiso   1.00
O268   O     0.43914   0.85422   0.33197   0.00000  Uiso   1.00
O269   O     0.88940   0.75598   0.82795   0.00000  Uiso   1.00
O270   O     0.49723   0.88748   0.54783   0.00000  Uiso   1.00
N271   N     0.56487   0.85435   0.21955   0.00000  Uiso   1.00
N272   N     0.88574   0.78433   0.86039   0.00000  Uiso   1.00
N273   N     0.60629   0.87804   0.66076   0.00000  Uiso   1.00
N274   N     0.41076   0.84166   0.19757   0.00000  Uiso   1.00
N275   N     0.73162   0.77165   0.83842   0.00000  Uiso   1.00
N276   N     0.45218   0.86536   0.63879   0.00000  Uiso   1.00
C277   C     0.19917   0.34003   0.91552   0.00000  Uiso   1.00
C278   C     0.12449   0.34088   0.99393   0.00000  Uiso   1.00
C279   C     0.14755   0.34866   0.07211   0.00000  Uiso   1.00
C280   C     0.06859   0.34804   0.13583   0.00000  Uiso   1.00
C281   C     0.96763   0.35058   0.25974   0.00000  Uiso   1.00
C282   C     0.21292   0.32158   0.89496   0.00000  Uiso   1.00
C283   C     0.31034   0.31313   0.88991   0.00000  Uiso   1.00
C284   C     0.30582   0.29628   0.87031   0.00000  Uiso   1.00
C285   C     0.34216   0.26886   0.84050   0.00000  Uiso   1.00
C286   C     0.13590   0.34741   0.83996   0.00000  Uiso   1.00
C287   C     0.16857   0.36068   0.78864   0.00000  Uiso   1.00
C288   C     0.09921   0.36556   0.72271   0.00000  Uiso   1.00
C289   C     0.01597   0.37825   0.60750   0.00000  Uiso   1.00
C290   C     0.01793   0.32511   0.88968   0.00000  Uiso   1.00
C291   C     0.02605   0.33277   0.97989   0.00000  Uiso   1.00
C292   C     0.94704   0.33215   0.04352   0.00000  Uiso   1.00
C293   C     0.96998   0.33992   0.12177   0.00000  Uiso   1.00
C294   C     0.11449   0.31348   0.88093   0.00000  Uiso   1.00
C295   C     0.10982   0.29663   0.86132   0.00000  Uiso   1.00
C296   C     0.20721   0.28816   0.85625   0.00000  Uiso   1.00
C297   C     0.03746   0.33931   0.82592   0.00000  Uiso   1.00
C298   C     0.96805   0.34417   0.76005   0.00000  Uiso   1.00
C299   C     0.00060   0.35744   0.70865   0.00000  Uiso   1.00
H300   H     0.27581   0.34634   0.92645   0.00000  Uiso   1.00
H301   H     0.22374   0.35493   0.08295   0.00000  Uiso   1.00
H302   H     0.38650   0.31941   0.90077   0.00000  Uiso   1.00
H303   H     0.24475   0.36694   0.79952   0.00000  Uiso   1.00
H304   H     0.12262   0.36086   0.25028   0.00000  Uiso   1.00
H305   H     0.46581   0.28598   0.86612   0.00000  Uiso   1.00
H306   H     0.16690   0.38621   0.65261   0.00000  Uiso   1.00
H307   H     0.94129   0.31880   0.87875   0.00000  Uiso   1.00
H308   H     0.87087   0.32588   0.03264   0.00000  Uiso   1.00
H309   H     0.03363   0.29036   0.85046   0.00000  Uiso   1.00
H310   H     0.89188   0.33789   0.74921   0.00000  Uiso   1.00
H311   H     0.83622   0.33729   0.20945   0.00000  Uiso   1.00
H312   H     0.17941   0.26240   0.82528   0.00000  Uiso   1.00
H313   H     0.88050   0.36264   0.61177   0.00000  Uiso   1.00
O314   O     0.93914   0.35422   0.33197   0.00000  Uiso   1.00
O315   O     0.38940   0.25598   0.82795   0.00000  Uiso   1.00
O316   O     0.99723   0.38748   0.54783   0.00000  Uiso   1.00
N317   N     0.06487   0.35435   0.21955   0.00000  Uiso   1.00
N318   N     0.38574   0.28433   0.86039   0.00000  Uiso   1.00
N319   N     0.10629   0.37804   0.66076   0.00000  Uiso   1.00
N320   N     0.91076   0.34166   0.19757   0.00000  Uiso   1.00
N321   N     0.23162   0.27165   0.83842   0.00000  Uiso   1.00
N322   N     0.95218   0.36536   0.63879   0.00000  Uiso   1.00
C323   C     0.19917   0.84003   0.41552   0.00000  Uiso   1.00
C324   C     0.12449   0.84088   0.49393   0.00000  Uiso   1.00
C325   C     0.14755   0.84866   0.57211   0.00000  Uiso   1.00
C326   C     0.06859   0.84804   0.63583   0.00000  Uiso   1.00
C327   C     0.96763   0.85058   0.75974   0.00000  Uiso   1.00
C328   C     0.21292   0.82158   0.39496   0.00000  Uiso   1.00
C329   C     0.31034   0.81313   0.38991   0.00000  Uiso   1.00
C330   C     0.30582   0.79628   0.37031   0.00000  Uiso   1.00
C331   C     0.34216   0.76886   0.34050   0.00000  Uiso   1.00
C332   C     0.13590   0.84741   0.33996   0.00000  Uiso   1.00
C333   C     0.16857   0.86068   0.28864   0.00000  Uiso   1.00
C334   C     0.09921   0.86556   0.22271   0.00000  Uiso   1.00
C335   C     0.01597   0.87825   0.10750   0.00000  Uiso   1.00
C336   C     0.01793   0.82511   0.38968   0.00000  Uiso   1.00
C337   C     0.02605   0.83277   0.47989   0.00000  Uiso   1.00
C338   C     0.94704   0.83215   0.54352   0.00000  Uiso   1.00
C339   C     0.96998   0.83992   0.62177   0.00000  Uiso   1.00
C340   C     0.11449   0.81348   0.38093   0.00000  Uiso   1.00
C341   C     0.10982   0.79663   0.36132   0.00000  Uiso   1.00
C342   C     0.20721   0.78816   0.35625   0.00000  Uiso   1.00
C343   C     0.03746   0.83931   0.32592   0.00000  Uiso   1.00
C344   C     0.96805   0.84417   0.26005   0.00000  Uiso   1.00
C345   C     0.00060   0.85744   0.20865   0.00000  Uiso   1.00
H346   H     0.27581   0.84634   0.42645   0.00000  Uiso   1.00
H347   H     0.22374   0.85493   0.58295   0.00000  Uiso   1.00
H348   H     0.38650   0.81941   0.40077   0.00000  Uiso   1.00
H349   H     0.24475   0.86694   0.29952   0.00000  Uiso   1.00
H350   H     0.12262   0.86086   0.75028   0.00000  Uiso   1.00
H351   H     0.46581   0.78598   0.36612   0.00000  Uiso   1.00
H352   H     0.16690   0.88621   0.15261   0.00000  Uiso   1.00
H353   H     0.94129   0.81880   0.37875   0.00000  Uiso   1.00
H354   H     0.87087   0.82588   0.53264   0.00000  Uiso   1.00
H355   H     0.03363   0.79036   0.35046   0.00000  Uiso   1.00
H356   H     0.89188   0.83789   0.24921   0.00000  Uiso   1.00
H357   H     0.83622   0.83729   0.70945   0.00000  Uiso   1.00
H358   H     0.17941   0.76240   0.32528   0.00000  Uiso   1.00
H359   H     0.88050   0.86264   0.11177   0.00000  Uiso   1.00
O360   O     0.93914   0.85422   0.83197   0.00000  Uiso   1.00
O361   O     0.38940   0.75598   0.32795   0.00000  Uiso   1.00
O362   O     0.99723   0.88748   0.04783   0.00000  Uiso   1.00
N363   N     0.06487   0.85435   0.71955   0.00000  Uiso   1.00
N364   N     0.38574   0.78433   0.36039   0.00000  Uiso   1.00
N365   N     0.10629   0.87804   0.16076   0.00000  Uiso   1.00
N366   N     0.91076   0.84166   0.69757   0.00000  Uiso   1.00
N367   N     0.23162   0.77165   0.33842   0.00000  Uiso   1.00
N368   N     0.95218   0.86536   0.13879   0.00000  Uiso   1.00
C369   C     0.55083   0.59003   0.66552   0.00000  Uiso   1.00
C370   C     0.62551   0.59088   0.74393   0.00000  Uiso   1.00
C371   C     0.60245   0.59866   0.82211   0.00000  Uiso   1.00
C372   C     0.68141   0.59804   0.88583   0.00000  Uiso   1.00
C373   C     0.78237   0.60058   0.00974   0.00000  Uiso   1.00
C374   C     0.53708   0.57158   0.64496   0.00000  Uiso   1.00
C375   C     0.43966   0.56313   0.63991   0.00000  Uiso   1.00
C376   C     0.44418   0.54628   0.62031   0.00000  Uiso   1.00
C377   C     0.40784   0.51886   0.59050   0.00000  Uiso   1.00
C378   C     0.61410   0.59741   0.58996   0.00000  Uiso   1.00
C379   C     0.58143   0.61068   0.53864   0.00000  Uiso   1.00
C380   C     0.65079   0.61556   0.47271   0.00000  Uiso   1.00
C381   C     0.73403   0.62825   0.35750   0.00000  Uiso   1.00
C382   C     0.73207   0.57511   0.63968   0.00000  Uiso   1.00
C383   C     0.72395   0.58277   0.72989   0.00000  Uiso   1.00
C384   C     0.80296   0.58215   0.79352   0.00000  Uiso   1.00
C385   C     0.78002   0.58992   0.87177   0.00000  Uiso   1.00
C386   C     0.63551   0.56348   0.63093   0.00000  Uiso   1.00
C387   C     0.64018   0.54663   0.61132   0.00000  Uiso   1.00
C388   C     0.54279   0.53816   0.60625   0.00000  Uiso   1.00
C389   C     0.71254   0.58931   0.57592   0.00000  Uiso   1.00
C390   C     0.78195   0.59417   0.51005   0.00000  Uiso   1.00
C391   C     0.74940   0.60744   0.45865   0.00000  Uiso   1.00
H392   H     0.47419   0.59634   0.67645   0.00000  Uiso   1.00
H393   H     0.52626   0.60493   0.83295   0.00000  Uiso   1.00
H394   H     0.36350   0.56941   0.65077   0.00000  Uiso   1.00
H395   H     0.50525   0.61694   0.54952   0.00000  Uiso   1.00
H396   H     0.62738   0.61086   0.00028   0.00000  Uiso   1.00
H397   H     0.28419   0.53598   0.61612   0.00000  Uiso   1.00
H398   H     0.58310   0.63621   0.40261   0.00000  Uiso   1.00
H399   H     0.80871   0.56880   0.62875   0.00000  Uiso   1.00
H400   H     0.87913   0.57588   0.78264   0.00000  Uiso   1.00
H401   H     0.71637   0.54036   0.60046   0.00000  Uiso   1.00
H402   H     0.85812   0.58789   0.49921   0.00000  Uiso   1.00
H403   H     0.91378   0.58729   0.95945   0.00000  Uiso   1.00
H404   H     0.57059   0.51240   0.57528   0.00000  Uiso   1.00
H405   H     0.86950   0.61264   0.36177   0.00000  Uiso   1.00
O406   O     0.81086   0.60422   0.08197   0.00000  Uiso   1.00
O407   O     0.36060   0.50598   0.57795   0.00000  Uiso   1.00
O408   O     0.75277   0.63748   0.29783   0.00000  Uiso   1.00
N409   N     0.68513   0.60435   0.96955   0.00000  Uiso   1.00
N410   N     0.36426   0.53433   0.61039   0.00000  Uiso   1.00
N411   N     0.64371   0.62804   0.41076   0.00000  Uiso   1.00
N412   N     0.83924   0.59166   0.94757   0.00000  Uiso   1.00
N413   N     0.51838   0.52165   0.58842   0.00000  Uiso   1.00
N414   N     0.79782   0.61536   0.38879   0.00000  Uiso   1.00
C415   C     0.55083   0.09003   0.16552   0.00000  Uiso   1.00
C416   C     0.62551   0.09088   0.24393   0.00000  Uiso   1.00
C417   C     0.60245   0.09866   0.32211   0.00000  Uiso   1.00
C418   C     0.68141   0.09804   0.38583   0.00000  Uiso   1.00
C419   C     0.78237   0.10058   0.50974   0.00000  Uiso   1.00
C420   C     0.53708   0.07158   0.14496   0.00000  Uiso   1.00
C421   C     0.43966   0.06313   0.13991   0.00000  Uiso   1.00
C422   C     0.44418   0.04628   0.12031   0.00000  Uiso   1.00
C423   C     0.40784   0.01886   0.09050   0.00000  Uiso   1.00
C424   C     0.61410   0.09741   0.08996   0.00000  Uiso   1.00
C425   C     0.58143   0.11068   0.03864   0.00000  Uiso   1.00
C426   C     0.65079   0.11556   0.97271   0.00000  Uiso   1.00
C427   C     0.73403   0.12825   0.85750   0.00000  Uiso   1.00
C428   C     0.73207   0.07511   0.13968   0.00000  Uiso   1.00
C429   C     0.72395   0.08277   0.22989   0.00000  Uiso   1.00
C430   C     0.80296   0.08215   0.29352   0.00000  Uiso   1.00
C431   C     0.78002   0.08992   0.37177   0.00000  Uiso   1.00
C432   C     0.63551   0.06348   0.13093   0.00000  Uiso   1.00
C433   C     0.64018   0.04663   0.11132   0.00000  Uiso   1.00
C434   C     0.54279   0.03816   0.10625   0.00000  Uiso   1.00
C435   C     0.71254   0.08931   0.07592   0.00000  Uiso   1.00
C436   C     0.78195   0.09417   0.01005   0.00000  Uiso   1.00
C437   C     0.74940   0.10744   0.95865   0.00000  Uiso   1.00
H438   H     0.47419   0.09634   0.17645   0.00000  Uiso   1.00
H439   H     0.52626   0.10493   0.33295   0.00000  Uiso   1.00
H440   H     0.36350   0.06941   0.15077   0.00000  Uiso   1.00
H441   H     0.50525   0.11694   0.04952   0.00000  Uiso   1.00
H442   H     0.62738   0.11086   0.50028   0.00000  Uiso   1.00
H443   H     0.28419   0.03598   0.11612   0.00000  Uiso   1.00
H444   H     0.58310   0.13621   0.90261   0.00000  Uiso   1.00
H445   H     0.80871   0.06880   0.12875   0.00000  Uiso   1.00
H446   H     0.87913   0.07588   0.28264   0.00000  Uiso   1.00
H447   H     0.71637   0.04036   0.10046   0.00000  Uiso   1.00
H448   H     0.85812   0.08789   0.99921   0.00000  Uiso   1.00
H449   H     0.91378   0.08729   0.45945   0.00000  Uiso   1.00
H450   H     0.57059   0.01240   0.07528   0.00000  Uiso   1.00
H451   H     0.86950   0.11264   0.86177   0.00000  Uiso   1.00
O452   O     0.81086   0.10422   0.58197   0.00000  Uiso   1.00
O453   O     0.36060   0.00598   0.07795   0.00000  Uiso   1.00
O454   O     0.75277   0.13748   0.79783   0.00000  Uiso   1.00
N455   N     0.68513   0.10435   0.46955   0.00000  Uiso   1.00
N456   N     0.36426   0.03433   0.11039   0.00000  Uiso   1.00
N457   N     0.64371   0.12804   0.91076   0.00000  Uiso   1.00
N458   N     0.83924   0.09166   0.44757   0.00000  Uiso   1.00
N459   N     0.51838   0.02165   0.08842   0.00000  Uiso   1.00
N460   N     0.79782   0.11536   0.88879   0.00000  Uiso   1.00
C461   C     0.05083   0.59003   0.16552   0.00000  Uiso   1.00
C462   C     0.12551   0.59088   0.24393   0.00000  Uiso   1.00
C463   C     0.10245   0.59866   0.32211   0.00000  Uiso   1.00
C464   C     0.18141   0.59804   0.38583   0.00000  Uiso   1.00
C465   C     0.28237   0.60058   0.50974   0.00000  Uiso   1.00
C466   C     0.03708   0.57158   0.14496   0.00000  Uiso   1.00
C467   C     0.93966   0.56313   0.13991   0.00000  Uiso   1.00
C468   C     0.94418   0.54628   0.12031   0.00000  Uiso   1.00
C469   C     0.90784   0.51886   0.09050   0.00000  Uiso   1.00
C470   C     0.11410   0.59741   0.08996   0.00000  Uiso   1.00
C471   C     0.08143   0.61068   0.03864   0.00000  Uiso   1.00
C472   C     0.15079   0.61556   0.97271   0.00000  Uiso   1.00
C473   C     0.23403   0.62825   0.85750   0.00000  Uiso   1.00
C474   C     0.23207   0.57511   0.13968   0.00000  Uiso   1.00
C475   C     0.22395   0.58277   0.22989   0.00000  Uiso   1.00
C476   C     0.30296   0.58215   0.29352   0.00000  Uiso   1.00
C477   C     0.28002   0.58992   0.37177   0.00000  Uiso   1.00
C478   C     0.13551   0.56348   0.13093   0.00000  Uiso   1.00
C479   C     0.14018   0.54663   0.11132   0.00000  Uiso   1.00
C480   C     0.04279   0.53816   0.10625   0.00000  Uiso   1.00
C481   C     0.21254   0.58931   0.07592   0.00000  Uiso   1.00
C482   C     0.28195   0.59417   0.01005   0.00000  Uiso   1.00
C483   C     0.24940   0.60744   0.95865   0.00000  Uiso   1.00
H484   H     0.97419   0.59634   0.17645   0.00000  Uiso   1.00
H485   H     0.02626   0.60493   0.33295   0.00000  Uiso   1.00
H486   H     0.86350   0.56941   0.15077   0.00000  Uiso   1.00
H487   H     0.00525   0.61694   0.04952   0.00000  Uiso   1.00
H488   H     0.12738   0.61086   0.50028   0.00000  Uiso   1.00
H489   H     0.78419   0.53598   0.11612   0.00000  Uiso   1.00
H490   H     0.08310   0.63621   0.90261   0.00000  Uiso   1.00
H491   H     0.30871   0.56880   0.12875   0.00000  Uiso   1.00
H492   H     0.37913   0.57588   0.28264   0.00000  Uiso   1.00
H493   H     0.21637   0.54036   0.10046   0.00000  Uiso   1.00
H494   H     0.35812   0.58789   0.99921   0.00000  Uiso   1.00
H495   H     0.41378   0.58729   0.45945   0.00000  Uiso   1.00
H496   H     0.07059   0.51240   0.07528   0.00000  Uiso   1.00
H497   H     0.36950   0.61264   0.86177   0.00000  Uiso   1.00
O498   O     0.31086   0.60422   0.58197   0.00000  Uiso   1.00
O499   O     0.86060   0.50598   0.07795   0.00000  Uiso   1.00
O500   O     0.25277   0.63748   0.79783   0.00000  Uiso   1.00
N501   N     0.18513   0.60435   0.46955   0.00000  Uiso   1.00
N502   N     0.86426   0.53433   0.11039   0.00000  Uiso   1.00
N503   N     0.14371   0.62804   0.91076   0.00000  Uiso   1.00
N504   N     0.33924   0.59166   0.44757   0.00000  Uiso   1.00
N505   N     0.01838   0.52165   0.08842   0.00000  Uiso   1.00
N506   N     0.29782   0.61536   0.88879   0.00000  Uiso   1.00
C507   C     0.05083   0.09003   0.66552   0.00000  Uiso   1.00
C508   C     0.12551   0.09088   0.74393   0.00000  Uiso   1.00
C509   C     0.10245   0.09866   0.82211   0.00000  Uiso   1.00
C510   C     0.18141   0.09804   0.88583   0.00000  Uiso   1.00
C511   C     0.28237   0.10058   0.00974   0.00000  Uiso   1.00
C512   C     0.03708   0.07158   0.64496   0.00000  Uiso   1.00
C513   C     0.93966   0.06313   0.63991   0.00000  Uiso   1.00
C514   C     0.94418   0.04628   0.62031   0.00000  Uiso   1.00
C515   C     0.90784   0.01886   0.59050   0.00000  Uiso   1.00
C516   C     0.11410   0.09741   0.58996   0.00000  Uiso   1.00
C517   C     0.08143   0.11068   0.53864   0.00000  Uiso   1.00
C518   C     0.15079   0.11556   0.47271   0.00000  Uiso   1.00
C519   C     0.23403   0.12825   0.35750   0.00000  Uiso   1.00
C520   C     0.23207   0.07511   0.63968   0.00000  Uiso   1.00
C521   C     0.22395   0.08277   0.72989   0.00000  Uiso   1.00
C522   C     0.30296   0.08215   0.79352   0.00000  Uiso   1.00
C523   C     0.28002   0.08992   0.87177   0.00000  Uiso   1.00
C524   C     0.13551   0.06348   0.63093   0.00000  Uiso   1.00
C525   C     0.14018   0.04663   0.61132   0.00000  Uiso   1.00
C526   C     0.04279   0.03816   0.60625   0.00000  Uiso   1.00
C527   C     0.21254   0.08931   0.57592   0.00000  Uiso   1.00
C528   C     0.28195   0.09417   0.51005   0.00000  Uiso   1.00
C529   C     0.24940   0.10744   0.45865   0.00000  Uiso   1.00
H530   H     0.97419   0.09634   0.67645   0.00000  Uiso   1.00
H531   H     0.02626   0.10493   0.83295   0.00000  Uiso   1.00
H532   H     0.86350   0.06941   0.65077   0.00000  Uiso   1.00
H533   H     0.00525   0.11694   0.54952   0.00000  Uiso   1.00
H534   H     0.12738   0.11086   0.00028   0.00000  Uiso   1.00
H535   H     0.78419   0.03598   0.61612   0.00000  Uiso   1.00
H536   H     0.08310   0.13621   0.40261   0.00000  Uiso   1.00
H537   H     0.30871   0.06880   0.62875   0.00000  Uiso   1.00
H538   H     0.37913   0.07588   0.78264   0.00000  Uiso   1.00
H539   H     0.21637   0.04036   0.60046   0.00000  Uiso   1.00
H540   H     0.35812   0.08789   0.49921   0.00000  Uiso   1.00
H541   H     0.41378   0.08729   0.95945   0.00000  Uiso   1.00
H542   H     0.07059   0.01240   0.57528   0.00000  Uiso   1.00
H543   H     0.36950   0.11264   0.36177   0.00000  Uiso   1.00
O544   O     0.31086   0.10422   0.08197   0.00000  Uiso   1.00
O545   O     0.86060   0.00598   0.57795   0.00000  Uiso   1.00
O546   O     0.25277   0.13748   0.29783   0.00000  Uiso   1.00
N547   N     0.18513   0.10435   0.96955   0.00000  Uiso   1.00
N548   N     0.86426   0.03433   0.61039   0.00000  Uiso   1.00
N549   N     0.14371   0.12804   0.41076   0.00000  Uiso   1.00
N550   N     0.33924   0.09166   0.94757   0.00000  Uiso   1.00
N551   N     0.01838   0.02165   0.58842   0.00000  Uiso   1.00
N552   N     0.29782   0.11536   0.38879   0.00000  Uiso   1.00
C553   C     0.94917   0.90997   0.66552   0.00000  Uiso   1.00
C554   C     0.87449   0.90912   0.74393   0.00000  Uiso   1.00
C555   C     0.89755   0.90134   0.82211   0.00000  Uiso   1.00
C556   C     0.81859   0.90196   0.88583   0.00000  Uiso   1.00
C557   C     0.71763   0.89942   0.00974   0.00000  Uiso   1.00
C558   C     0.96292   0.92842   0.64496   0.00000  Uiso   1.00
C559   C     0.06034   0.93687   0.63991   0.00000  Uiso   1.00
C560   C     0.05582   0.95372   0.62031   0.00000  Uiso   1.00
C561   C     0.09216   0.98114   0.59050   0.00000  Uiso   1.00
C562   C     0.88590   0.90259   0.58996   0.00000  Uiso   1.00
C563   C     0.91857   0.88932   0.53864   0.00000  Uiso   1.00
C564   C     0.84921   0.88444   0.47271   0.00000  Uiso   1.00
C565   C     0.76597   0.87175   0.35750   0.00000  Uiso   1.00
C566   C     0.76793   0.92489   0.63968   0.00000  Uiso   1.00
C567   C     0.77605   0.91723   0.72989   0.00000  Uiso   1.00
C568   C     0.69704   0.91785   0.79352   0.00000  Uiso   1.00
C569   C     0.71998   0.91008   0.87177   0.00000  Uiso   1.00
C570   C     0.86449   0.93652   0.63093   0.00000  Uiso   1.00
C571   C     0.85982   0.95337   0.61132   0.00000  Uiso   1.00
C572   C     0.95721   0.96184   0.60625   0.00000  Uiso   1.00
C573   C     0.78746   0.91069   0.57592   0.00000  Uiso   1.00
C574   C     0.71805   0.90583   0.51005   0.00000  Uiso   1.00
C575   C     0.75060   0.89256   0.45865   0.00000  Uiso   1.00
H576   H     0.02581   0.90366   0.67645   0.00000  Uiso   1.00
H577   H     0.97374   0.89507   0.83295   0.00000  Uiso   1.00
H578   H     0.13650   0.93059   0.65077   0.00000  Uiso   1.00
H579   H     0.99475   0.88306   0.54952   0.00000  Uiso   1.00
H580   H     0.87262   0.88914   0.00028   0.00000  Uiso   1.00
H581   H     0.21581   0.96402   0.61612   0.00000  Uiso   1.00
H582   H     0.91690   0.86379   0.40261   0.00000  Uiso   1.00
H583   H     0.69129   0.93120   0.62875   0.00000  Uiso   1.00
H584   H     0.62087   0.92412   0.78264   0.00000  Uiso   1.00
H585   H     0.78363   0.95964   0.60046   0.00000  Uiso   1.00
H586   H     0.64188   0.91211   0.49921   0.00000  Uiso   1.00
H587   H     0.58622   0.91271   0.95945   0.00000  Uiso   1.00
H588   H     0.92941   0.98760   0.57528   0.00000  Uiso   1.00
H589   H     0.63050   0.88736   0.36177   0.00000  Uiso   1.00
O590   O     0.68914   0.89578   0.08197   0.00000  Uiso   1.00
O591   O     0.13940   0.99402   0.57795   0.00000  Uiso   1.00
O592   O     0.74723   0.86252   0.29783   0.00000  Uiso   1.00
N593   N     0.81487   0.89565   0.96955   0.00000  Uiso   1.00
N594   N     0.13574   0.96567   0.61039   0.00000  Uiso   1.00
N595   N     0.85629   0.87196   0.41076   0.00000  Uiso   1.00
N596   N     0.66076   0.90834   0.94757   0.00000  Uiso   1.00
N597   N     0.98162   0.97835   0.58842   0.00000  Uiso   1.00
N598   N     0.70218   0.88464   0.38879   0.00000  Uiso   1.00
C599   C     0.94917   0.40997   0.16552   0.00000  Uiso   1.00
C600   C     0.87449   0.40912   0.24393   0.00000  Uiso   1.00
C601   C     0.89755   0.40134   0.32211   0.00000  Uiso   1.00
C602   C     0.81859   0.40196   0.38583   0.00000  Uiso   1.00
C603   C     0.71763   0.39942   0.50974   0.00000  Uiso   1.00
C604   C     0.96292   0.42842   0.14496   0.00000  Uiso   1.00
C605   C     0.06034   0.43687   0.13991   0.00000  Uiso   1.00
C606   C     0.05582   0.45372   0.12031   0.00000  Uiso   1.00
C607   C     0.09216   0.48114   0.09050   0.00000  Uiso   1.00
C608   C     0.88590   0.40259   0.08996   0.00000  Uiso   1.00
C609   C     0.91857   0.38932   0.03864   0.00000  Uiso   1.00
C610   C     0.84921   0.38444   0.97271   0.00000  Uiso   1.00
C611   C     0.76597   0.37175   0.85750   0.00000  Uiso   1.00
C612   C     0.76793   0.42489   0.13968   0.00000  Uiso   1.00
C613   C     0.77605   0.41723   0.22989   0.00000  Uiso   1.00
C614   C     0.69704   0.41785   0.29352   0.00000  Uiso   1.00
C615   C     0.71998   0.41008   0.37177   0.00000  Uiso   1.00
C616   C     0.86449   0.43652   0.13093   0.00000  Uiso   1.00
C617   C     0.85982   0.45337   0.11132   0.00000  Uiso   1.00
C618   C     0.95721   0.46184   0.10625   0.00000  Uiso   1.00
C619   C     0.78746   0.41069   0.07592   0.00000  Uiso   1.00
C620   C     0.71805   0.40583   0.01005   0.00000  Uiso   1.00
C621   C     0.75060   0.39256   0.95865   0.00000  Uiso   1.00
H622   H     0.02581   0.40366   0.17645   0.00000  Uiso   1.00
H623   H     0.97374   0.39507   0.33295   0.00000  Uiso   1.00
H624   H     0.13650   0.43059   0.15077   0.00000  Uiso   1.00
H625   H     0.99475   0.38306   0.04952   0.00000  Uiso   1.00
H626   H     0.87262   0.38914   0.50028   0.00000  Uiso   1.00
H627   H     0.21581   0.46402   0.11612   0.00000  Uiso   1.00
H628   H     0.91690   0.36379   0.90261   0.00000  Uiso   1.00
H629   H     0.69129   0.43120   0.12875   0.00000  Uiso   1.00
H630   H     0.62087   0.42412   0.28264   0.00000  Uiso   1.00
H631   H     0.78363   0.45964   0.10046   0.00000  Uiso   1.00
H632   H     0.64188   0.41211   0.99921   0.00000  Uiso   1.00
H633   H     0.58622   0.41271   0.45945   0.00000  Uiso   1.00
H634   H     0.92941   0.48760   0.07528   0.00000  Uiso   1.00
H635   H     0.63050   0.38736   0.86177   0.00000  Uiso   1.00
O636   O     0.68914   0.39578   0.58197   0.00000  Uiso   1.00
O637   O     0.13940   0.49402   0.07795   0.00000  Uiso   1.00
O638   O     0.74723   0.36252   0.79783   0.00000  Uiso   1.00
N639   N     0.81487   0.39565   0.46955   0.00000  Uiso   1.00
N640   N     0.13574   0.46567   0.11039   0.00000  Uiso   1.00
N641   N     0.85629   0.37196   0.91076   0.00000  Uiso   1.00
N642   N     0.66076   0.40834   0.44757   0.00000  Uiso   1.00
N643   N     0.98162   0.47835   0.08842   0.00000  Uiso   1.00
N644   N     0.70218   0.38464   0.88879   0.00000  Uiso   1.00
C645   C     0.44917   0.90997   0.16552   0.00000  Uiso   1.00
C646   C     0.37449   0.90912   0.24393   0.00000  Uiso   1.00
C647   C     0.39755   0.90134   0.32211   0.00000  Uiso   1.00
C648   C     0.31859   0.90196   0.38583   0.00000  Uiso   1.00
C649   C     0.21763   0.89942   0.50974   0.00000  Uiso   1.00
C650   C     0.46292   0.92842   0.14496   0.00000  Uiso   1.00
C651   C     0.56034   0.93687   0.13991   0.00000  Uiso   1.00
C652   C     0.55582   0.95372   0.12031   0.00000  Uiso   1.00
C653   C     0.59216   0.98114   0.09050   0.00000  Uiso   1.00
C654   C     0.38590   0.90259   0.08996   0.00000  Uiso   1.00
C655   C     0.41857   0.88932   0.03864   0.00000  Uiso   1.00
C656   C     0.34921   0.88444   0.97271   0.00000  Uiso   1.00
C657   C     0.26597   0.87175   0.85750   0.00000  Uiso   1.00
C658   C     0.26793   0.92489   0.13968   0.00000  Uiso   1.00
C659   C     0.27605   0.91723   0.22989   0.00000  Uiso   1.00
C660   C     0.19704   0.91785   0.29352   0.00000  Uiso   1.00
C661   C     0.21998   0.91008   0.37177   0.00000  Uiso   1.00
C662   C     0.36449   0.93652   0.13093   0.00000  Uiso   1.00
C663   C     0.35982   0.95337   0.11132   0.00000  Uiso   1.00
C664   C     0.45721   0.96184   0.10625   0.00000  Uiso   1.00
C665   C     0.28746   0.91069   0.07592   0.00000  Uiso   1.00
C666   C     0.21805   0.90583   0.01005   0.00000  Uiso   1.00
C667   C     0.25060   0.89256   0.95865   0.00000  Uiso   1.00
H668   H     0.52581   0.90366   0.17645   0.00000  Uiso   1.00
H669   H     0.47374   0.89507   0.33295   0.00000  Uiso   1.00
H670   H     0.63650   0.93059   0.15077   0.00000  Uiso   1.00
H671   H     0.49475   0.88306   0.04952   0.00000  Uiso   1.00
H672   H     0.37262   0.88914   0.50028   0.00000  Uiso   1.00
H673   H     0.71581   0.96402   0.11612   0.00000  Uiso   1.00
H674   H     0.41690   0.86379   0.90261   0.00000  Uiso   1.00
H675   H     0.19129   0.93120   0.12875   0.00000  Uiso   1.00
H676   H     0.12087   0.92412   0.28264   0.00000  Uiso   1.00
H677   H     0.28363   0.95964   0.10046   0.00000  Uiso   1.00
H678   H     0.14188   0.91211   0.99921   0.00000  Uiso   1.00
H679   H     0.08622   0.91271   0.45945   0.00000  Uiso   1.00
H680   H     0.42941   0.98760   0.07528   0.00000  Uiso   1.00
H681   H     0.13050   0.88736   0.86177   0.00000  Uiso   1.00
O682   O     0.18914   0.89578   0.58197   0.00000  Uiso   1.00
O683   O     0.63940   0.99402   0.07795   0.00000  Uiso   1.00
O684   O     0.24723   0.86252   0.79783   0.00000  Uiso   1.00
N685   N     0.31487   0.89565   0.46955   0.00000  Uiso   1.00
N686   N     0.63574   0.96567   0.11039   0.00000  Uiso   1.00
N687   N     0.35629   0.87196   0.91076   0.00000  Uiso   1.00
N688   N     0.16076   0.90834   0.44757   0.00000  Uiso   1.00
N689   N     0.48162   0.97835   0.08842   0.00000  Uiso   1.00
N690   N     0.20218   0.88464   0.88879   0.00000  Uiso   1.00
C691   C     0.44917   0.40997   0.66552   0.00000  Uiso   1.00
C692   C     0.37449   0.40912   0.74393   0.00000  Uiso   1.00
C693   C     0.39755   0.40134   0.82211   0.00000  Uiso   1.00
C694   C     0.31859   0.40196   0.88583   0.00000  Uiso   1.00
C695   C     0.21763   0.39942   0.00974   0.00000  Uiso   1.00
C696   C     0.46292   0.42842   0.64496   0.00000  Uiso   1.00
C697   C     0.56034   0.43687   0.63991   0.00000  Uiso   1.00
C698   C     0.55582   0.45372   0.62031   0.00000  Uiso   1.00
C699   C     0.59216   0.48114   0.59050   0.00000  Uiso   1.00
C700   C     0.38590   0.40259   0.58996   0.00000  Uiso   1.00
C701   C     0.41857   0.38932   0.53864   0.00000  Uiso   1.00
C702   C     0.34921   0.38444   0.47271   0.00000  Uiso   1.00
C703   C     0.26597   0.37175   0.35750   0.00000  Uiso   1.00
C704   C     0.26793   0.42489   0.63968   0.00000  Uiso   1.00
C705   C     0.27605   0.41723   0.72989   0.00000  Uiso   1.00
C706   C     0.19704   0.41785   0.79352   0.00000  Uiso   1.00
C707   C     0.21998   0.41008   0.87177   0.00000  Uiso   1.00
C708   C     0.36449   0.43652   0.63093   0.00000  Uiso   1.00
C709   C     0.35982   0.45337   0.61132   0.00000  Uiso   1.00
C710   C     0.45721   0.46184   0.60625   0.00000  Uiso   1.00
C711   C     0.28746   0.41069   0.57592   0.00000  Uiso   1.00
C712   C     0.21805   0.40583   0.51005   0.00000  Uiso   1.00
C713   C     0.25060   0.39256   0.45865   0.00000  Uiso   1.00
H714   H     0.52581   0.40366   0.67645   0.00000  Uiso   1.00
H715   H     0.47374   0.39507   0.83295   0.00000  Uiso   1.00
H716   H     0.63650   0.43059   0.65077   0.00000  Uiso   1.00
H717   H     0.49475   0.38306   0.54952   0.00000  Uiso   1.00
H718   H     0.37262   0.38914   0.00028   0.00000  Uiso   1.00
H719   H     0.71581   0.46402   0.61612   0.00000  Uiso   1.00
H720   H     0.41690   0.36379   0.40261   0.00000  Uiso   1.00
H721   H     0.19129   0.43120   0.62875   0.00000  Uiso   1.00
H722   H     0.12087   0.42412   0.78264   0.00000  Uiso   1.00
H723   H     0.28363   0.45964   0.60046   0.00000  Uiso   1.00
H724   H     0.14188   0.41211   0.49921   0.00000  Uiso   1.00
H725   H     0.08622   0.41271   0.95945   0.00000  Uiso   1.00
H726   H     0.42941   0.48760   0.57528   0.00000  Uiso   1.00
H727   H     0.13050   0.38736   0.36177   0.00000  Uiso   1.00
O728   O     0.18914   0.39578   0.08197   0.00000  Uiso   1.00
O729   O     0.63940   0.49402   0.57795   0.00000  Uiso   1.00
O730   O     0.24723   0.36252   0.29783   0.00000  Uiso   1.00
N731   N     0.31487   0.39565   0.96955   0.00000  Uiso   1.00
N732   N     0.63574   0.46567   0.61039   0.00000  Uiso   1.00
N733   N     0.35629   0.37196   0.41076   0.00000  Uiso   1.00
N734   N     0.16076   0.40834   0.94757   0.00000  Uiso   1.00
N735   N     0.48162   0.47835   0.58842   0.00000  Uiso   1.00
N736   N     0.20218   0.38464   0.38879   0.00000  Uiso   1.00
