data_job_06757
_audit_creation_date              2018-12-19
_audit_creation_method            'Materials Studio'
_symmetry_space_group_name_H-M    'P1'
_symmetry_Int_Tables_number       1
_symmetry_cell_setting            triclinic
loop_
_symmetry_equiv_pos_as_xyz
  x,y,z
_cell_length_a                    30.2066
_cell_length_b                    14.4519
_cell_length_c                    54.1997
_cell_angle_alpha                 90.0000
_cell_angle_beta                  143.0519
_cell_angle_gamma                 90.0000
loop_
_atom_site_label
_atom_site_type_symbol
_atom_site_fract_x
_atom_site_fract_y
_atom_site_fract_z
_atom_site_U_iso_or_equiv
_atom_site_adp_type
_atom_site_occupancy
C1     C     0.06041   0.29527   0.59865   0.00000  Uiso   1.00
C2     C     0.08636   0.23350   0.63130   0.00000  Uiso   1.00
C3     C     0.04282   0.20081   0.63106   0.00000  Uiso   1.00
C4     C     0.07692   0.14521   0.66374   0.00000  Uiso   1.00
C5     C     0.10582   0.05268   0.70961   0.00000  Uiso   1.00
C6     C     0.10982   0.38057   0.62123   0.00000  Uiso   1.00
C7     C     0.08600   0.47155   0.61253   0.00000  Uiso   1.00
C8     C     0.13985   0.53975   0.63673   0.00000  Uiso   1.00
C9     C     0.20517   0.67557   0.66696   0.00000  Uiso   1.00
C10    C     0.07961   0.24392   0.58348   0.00000  Uiso   1.00
C11    C     0.03040   0.22001   0.54304   0.00000  Uiso   1.00
C12    C     0.05883   0.17318   0.53546   0.00000  Uiso   1.00
C13    C     0.57724   0.59682   0.50707   0.00000  Uiso   1.00
C14    C     0.19839   0.25465   0.65710   0.00000  Uiso   1.00
C15    C     0.16131   0.21143   0.66305   0.00000  Uiso   1.00
C16    C     0.19548   0.15586   0.69573   0.00000  Uiso   1.00
C17    C     0.15200   0.12310   0.69554   0.00000  Uiso   1.00
C18    C     0.18476   0.35851   0.65298   0.00000  Uiso   1.00
C19    C     0.23866   0.42660   0.67720   0.00000  Uiso   1.00
C20    C     0.21493   0.51765   0.66854   0.00000  Uiso   1.00
C21    C     0.15456   0.22185   0.61523   0.00000  Uiso   1.00
C22    C     0.18306   0.17506   0.60771   0.00000  Uiso   1.00
C23    C     0.13391   0.15108   0.56726   0.00000  Uiso   1.00
H24    H     0.00206   0.31246   0.57393   0.00000  Uiso   1.00
H25    H     0.98483   0.21791   0.60649   0.00000  Uiso   1.00
H26    H     0.02800   0.48860   0.58796   0.00000  Uiso   1.00
H27    H     0.97241   0.23710   0.51848   0.00000  Uiso   1.00
H28    H     0.99877   0.10338   0.65659   0.00000  Uiso   1.00
H29    H     0.08980   0.67415   0.61750   0.00000  Uiso   1.00
H30    H     0.47258   0.64381   0.47099   0.00000  Uiso   1.00
H31    H     0.25674   0.23747   0.68182   0.00000  Uiso   1.00
H32    H     0.25348   0.13880   0.72030   0.00000  Uiso   1.00
H33    H     0.29665   0.40950   0.70176   0.00000  Uiso   1.00
H34    H     0.24106   0.15799   0.63229   0.00000  Uiso   1.00
H35    H     0.21682   0.03917   0.74896   0.00000  Uiso   1.00
H36    H     0.30785   0.60995   0.70988   0.00000  Uiso   1.00
H37    H     0.69063   0.57961   0.56337   0.00000  Uiso   1.00
O38    O     0.10106   0.00775   0.72614   0.00000  Uiso   1.00
O39    O     0.72049   0.25658   0.67486   0.00000  Uiso   1.00
O40    O     0.56670   0.56078   0.48265   0.00000  Uiso   1.00
N41    N     0.05054   0.10179   0.67304   0.00000  Uiso   1.00
N42    N     0.13564   0.63543   0.63651   0.00000  Uiso   1.00
N43    N     0.52606   0.63963   0.49953   0.00000  Uiso   1.00
N44    N     0.16787   0.06724   0.72275   0.00000  Uiso   1.00
N45    N     0.25297   0.60088   0.68621   0.00000  Uiso   1.00
N46    N     0.64339   0.60508   0.54924   0.00000  Uiso   1.00
C47    C     0.80806   0.49455   0.56796   0.00000  Uiso   1.00
C48    C     0.89162   0.50224   0.60716   0.00000  Uiso   1.00
C49    C     0.94205   0.46792   0.61270   0.00000  Uiso   1.00
C50    C     0.01611   0.48201   0.65084   0.00000  Uiso   1.00
C51    C     0.14239   0.48679   0.70692   0.00000  Uiso   1.00
C52    C     0.78252   0.44710   0.58021   0.00000  Uiso   1.00
C53    C     0.74123   0.36643   0.56310   0.00000  Uiso   1.00
C54    C     0.72344   0.33411   0.57856   0.00000  Uiso   1.00
C55    C     0.68031   0.25332   0.59279   0.00000  Uiso   1.00
C56    C     0.77871   0.59330   0.55618   0.00000  Uiso   1.00
C57    C     0.73419   0.63555   0.51885   0.00000  Uiso   1.00
C58    C     0.71318   0.72633   0.51406   0.00000  Uiso   1.00
C59    C     0.16414   0.37253   0.49098   0.00000  Uiso   1.00
C60    C     0.84989   0.58061   0.62584   0.00000  Uiso   1.00
C61    C     0.91433   0.54898   0.63859   0.00000  Uiso   1.00
C62    C     0.98834   0.56313   0.67673   0.00000  Uiso   1.00
C63    C     0.03887   0.52884   0.68233   0.00000  Uiso   1.00
C64    C     0.80524   0.49383   0.61165   0.00000  Uiso   1.00
C65    C     0.78751   0.46164   0.62713   0.00000  Uiso   1.00
C66    C     0.74620   0.38094   0.61005   0.00000  Uiso   1.00
C67    C     0.80143   0.64004   0.58761   0.00000  Uiso   1.00
C68    C     0.78048   0.73076   0.58288   0.00000  Uiso   1.00
C69    C     0.73595   0.77315   0.54555   0.00000  Uiso   1.00
H70    H     0.79037   0.45816   0.54349   0.00000  Uiso   1.00
H71    H     0.92445   0.43174   0.58836   0.00000  Uiso   1.00
H72    H     0.72364   0.33028   0.53877   0.00000  Uiso   1.00
H73    H     0.71662   0.59936   0.49453   0.00000  Uiso   1.00
H74    H     0.08312   0.42304   0.65198   0.00000  Uiso   1.00
H75    H     0.65970   0.20910   0.54741   0.00000  Uiso   1.00
H76    H     0.64488   0.77652   0.45411   0.00000  Uiso   1.00
H77    H     0.86758   0.61700   0.65031   0.00000  Uiso   1.00
H78    H     0.00590   0.59930   0.70105   0.00000  Uiso   1.00
H79    H     0.80510   0.49783   0.65146   0.00000  Uiso   1.00
H80    H     0.29807   0.26692   0.60722   0.00000  Uiso   1.00
H81    H     0.14923   0.55903   0.74345   0.00000  Uiso   1.00
H82    H     0.72580   0.34510   0.63887   0.00000  Uiso   1.00
H83    H     0.21099   0.41251   0.54557   0.00000  Uiso   1.00
O84    O     0.20577   0.47650   0.72917   0.00000  Uiso   1.00
O85    O     0.65025   0.19584   0.59196   0.00000  Uiso   1.00
O86    O     0.63081   0.94027   0.46956   0.00000  Uiso   1.00
N87    N     0.07970   0.45749   0.66654   0.00000  Uiso   1.00
N88    N     0.68383   0.25746   0.56877   0.00000  Uiso   1.00
N89    N     0.66996   0.78794   0.48155   0.00000  Uiso   1.00
N90    N     0.11527   0.53067   0.71576   0.00000  Uiso   1.00
N91    N     0.71941   0.33064   0.61799   0.00000  Uiso   1.00
N92    N     0.20554   0.36112   0.53076   0.00000  Uiso   1.00
C93    C     0.84663   0.09056   0.60035   0.00000  Uiso   1.00
C94    C     0.90354   0.14113   0.64139   0.00000  Uiso   1.00
C95    C     0.92019   0.23470   0.64740   0.00000  Uiso   1.00
C96    C     0.97396   0.26771   0.68730   0.00000  Uiso   1.00
C97    C     0.05691   0.35513   0.74606   0.00000  Uiso   1.00
C98    C     0.88785   0.01188   0.60603   0.00000  Uiso   1.00
C99    C     0.89130   0.99678   0.58230   0.00000  Uiso   1.00
C100   C     0.93185   0.92097   0.59243   0.00000  Uiso   1.00
C101   C     0.49040   0.30769   0.59627   0.00000  Uiso   1.00
C102   C     0.79366   0.04479   0.59486   0.00000  Uiso   1.00
C103   C     0.71790   0.05734   0.56174   0.00000  Uiso   1.00
C104   C     0.17915   0.50922   0.56246   0.00000  Uiso   1.00
C105   C     0.09145   0.44705   0.54896   0.00000  Uiso   1.00
C106   C     0.41252   0.48277   0.66052   0.00000  Uiso   1.00
C107   C     0.93933   0.08258   0.67407   0.00000  Uiso   1.00
C108   C     0.99309   0.11545   0.71397   0.00000  Uiso   1.00
C109   C     0.00981   0.20906   0.72004   0.00000  Uiso   1.00
C110   C     0.92364   0.95333   0.63871   0.00000  Uiso   1.00
C111   C     0.46420   0.37752   0.64887   0.00000  Uiso   1.00
C112   C     0.46771   0.36231   0.62517   0.00000  Uiso   1.00
C113   C     0.32945   0.48625   0.62754   0.00000  Uiso   1.00
C114   C     0.29081   0.43809   0.62831   0.00000  Uiso   1.00
C115   C     0.21501   0.45057   0.59519   0.00000  Uiso   1.00
H116   H     0.81877   0.13613   0.57491   0.00000  Uiso   1.00
H117   H     0.89248   0.27999   0.62211   0.00000  Uiso   1.00
H118   H     0.86359   0.04209   0.55701   0.00000  Uiso   1.00
H119   H     0.69023   0.10265   0.53646   0.00000  Uiso   1.00
H120   H     0.99001   0.41365   0.68885   0.00000  Uiso   1.00
H121   H     0.42907   0.41202   0.55159   0.00000  Uiso   1.00
H122   H     0.56350   0.03972   0.50824   0.00000  Uiso   1.00
H123   H     0.44039   0.43719   0.68596   0.00000  Uiso   1.00
H124   H     0.02077   0.07013   0.73925   0.00000  Uiso   1.00
H125   H     0.49188   0.33223   0.67416   0.00000  Uiso   1.00
H126   H     0.31852   0.39279   0.65360   0.00000  Uiso   1.00
H127   H     0.09414   0.24332   0.78393   0.00000  Uiso   1.00
H128   H     0.03319   0.74168   0.64666   0.00000  Uiso   1.00
H129   H     0.16763   0.36939   0.60332   0.00000  Uiso   1.00
O130   O     0.09278   0.41952   0.76944   0.00000  Uiso   1.00
O131   O     0.51281   0.26139   0.58936   0.00000  Uiso   1.00
O132   O     0.03320   0.42894   0.53248   0.00000  Uiso   1.00
N133   N     0.00347   0.35532   0.70391   0.00000  Uiso   1.00
N134   N     0.44651   0.38633   0.57558   0.00000  Uiso   1.00
N135   N     0.10473   0.50571   0.53505   0.00000  Uiso   1.00
N136   N     0.05950   0.26367   0.75507   0.00000  Uiso   1.00
N137   N     0.00254   0.79468   0.62674   0.00000  Uiso   1.00
N138   N     0.16076   0.41405   0.58621   0.00000  Uiso   1.00
C139   C     0.56041   0.79527   0.59865   0.00000  Uiso   1.00
C140   C     0.58636   0.73350   0.63130   0.00000  Uiso   1.00
C141   C     0.54282   0.70081   0.63106   0.00000  Uiso   1.00
C142   C     0.57692   0.64521   0.66374   0.00000  Uiso   1.00
C143   C     0.60582   0.55268   0.70961   0.00000  Uiso   1.00
C144   C     0.60982   0.88057   0.62123   0.00000  Uiso   1.00
C145   C     0.58600   0.97155   0.61253   0.00000  Uiso   1.00
C146   C     0.63985   0.03975   0.63673   0.00000  Uiso   1.00
C147   C     0.70517   0.17557   0.66696   0.00000  Uiso   1.00
C148   C     0.57961   0.74392   0.58348   0.00000  Uiso   1.00
C149   C     0.53040   0.72001   0.54304   0.00000  Uiso   1.00
C150   C     0.55883   0.67318   0.53546   0.00000  Uiso   1.00
C151   C     0.07724   0.09682   0.50707   0.00000  Uiso   1.00
C152   C     0.69839   0.75465   0.65710   0.00000  Uiso   1.00
C153   C     0.66131   0.71143   0.66305   0.00000  Uiso   1.00
C154   C     0.69548   0.65586   0.69573   0.00000  Uiso   1.00
C155   C     0.65200   0.62310   0.69554   0.00000  Uiso   1.00
C156   C     0.68476   0.85851   0.65298   0.00000  Uiso   1.00
C157   C     0.73866   0.92660   0.67720   0.00000  Uiso   1.00
C158   C     0.71493   0.01765   0.66854   0.00000  Uiso   1.00
C159   C     0.65456   0.72185   0.61523   0.00000  Uiso   1.00
C160   C     0.68306   0.67506   0.60771   0.00000  Uiso   1.00
C161   C     0.63391   0.65108   0.56726   0.00000  Uiso   1.00
H162   H     0.50206   0.81246   0.57393   0.00000  Uiso   1.00
H163   H     0.48483   0.71791   0.60649   0.00000  Uiso   1.00
H164   H     0.52800   0.98860   0.58796   0.00000  Uiso   1.00
H165   H     0.47241   0.73710   0.51848   0.00000  Uiso   1.00
H166   H     0.49877   0.60338   0.65659   0.00000  Uiso   1.00
H167   H     0.58980   0.17415   0.61750   0.00000  Uiso   1.00
H168   H     0.97258   0.14381   0.47099   0.00000  Uiso   1.00
H169   H     0.75674   0.73747   0.68182   0.00000  Uiso   1.00
H170   H     0.75348   0.63880   0.72030   0.00000  Uiso   1.00
H171   H     0.79665   0.90950   0.70176   0.00000  Uiso   1.00
H172   H     0.74106   0.65799   0.63229   0.00000  Uiso   1.00
H173   H     0.71682   0.53917   0.74896   0.00000  Uiso   1.00
H174   H     0.80785   0.10995   0.70988   0.00000  Uiso   1.00
H175   H     0.19063   0.07961   0.56337   0.00000  Uiso   1.00
O176   O     0.60106   0.50775   0.72614   0.00000  Uiso   1.00
O177   O     0.22049   0.75658   0.67486   0.00000  Uiso   1.00
O178   O     0.06670   0.06078   0.48265   0.00000  Uiso   1.00
N179   N     0.55054   0.60179   0.67304   0.00000  Uiso   1.00
N180   N     0.63564   0.13543   0.63651   0.00000  Uiso   1.00
N181   N     0.02606   0.13963   0.49953   0.00000  Uiso   1.00
N182   N     0.66787   0.56724   0.72275   0.00000  Uiso   1.00
N183   N     0.75297   0.10088   0.68621   0.00000  Uiso   1.00
N184   N     0.14339   0.10508   0.54924   0.00000  Uiso   1.00
C185   C     0.30806   0.99455   0.56796   0.00000  Uiso   1.00
C186   C     0.39162   0.00224   0.60716   0.00000  Uiso   1.00
C187   C     0.44205   0.96792   0.61270   0.00000  Uiso   1.00
C188   C     0.51611   0.98201   0.65084   0.00000  Uiso   1.00
C189   C     0.64239   0.98679   0.70692   0.00000  Uiso   1.00
C190   C     0.28252   0.94710   0.58021   0.00000  Uiso   1.00
C191   C     0.24123   0.86643   0.56310   0.00000  Uiso   1.00
C192   C     0.22344   0.83411   0.57856   0.00000  Uiso   1.00
C193   C     0.18031   0.75332   0.59279   0.00000  Uiso   1.00
C194   C     0.27871   0.09330   0.55618   0.00000  Uiso   1.00
C195   C     0.23419   0.13555   0.51885   0.00000  Uiso   1.00
C196   C     0.21318   0.22633   0.51406   0.00000  Uiso   1.00
C197   C     0.66414   0.87253   0.49098   0.00000  Uiso   1.00
C198   C     0.34989   0.08061   0.62584   0.00000  Uiso   1.00
C199   C     0.41433   0.04898   0.63859   0.00000  Uiso   1.00
C200   C     0.48834   0.06313   0.67673   0.00000  Uiso   1.00
C201   C     0.53887   0.02884   0.68233   0.00000  Uiso   1.00
C202   C     0.30524   0.99383   0.61165   0.00000  Uiso   1.00
C203   C     0.28751   0.96164   0.62713   0.00000  Uiso   1.00
C204   C     0.24620   0.88094   0.61005   0.00000  Uiso   1.00
C205   C     0.30143   0.14004   0.58761   0.00000  Uiso   1.00
C206   C     0.28048   0.23076   0.58288   0.00000  Uiso   1.00
C207   C     0.23595   0.27315   0.54555   0.00000  Uiso   1.00
H208   H     0.29037   0.95816   0.54349   0.00000  Uiso   1.00
H209   H     0.42445   0.93174   0.58836   0.00000  Uiso   1.00
H210   H     0.22364   0.83028   0.53877   0.00000  Uiso   1.00
H211   H     0.21662   0.09936   0.49453   0.00000  Uiso   1.00
H212   H     0.58312   0.92304   0.65198   0.00000  Uiso   1.00
H213   H     0.15970   0.70910   0.54741   0.00000  Uiso   1.00
H214   H     0.14488   0.27652   0.45411   0.00000  Uiso   1.00
H215   H     0.36758   0.11700   0.65031   0.00000  Uiso   1.00
H216   H     0.50590   0.09930   0.70105   0.00000  Uiso   1.00
H217   H     0.30510   0.99783   0.65146   0.00000  Uiso   1.00
H218   H     0.79807   0.76692   0.60722   0.00000  Uiso   1.00
H219   H     0.64923   0.05903   0.74345   0.00000  Uiso   1.00
H220   H     0.22580   0.84510   0.63887   0.00000  Uiso   1.00
H221   H     0.71099   0.91251   0.54557   0.00000  Uiso   1.00
O222   O     0.70577   0.97650   0.72917   0.00000  Uiso   1.00
O223   O     0.15025   0.69584   0.59196   0.00000  Uiso   1.00
O224   O     0.13081   0.44027   0.46956   0.00000  Uiso   1.00
N225   N     0.57970   0.95749   0.66654   0.00000  Uiso   1.00
N226   N     0.18383   0.75746   0.56877   0.00000  Uiso   1.00
N227   N     0.16996   0.28794   0.48155   0.00000  Uiso   1.00
N228   N     0.61527   0.03067   0.71576   0.00000  Uiso   1.00
N229   N     0.21941   0.83064   0.61799   0.00000  Uiso   1.00
N230   N     0.70554   0.86112   0.53076   0.00000  Uiso   1.00
C231   C     0.34663   0.59056   0.60035   0.00000  Uiso   1.00
C232   C     0.40354   0.64113   0.64139   0.00000  Uiso   1.00
C233   C     0.42019   0.73470   0.64740   0.00000  Uiso   1.00
C234   C     0.47396   0.76771   0.68730   0.00000  Uiso   1.00
C235   C     0.55691   0.85513   0.74606   0.00000  Uiso   1.00
C236   C     0.38785   0.51188   0.60603   0.00000  Uiso   1.00
C237   C     0.39130   0.49678   0.58230   0.00000  Uiso   1.00
C238   C     0.43185   0.42097   0.59243   0.00000  Uiso   1.00
C239   C     0.99040   0.80769   0.59627   0.00000  Uiso   1.00
C240   C     0.29366   0.54479   0.59486   0.00000  Uiso   1.00
C241   C     0.21790   0.55734   0.56174   0.00000  Uiso   1.00
C242   C     0.67915   0.00922   0.56246   0.00000  Uiso   1.00
C243   C     0.59145   0.94705   0.54896   0.00000  Uiso   1.00
C244   C     0.91252   0.98277   0.66052   0.00000  Uiso   1.00
C245   C     0.43933   0.58258   0.67407   0.00000  Uiso   1.00
C246   C     0.49309   0.61545   0.71397   0.00000  Uiso   1.00
C247   C     0.50981   0.70906   0.72004   0.00000  Uiso   1.00
C248   C     0.42364   0.45333   0.63871   0.00000  Uiso   1.00
C249   C     0.96420   0.87752   0.64887   0.00000  Uiso   1.00
C250   C     0.96771   0.86231   0.62517   0.00000  Uiso   1.00
C251   C     0.82945   0.98625   0.62754   0.00000  Uiso   1.00
C252   C     0.79081   0.93809   0.62831   0.00000  Uiso   1.00
C253   C     0.71501   0.95057   0.59519   0.00000  Uiso   1.00
H254   H     0.31877   0.63613   0.57491   0.00000  Uiso   1.00
H255   H     0.39248   0.77999   0.62211   0.00000  Uiso   1.00
H256   H     0.36359   0.54209   0.55701   0.00000  Uiso   1.00
H257   H     0.19023   0.60265   0.53646   0.00000  Uiso   1.00
H258   H     0.49001   0.91365   0.68885   0.00000  Uiso   1.00
H259   H     0.92907   0.91202   0.55159   0.00000  Uiso   1.00
H260   H     0.06350   0.53972   0.50824   0.00000  Uiso   1.00
H261   H     0.94039   0.93719   0.68596   0.00000  Uiso   1.00
H262   H     0.52077   0.57013   0.73925   0.00000  Uiso   1.00
H263   H     0.99188   0.83223   0.67416   0.00000  Uiso   1.00
H264   H     0.81852   0.89279   0.65360   0.00000  Uiso   1.00
H265   H     0.59414   0.74332   0.78393   0.00000  Uiso   1.00
H266   H     0.53319   0.24168   0.64666   0.00000  Uiso   1.00
H267   H     0.66763   0.86939   0.60332   0.00000  Uiso   1.00
O268   O     0.59278   0.91952   0.76944   0.00000  Uiso   1.00
O269   O     0.01281   0.76139   0.58936   0.00000  Uiso   1.00
O270   O     0.53320   0.92894   0.53248   0.00000  Uiso   1.00
N271   N     0.50347   0.85532   0.70391   0.00000  Uiso   1.00
N272   N     0.94651   0.88633   0.57558   0.00000  Uiso   1.00
N273   N     0.60473   0.00571   0.53505   0.00000  Uiso   1.00
N274   N     0.55950   0.76367   0.75507   0.00000  Uiso   1.00
N275   N     0.50254   0.29468   0.62674   0.00000  Uiso   1.00
N276   N     0.66076   0.91405   0.58621   0.00000  Uiso   1.00
C277   C     0.93959   0.29527   0.90135   0.00000  Uiso   1.00
C278   C     0.91364   0.23350   0.86870   0.00000  Uiso   1.00
C279   C     0.95718   0.20081   0.86894   0.00000  Uiso   1.00
C280   C     0.92308   0.14521   0.83626   0.00000  Uiso   1.00
C281   C     0.89418   0.05268   0.79039   0.00000  Uiso   1.00
C282   C     0.89018   0.38057   0.87877   0.00000  Uiso   1.00
C283   C     0.91400   0.47155   0.88747   0.00000  Uiso   1.00
C284   C     0.86015   0.53975   0.86327   0.00000  Uiso   1.00
C285   C     0.79483   0.67557   0.83304   0.00000  Uiso   1.00
C286   C     0.92039   0.24392   0.91652   0.00000  Uiso   1.00
C287   C     0.96960   0.22001   0.95696   0.00000  Uiso   1.00
C288   C     0.94117   0.17318   0.96454   0.00000  Uiso   1.00
C289   C     0.42276   0.59682   0.99293   0.00000  Uiso   1.00
C290   C     0.80161   0.25465   0.84290   0.00000  Uiso   1.00
C291   C     0.83869   0.21143   0.83695   0.00000  Uiso   1.00
C292   C     0.80452   0.15586   0.80427   0.00000  Uiso   1.00
C293   C     0.84800   0.12310   0.80446   0.00000  Uiso   1.00
C294   C     0.81524   0.35851   0.84702   0.00000  Uiso   1.00
C295   C     0.76134   0.42660   0.82280   0.00000  Uiso   1.00
C296   C     0.78507   0.51765   0.83146   0.00000  Uiso   1.00
C297   C     0.84544   0.22185   0.88477   0.00000  Uiso   1.00
C298   C     0.81694   0.17506   0.89229   0.00000  Uiso   1.00
C299   C     0.86609   0.15108   0.93274   0.00000  Uiso   1.00
H300   H     0.99794   0.31246   0.92607   0.00000  Uiso   1.00
H301   H     0.01517   0.21791   0.89351   0.00000  Uiso   1.00
H302   H     0.97200   0.48860   0.91204   0.00000  Uiso   1.00
H303   H     0.02759   0.23710   0.98152   0.00000  Uiso   1.00
H304   H     0.00123   0.10338   0.84341   0.00000  Uiso   1.00
H305   H     0.91020   0.67415   0.88250   0.00000  Uiso   1.00
H306   H     0.52742   0.64381   0.02901   0.00000  Uiso   1.00
H307   H     0.74326   0.23747   0.81818   0.00000  Uiso   1.00
H308   H     0.74652   0.13880   0.77970   0.00000  Uiso   1.00
H309   H     0.70335   0.40950   0.79824   0.00000  Uiso   1.00
H310   H     0.75894   0.15799   0.86771   0.00000  Uiso   1.00
H311   H     0.78318   0.03917   0.75104   0.00000  Uiso   1.00
H312   H     0.69215   0.60995   0.79012   0.00000  Uiso   1.00
H313   H     0.30937   0.57961   0.93663   0.00000  Uiso   1.00
O314   O     0.89894   0.00775   0.77386   0.00000  Uiso   1.00
O315   O     0.27951   0.25658   0.82514   0.00000  Uiso   1.00
O316   O     0.43330   0.56078   0.01735   0.00000  Uiso   1.00
N317   N     0.94946   0.10179   0.82696   0.00000  Uiso   1.00
N318   N     0.86436   0.63543   0.86349   0.00000  Uiso   1.00
N319   N     0.47394   0.63963   0.00047   0.00000  Uiso   1.00
N320   N     0.83213   0.06724   0.77725   0.00000  Uiso   1.00
N321   N     0.74703   0.60088   0.81379   0.00000  Uiso   1.00
N322   N     0.35661   0.60508   0.95076   0.00000  Uiso   1.00
C323   C     0.19194   0.49455   0.93204   0.00000  Uiso   1.00
C324   C     0.10838   0.50224   0.89284   0.00000  Uiso   1.00
C325   C     0.05795   0.46792   0.88730   0.00000  Uiso   1.00
C326   C     0.98389   0.48201   0.84916   0.00000  Uiso   1.00
C327   C     0.85761   0.48679   0.79308   0.00000  Uiso   1.00
C328   C     0.21748   0.44710   0.91979   0.00000  Uiso   1.00
C329   C     0.25877   0.36643   0.93690   0.00000  Uiso   1.00
C330   C     0.27656   0.33411   0.92144   0.00000  Uiso   1.00
C331   C     0.31969   0.25332   0.90721   0.00000  Uiso   1.00
C332   C     0.22129   0.59330   0.94382   0.00000  Uiso   1.00
C333   C     0.26581   0.63555   0.98115   0.00000  Uiso   1.00
C334   C     0.28682   0.72633   0.98594   0.00000  Uiso   1.00
C335   C     0.83586   0.37253   0.00902   0.00000  Uiso   1.00
C336   C     0.15011   0.58061   0.87416   0.00000  Uiso   1.00
C337   C     0.08567   0.54898   0.86141   0.00000  Uiso   1.00
C338   C     0.01166   0.56313   0.82327   0.00000  Uiso   1.00
C339   C     0.96113   0.52884   0.81767   0.00000  Uiso   1.00
C340   C     0.19476   0.49383   0.88835   0.00000  Uiso   1.00
C341   C     0.21249   0.46164   0.87287   0.00000  Uiso   1.00
C342   C     0.25380   0.38094   0.88995   0.00000  Uiso   1.00
C343   C     0.19857   0.64004   0.91239   0.00000  Uiso   1.00
C344   C     0.21952   0.73076   0.91712   0.00000  Uiso   1.00
C345   C     0.26405   0.77315   0.95445   0.00000  Uiso   1.00
H346   H     0.20963   0.45816   0.95651   0.00000  Uiso   1.00
H347   H     0.07555   0.43174   0.91164   0.00000  Uiso   1.00
H348   H     0.27636   0.33028   0.96123   0.00000  Uiso   1.00
H349   H     0.28338   0.59936   0.00547   0.00000  Uiso   1.00
H350   H     0.91688   0.42304   0.84802   0.00000  Uiso   1.00
H351   H     0.34030   0.20910   0.95259   0.00000  Uiso   1.00
H352   H     0.35512   0.77652   0.04589   0.00000  Uiso   1.00
H353   H     0.13242   0.61700   0.84969   0.00000  Uiso   1.00
H354   H     0.99410   0.59930   0.79895   0.00000  Uiso   1.00
H355   H     0.19490   0.49783   0.84854   0.00000  Uiso   1.00
H356   H     0.70193   0.26692   0.89278   0.00000  Uiso   1.00
H357   H     0.85077   0.55903   0.75655   0.00000  Uiso   1.00
H358   H     0.27420   0.34510   0.86113   0.00000  Uiso   1.00
H359   H     0.78901   0.41251   0.95443   0.00000  Uiso   1.00
O360   O     0.79423   0.47650   0.77083   0.00000  Uiso   1.00
O361   O     0.34975   0.19584   0.90804   0.00000  Uiso   1.00
O362   O     0.36919   0.94027   0.03044   0.00000  Uiso   1.00
N363   N     0.92030   0.45749   0.83346   0.00000  Uiso   1.00
N364   N     0.31617   0.25746   0.93123   0.00000  Uiso   1.00
N365   N     0.33004   0.78794   0.01845   0.00000  Uiso   1.00
N366   N     0.88473   0.53067   0.78424   0.00000  Uiso   1.00
N367   N     0.28059   0.33064   0.88201   0.00000  Uiso   1.00
N368   N     0.79446   0.36112   0.96924   0.00000  Uiso   1.00
C369   C     0.15337   0.09056   0.89965   0.00000  Uiso   1.00
C370   C     0.09646   0.14113   0.85861   0.00000  Uiso   1.00
C371   C     0.07981   0.23470   0.85260   0.00000  Uiso   1.00
C372   C     0.02604   0.26771   0.81270   0.00000  Uiso   1.00
C373   C     0.94309   0.35513   0.75394   0.00000  Uiso   1.00
C374   C     0.11215   0.01188   0.89397   0.00000  Uiso   1.00
C375   C     0.10870   0.99678   0.91770   0.00000  Uiso   1.00
C376   C     0.06815   0.92097   0.90757   0.00000  Uiso   1.00
C377   C     0.50960   0.30769   0.90373   0.00000  Uiso   1.00
C378   C     0.20634   0.04479   0.90514   0.00000  Uiso   1.00
C379   C     0.28210   0.05734   0.93826   0.00000  Uiso   1.00
C380   C     0.82085   0.50922   0.93754   0.00000  Uiso   1.00
C381   C     0.90855   0.44705   0.95104   0.00000  Uiso   1.00
C382   C     0.58748   0.48277   0.83948   0.00000  Uiso   1.00
C383   C     0.06067   0.08258   0.82593   0.00000  Uiso   1.00
C384   C     0.00691   0.11545   0.78603   0.00000  Uiso   1.00
C385   C     0.99019   0.20906   0.77996   0.00000  Uiso   1.00
C386   C     0.07636   0.95333   0.86129   0.00000  Uiso   1.00
C387   C     0.53580   0.37752   0.85113   0.00000  Uiso   1.00
C388   C     0.53229   0.36231   0.87483   0.00000  Uiso   1.00
C389   C     0.67055   0.48625   0.87246   0.00000  Uiso   1.00
C390   C     0.70919   0.43809   0.87169   0.00000  Uiso   1.00
C391   C     0.78499   0.45057   0.90481   0.00000  Uiso   1.00
H392   H     0.18123   0.13613   0.92509   0.00000  Uiso   1.00
H393   H     0.10752   0.27999   0.87789   0.00000  Uiso   1.00
H394   H     0.13641   0.04209   0.94299   0.00000  Uiso   1.00
H395   H     0.30977   0.10265   0.96354   0.00000  Uiso   1.00
H396   H     0.00999   0.41365   0.81115   0.00000  Uiso   1.00
H397   H     0.57093   0.41202   0.94841   0.00000  Uiso   1.00
H398   H     0.43650   0.03972   0.99176   0.00000  Uiso   1.00
H399   H     0.55961   0.43719   0.81404   0.00000  Uiso   1.00
H400   H     0.97923   0.07013   0.76075   0.00000  Uiso   1.00
H401   H     0.50812   0.33223   0.82584   0.00000  Uiso   1.00
H402   H     0.68148   0.39279   0.84640   0.00000  Uiso   1.00
H403   H     0.90586   0.24332   0.71607   0.00000  Uiso   1.00
H404   H     0.96681   0.74168   0.85334   0.00000  Uiso   1.00
H405   H     0.83237   0.36939   0.89668   0.00000  Uiso   1.00
O406   O     0.90722   0.41952   0.73056   0.00000  Uiso   1.00
O407   O     0.48719   0.26139   0.91064   0.00000  Uiso   1.00
O408   O     0.96680   0.42894   0.96752   0.00000  Uiso   1.00
N409   N     0.99653   0.35532   0.79609   0.00000  Uiso   1.00
N410   N     0.55349   0.38633   0.92442   0.00000  Uiso   1.00
N411   N     0.89527   0.50571   0.96495   0.00000  Uiso   1.00
N412   N     0.94050   0.26367   0.74493   0.00000  Uiso   1.00
N413   N     0.99746   0.79468   0.87326   0.00000  Uiso   1.00
N414   N     0.83924   0.41405   0.91379   0.00000  Uiso   1.00
C415   C     0.43959   0.79527   0.90135   0.00000  Uiso   1.00
C416   C     0.41364   0.73350   0.86870   0.00000  Uiso   1.00
C417   C     0.45718   0.70081   0.86894   0.00000  Uiso   1.00
C418   C     0.42308   0.64521   0.83626   0.00000  Uiso   1.00
C419   C     0.39418   0.55268   0.79039   0.00000  Uiso   1.00
C420   C     0.39018   0.88057   0.87877   0.00000  Uiso   1.00
C421   C     0.41400   0.97155   0.88747   0.00000  Uiso   1.00
C422   C     0.36015   0.03975   0.86327   0.00000  Uiso   1.00
C423   C     0.29483   0.17557   0.83304   0.00000  Uiso   1.00
C424   C     0.42039   0.74392   0.91652   0.00000  Uiso   1.00
C425   C     0.46960   0.72001   0.95696   0.00000  Uiso   1.00
C426   C     0.44117   0.67318   0.96454   0.00000  Uiso   1.00
C427   C     0.92276   0.09682   0.99293   0.00000  Uiso   1.00
C428   C     0.30161   0.75465   0.84290   0.00000  Uiso   1.00
C429   C     0.33869   0.71143   0.83695   0.00000  Uiso   1.00
C430   C     0.30452   0.65586   0.80427   0.00000  Uiso   1.00
C431   C     0.34800   0.62310   0.80446   0.00000  Uiso   1.00
C432   C     0.31524   0.85851   0.84702   0.00000  Uiso   1.00
C433   C     0.26134   0.92660   0.82280   0.00000  Uiso   1.00
C434   C     0.28507   0.01765   0.83146   0.00000  Uiso   1.00
C435   C     0.34544   0.72185   0.88477   0.00000  Uiso   1.00
C436   C     0.31694   0.67506   0.89229   0.00000  Uiso   1.00
C437   C     0.36609   0.65108   0.93274   0.00000  Uiso   1.00
H438   H     0.49794   0.81246   0.92607   0.00000  Uiso   1.00
H439   H     0.51517   0.71791   0.89351   0.00000  Uiso   1.00
H440   H     0.47200   0.98860   0.91204   0.00000  Uiso   1.00
H441   H     0.52759   0.73710   0.98152   0.00000  Uiso   1.00
H442   H     0.50123   0.60338   0.84341   0.00000  Uiso   1.00
H443   H     0.41020   0.17415   0.88250   0.00000  Uiso   1.00
H444   H     0.02742   0.14381   0.02901   0.00000  Uiso   1.00
H445   H     0.24326   0.73747   0.81818   0.00000  Uiso   1.00
H446   H     0.24652   0.63880   0.77970   0.00000  Uiso   1.00
H447   H     0.20335   0.90950   0.79824   0.00000  Uiso   1.00
H448   H     0.25894   0.65799   0.86771   0.00000  Uiso   1.00
H449   H     0.28318   0.53917   0.75104   0.00000  Uiso   1.00
H450   H     0.19215   0.10995   0.79012   0.00000  Uiso   1.00
H451   H     0.80937   0.07961   0.93663   0.00000  Uiso   1.00
O452   O     0.39894   0.50775   0.77386   0.00000  Uiso   1.00
O453   O     0.77951   0.75658   0.82514   0.00000  Uiso   1.00
O454   O     0.93330   0.06078   0.01735   0.00000  Uiso   1.00
N455   N     0.44946   0.60179   0.82696   0.00000  Uiso   1.00
N456   N     0.36436   0.13543   0.86349   0.00000  Uiso   1.00
N457   N     0.97394   0.13963   0.00047   0.00000  Uiso   1.00
N458   N     0.33213   0.56724   0.77725   0.00000  Uiso   1.00
N459   N     0.24703   0.10088   0.81379   0.00000  Uiso   1.00
N460   N     0.85661   0.10508   0.95076   0.00000  Uiso   1.00
C461   C     0.69194   0.99455   0.93204   0.00000  Uiso   1.00
C462   C     0.60838   0.00224   0.89284   0.00000  Uiso   1.00
C463   C     0.55795   0.96792   0.88730   0.00000  Uiso   1.00
C464   C     0.48389   0.98201   0.84916   0.00000  Uiso   1.00
C465   C     0.35761   0.98679   0.79308   0.00000  Uiso   1.00
C466   C     0.71748   0.94710   0.91979   0.00000  Uiso   1.00
C467   C     0.75877   0.86643   0.93690   0.00000  Uiso   1.00
C468   C     0.77656   0.83411   0.92144   0.00000  Uiso   1.00
C469   C     0.81969   0.75332   0.90721   0.00000  Uiso   1.00
C470   C     0.72129   0.09330   0.94382   0.00000  Uiso   1.00
C471   C     0.76581   0.13555   0.98115   0.00000  Uiso   1.00
C472   C     0.78682   0.22633   0.98594   0.00000  Uiso   1.00
C473   C     0.33586   0.87253   0.00902   0.00000  Uiso   1.00
C474   C     0.65011   0.08061   0.87416   0.00000  Uiso   1.00
C475   C     0.58567   0.04898   0.86141   0.00000  Uiso   1.00
C476   C     0.51166   0.06313   0.82327   0.00000  Uiso   1.00
C477   C     0.46113   0.02884   0.81767   0.00000  Uiso   1.00
C478   C     0.69476   0.99383   0.88835   0.00000  Uiso   1.00
C479   C     0.71249   0.96164   0.87287   0.00000  Uiso   1.00
C480   C     0.75380   0.88094   0.88995   0.00000  Uiso   1.00
C481   C     0.69857   0.14004   0.91239   0.00000  Uiso   1.00
C482   C     0.71952   0.23076   0.91712   0.00000  Uiso   1.00
C483   C     0.76405   0.27315   0.95445   0.00000  Uiso   1.00
H484   H     0.70963   0.95816   0.95651   0.00000  Uiso   1.00
H485   H     0.57555   0.93174   0.91164   0.00000  Uiso   1.00
H486   H     0.77636   0.83028   0.96123   0.00000  Uiso   1.00
H487   H     0.78338   0.09936   0.00547   0.00000  Uiso   1.00
H488   H     0.41688   0.92304   0.84802   0.00000  Uiso   1.00
H489   H     0.84030   0.70910   0.95259   0.00000  Uiso   1.00
H490   H     0.85512   0.27652   0.04589   0.00000  Uiso   1.00
H491   H     0.63242   0.11700   0.84969   0.00000  Uiso   1.00
H492   H     0.49410   0.09930   0.79895   0.00000  Uiso   1.00
H493   H     0.69490   0.99783   0.84854   0.00000  Uiso   1.00
H494   H     0.20193   0.76692   0.89278   0.00000  Uiso   1.00
H495   H     0.35077   0.05903   0.75655   0.00000  Uiso   1.00
H496   H     0.77420   0.84510   0.86113   0.00000  Uiso   1.00
H497   H     0.28901   0.91251   0.95443   0.00000  Uiso   1.00
O498   O     0.29423   0.97650   0.77083   0.00000  Uiso   1.00
O499   O     0.84975   0.69584   0.90804   0.00000  Uiso   1.00
O500   O     0.86919   0.44027   0.03044   0.00000  Uiso   1.00
N501   N     0.42030   0.95749   0.83346   0.00000  Uiso   1.00
N502   N     0.81617   0.75746   0.93123   0.00000  Uiso   1.00
N503   N     0.83004   0.28794   0.01845   0.00000  Uiso   1.00
N504   N     0.38473   0.03067   0.78424   0.00000  Uiso   1.00
N505   N     0.78059   0.83064   0.88201   0.00000  Uiso   1.00
N506   N     0.29446   0.86112   0.96924   0.00000  Uiso   1.00
C507   C     0.65337   0.59056   0.89965   0.00000  Uiso   1.00
C508   C     0.59646   0.64113   0.85861   0.00000  Uiso   1.00
C509   C     0.57981   0.73470   0.85260   0.00000  Uiso   1.00
C510   C     0.52604   0.76771   0.81270   0.00000  Uiso   1.00
C511   C     0.44309   0.85513   0.75394   0.00000  Uiso   1.00
C512   C     0.61215   0.51188   0.89397   0.00000  Uiso   1.00
C513   C     0.60870   0.49678   0.91770   0.00000  Uiso   1.00
C514   C     0.56815   0.42097   0.90757   0.00000  Uiso   1.00
C515   C     0.00960   0.80769   0.90373   0.00000  Uiso   1.00
C516   C     0.70634   0.54479   0.90514   0.00000  Uiso   1.00
C517   C     0.78210   0.55734   0.93826   0.00000  Uiso   1.00
C518   C     0.32085   0.00922   0.93754   0.00000  Uiso   1.00
C519   C     0.40855   0.94705   0.95104   0.00000  Uiso   1.00
C520   C     0.08748   0.98277   0.83948   0.00000  Uiso   1.00
C521   C     0.56067   0.58258   0.82593   0.00000  Uiso   1.00
C522   C     0.50691   0.61545   0.78603   0.00000  Uiso   1.00
C523   C     0.49019   0.70906   0.77996   0.00000  Uiso   1.00
C524   C     0.57636   0.45333   0.86129   0.00000  Uiso   1.00
C525   C     0.03580   0.87752   0.85113   0.00000  Uiso   1.00
C526   C     0.03229   0.86231   0.87483   0.00000  Uiso   1.00
C527   C     0.17055   0.98625   0.87246   0.00000  Uiso   1.00
C528   C     0.20919   0.93809   0.87169   0.00000  Uiso   1.00
C529   C     0.28499   0.95057   0.90481   0.00000  Uiso   1.00
H530   H     0.68123   0.63613   0.92509   0.00000  Uiso   1.00
H531   H     0.60752   0.77999   0.87789   0.00000  Uiso   1.00
H532   H     0.63641   0.54209   0.94299   0.00000  Uiso   1.00
H533   H     0.80977   0.60265   0.96354   0.00000  Uiso   1.00
H534   H     0.50999   0.91365   0.81115   0.00000  Uiso   1.00
H535   H     0.07093   0.91202   0.94841   0.00000  Uiso   1.00
H536   H     0.93650   0.53972   0.99176   0.00000  Uiso   1.00
H537   H     0.05961   0.93719   0.81404   0.00000  Uiso   1.00
H538   H     0.47923   0.57013   0.76075   0.00000  Uiso   1.00
H539   H     0.00812   0.83223   0.82584   0.00000  Uiso   1.00
H540   H     0.18148   0.89279   0.84640   0.00000  Uiso   1.00
H541   H     0.40586   0.74332   0.71607   0.00000  Uiso   1.00
H542   H     0.46681   0.24168   0.85334   0.00000  Uiso   1.00
H543   H     0.33237   0.86939   0.89668   0.00000  Uiso   1.00
O544   O     0.40722   0.91952   0.73056   0.00000  Uiso   1.00
O545   O     0.98719   0.76139   0.91064   0.00000  Uiso   1.00
O546   O     0.46680   0.92894   0.96752   0.00000  Uiso   1.00
N547   N     0.49653   0.85532   0.79609   0.00000  Uiso   1.00
N548   N     0.05349   0.88633   0.92442   0.00000  Uiso   1.00
N549   N     0.39527   0.00571   0.96495   0.00000  Uiso   1.00
N550   N     0.44050   0.76367   0.74493   0.00000  Uiso   1.00
N551   N     0.49746   0.29468   0.87326   0.00000  Uiso   1.00
N552   N     0.33924   0.91405   0.91379   0.00000  Uiso   1.00
C553   C     0.93959   0.70473   0.40135   0.00000  Uiso   1.00
C554   C     0.91364   0.76650   0.36870   0.00000  Uiso   1.00
C555   C     0.95718   0.79919   0.36894   0.00000  Uiso   1.00
C556   C     0.92308   0.85479   0.33626   0.00000  Uiso   1.00
C557   C     0.89418   0.94732   0.29039   0.00000  Uiso   1.00
C558   C     0.89018   0.61943   0.37877   0.00000  Uiso   1.00
C559   C     0.91400   0.52845   0.38747   0.00000  Uiso   1.00
C560   C     0.86015   0.46025   0.36327   0.00000  Uiso   1.00
C561   C     0.79483   0.32443   0.33304   0.00000  Uiso   1.00
C562   C     0.92039   0.75608   0.41652   0.00000  Uiso   1.00
C563   C     0.96960   0.77999   0.45696   0.00000  Uiso   1.00
C564   C     0.94117   0.82682   0.46454   0.00000  Uiso   1.00
C565   C     0.42276   0.40318   0.49293   0.00000  Uiso   1.00
C566   C     0.80161   0.74535   0.34290   0.00000  Uiso   1.00
C567   C     0.83869   0.78857   0.33695   0.00000  Uiso   1.00
C568   C     0.80452   0.84414   0.30427   0.00000  Uiso   1.00
C569   C     0.84800   0.87690   0.30446   0.00000  Uiso   1.00
C570   C     0.81524   0.64149   0.34702   0.00000  Uiso   1.00
C571   C     0.76134   0.57340   0.32280   0.00000  Uiso   1.00
C572   C     0.78507   0.48235   0.33146   0.00000  Uiso   1.00
C573   C     0.84544   0.77815   0.38477   0.00000  Uiso   1.00
C574   C     0.81694   0.82494   0.39229   0.00000  Uiso   1.00
C575   C     0.86609   0.84892   0.43274   0.00000  Uiso   1.00
H576   H     0.99794   0.68754   0.42607   0.00000  Uiso   1.00
H577   H     0.01517   0.78209   0.39351   0.00000  Uiso   1.00
H578   H     0.97200   0.51140   0.41204   0.00000  Uiso   1.00
H579   H     0.02759   0.76290   0.48152   0.00000  Uiso   1.00
H580   H     0.00123   0.89662   0.34341   0.00000  Uiso   1.00
H581   H     0.91020   0.32585   0.38250   0.00000  Uiso   1.00
H582   H     0.52742   0.35619   0.52901   0.00000  Uiso   1.00
H583   H     0.74326   0.76253   0.31818   0.00000  Uiso   1.00
H584   H     0.74652   0.86120   0.27970   0.00000  Uiso   1.00
H585   H     0.70335   0.59050   0.29824   0.00000  Uiso   1.00
H586   H     0.75894   0.84201   0.36771   0.00000  Uiso   1.00
H587   H     0.78318   0.96083   0.25104   0.00000  Uiso   1.00
H588   H     0.69215   0.39005   0.29012   0.00000  Uiso   1.00
H589   H     0.30937   0.42039   0.43663   0.00000  Uiso   1.00
O590   O     0.89894   0.99225   0.27386   0.00000  Uiso   1.00
O591   O     0.27951   0.74342   0.32514   0.00000  Uiso   1.00
O592   O     0.43330   0.43922   0.51735   0.00000  Uiso   1.00
N593   N     0.94946   0.89821   0.32696   0.00000  Uiso   1.00
N594   N     0.86436   0.36457   0.36349   0.00000  Uiso   1.00
N595   N     0.47394   0.36037   0.50047   0.00000  Uiso   1.00
N596   N     0.83213   0.93276   0.27725   0.00000  Uiso   1.00
N597   N     0.74703   0.39912   0.31379   0.00000  Uiso   1.00
N598   N     0.35661   0.39492   0.45076   0.00000  Uiso   1.00
C599   C     0.19194   0.50545   0.43204   0.00000  Uiso   1.00
C600   C     0.10838   0.49776   0.39284   0.00000  Uiso   1.00
C601   C     0.05795   0.53208   0.38730   0.00000  Uiso   1.00
C602   C     0.98389   0.51799   0.34916   0.00000  Uiso   1.00
C603   C     0.85761   0.51321   0.29308   0.00000  Uiso   1.00
C604   C     0.21748   0.55290   0.41979   0.00000  Uiso   1.00
C605   C     0.25877   0.63357   0.43690   0.00000  Uiso   1.00
C606   C     0.27656   0.66589   0.42144   0.00000  Uiso   1.00
C607   C     0.31969   0.74668   0.40721   0.00000  Uiso   1.00
C608   C     0.22129   0.40670   0.44382   0.00000  Uiso   1.00
C609   C     0.26581   0.36445   0.48115   0.00000  Uiso   1.00
C610   C     0.28682   0.27367   0.48594   0.00000  Uiso   1.00
C611   C     0.83586   0.62747   0.50902   0.00000  Uiso   1.00
C612   C     0.15011   0.41939   0.37416   0.00000  Uiso   1.00
C613   C     0.08567   0.45102   0.36141   0.00000  Uiso   1.00
C614   C     0.01166   0.43687   0.32327   0.00000  Uiso   1.00
C615   C     0.96113   0.47116   0.31767   0.00000  Uiso   1.00
C616   C     0.19476   0.50617   0.38835   0.00000  Uiso   1.00
C617   C     0.21249   0.53836   0.37287   0.00000  Uiso   1.00
C618   C     0.25380   0.61906   0.38995   0.00000  Uiso   1.00
C619   C     0.19857   0.35996   0.41239   0.00000  Uiso   1.00
C620   C     0.21952   0.26924   0.41712   0.00000  Uiso   1.00
C621   C     0.26405   0.22685   0.45445   0.00000  Uiso   1.00
H622   H     0.20963   0.54184   0.45651   0.00000  Uiso   1.00
H623   H     0.07555   0.56826   0.41164   0.00000  Uiso   1.00
H624   H     0.27636   0.66972   0.46123   0.00000  Uiso   1.00
H625   H     0.28338   0.40064   0.50547   0.00000  Uiso   1.00
H626   H     0.91688   0.57696   0.34802   0.00000  Uiso   1.00
H627   H     0.34030   0.79090   0.45259   0.00000  Uiso   1.00
H628   H     0.35512   0.22348   0.54589   0.00000  Uiso   1.00
H629   H     0.13242   0.38300   0.34969   0.00000  Uiso   1.00
H630   H     0.99410   0.40070   0.29895   0.00000  Uiso   1.00
H631   H     0.19490   0.50217   0.34854   0.00000  Uiso   1.00
H632   H     0.70193   0.73308   0.39278   0.00000  Uiso   1.00
H633   H     0.85077   0.44097   0.25655   0.00000  Uiso   1.00
H634   H     0.27420   0.65490   0.36113   0.00000  Uiso   1.00
H635   H     0.78901   0.58749   0.45443   0.00000  Uiso   1.00
O636   O     0.79423   0.52350   0.27083   0.00000  Uiso   1.00
O637   O     0.34975   0.80416   0.40804   0.00000  Uiso   1.00
O638   O     0.36919   0.05973   0.53044   0.00000  Uiso   1.00
N639   N     0.92030   0.54251   0.33346   0.00000  Uiso   1.00
N640   N     0.31617   0.74254   0.43123   0.00000  Uiso   1.00
N641   N     0.33004   0.21206   0.51845   0.00000  Uiso   1.00
N642   N     0.88473   0.46933   0.28424   0.00000  Uiso   1.00
N643   N     0.28059   0.66936   0.38201   0.00000  Uiso   1.00
N644   N     0.79446   0.63888   0.46924   0.00000  Uiso   1.00
C645   C     0.15337   0.90944   0.39965   0.00000  Uiso   1.00
C646   C     0.09646   0.85887   0.35861   0.00000  Uiso   1.00
C647   C     0.07981   0.76530   0.35260   0.00000  Uiso   1.00
C648   C     0.02604   0.73229   0.31270   0.00000  Uiso   1.00
C649   C     0.94309   0.64487   0.25394   0.00000  Uiso   1.00
C650   C     0.11215   0.98812   0.39397   0.00000  Uiso   1.00
C651   C     0.10870   0.00322   0.41770   0.00000  Uiso   1.00
C652   C     0.06815   0.07903   0.40757   0.00000  Uiso   1.00
C653   C     0.50960   0.69231   0.40373   0.00000  Uiso   1.00
C654   C     0.20634   0.95521   0.40514   0.00000  Uiso   1.00
C655   C     0.28210   0.94266   0.43826   0.00000  Uiso   1.00
C656   C     0.82085   0.49078   0.43754   0.00000  Uiso   1.00
C657   C     0.90855   0.55295   0.45104   0.00000  Uiso   1.00
C658   C     0.58748   0.51723   0.33948   0.00000  Uiso   1.00
C659   C     0.06067   0.91742   0.32593   0.00000  Uiso   1.00
C660   C     0.00691   0.88455   0.28603   0.00000  Uiso   1.00
C661   C     0.99019   0.79094   0.27996   0.00000  Uiso   1.00
C662   C     0.07636   0.04667   0.36129   0.00000  Uiso   1.00
C663   C     0.53580   0.62248   0.35113   0.00000  Uiso   1.00
C664   C     0.53229   0.63769   0.37483   0.00000  Uiso   1.00
C665   C     0.67055   0.51375   0.37246   0.00000  Uiso   1.00
C666   C     0.70919   0.56191   0.37169   0.00000  Uiso   1.00
C667   C     0.78499   0.54943   0.40481   0.00000  Uiso   1.00
H668   H     0.18123   0.86387   0.42509   0.00000  Uiso   1.00
H669   H     0.10752   0.72001   0.37789   0.00000  Uiso   1.00
H670   H     0.13641   0.95791   0.44299   0.00000  Uiso   1.00
H671   H     0.30977   0.89735   0.46354   0.00000  Uiso   1.00
H672   H     0.00999   0.58635   0.31115   0.00000  Uiso   1.00
H673   H     0.57093   0.58798   0.44841   0.00000  Uiso   1.00
H674   H     0.43650   0.96028   0.49176   0.00000  Uiso   1.00
H675   H     0.55961   0.56281   0.31404   0.00000  Uiso   1.00
H676   H     0.97923   0.92987   0.26075   0.00000  Uiso   1.00
H677   H     0.50812   0.66777   0.32584   0.00000  Uiso   1.00
H678   H     0.68148   0.60721   0.34640   0.00000  Uiso   1.00
H679   H     0.90586   0.75668   0.21607   0.00000  Uiso   1.00
H680   H     0.96681   0.25832   0.35334   0.00000  Uiso   1.00
H681   H     0.83237   0.63061   0.39668   0.00000  Uiso   1.00
O682   O     0.90722   0.58048   0.23056   0.00000  Uiso   1.00
O683   O     0.48719   0.73861   0.41064   0.00000  Uiso   1.00
O684   O     0.96680   0.57106   0.46752   0.00000  Uiso   1.00
N685   N     0.99653   0.64468   0.29609   0.00000  Uiso   1.00
N686   N     0.55349   0.61367   0.42442   0.00000  Uiso   1.00
N687   N     0.89527   0.49429   0.46495   0.00000  Uiso   1.00
N688   N     0.94050   0.73633   0.24493   0.00000  Uiso   1.00
N689   N     0.99746   0.20532   0.37326   0.00000  Uiso   1.00
N690   N     0.83924   0.58595   0.41379   0.00000  Uiso   1.00
C691   C     0.43959   0.20473   0.40135   0.00000  Uiso   1.00
C692   C     0.41364   0.26650   0.36870   0.00000  Uiso   1.00
C693   C     0.45718   0.29919   0.36894   0.00000  Uiso   1.00
C694   C     0.42308   0.35479   0.33626   0.00000  Uiso   1.00
C695   C     0.39418   0.44732   0.29039   0.00000  Uiso   1.00
C696   C     0.39018   0.11943   0.37877   0.00000  Uiso   1.00
C697   C     0.41400   0.02845   0.38747   0.00000  Uiso   1.00
C698   C     0.36015   0.96025   0.36327   0.00000  Uiso   1.00
C699   C     0.29483   0.82443   0.33304   0.00000  Uiso   1.00
C700   C     0.42039   0.25608   0.41652   0.00000  Uiso   1.00
C701   C     0.46960   0.27999   0.45696   0.00000  Uiso   1.00
C702   C     0.44117   0.32682   0.46454   0.00000  Uiso   1.00
C703   C     0.92276   0.90318   0.49293   0.00000  Uiso   1.00
C704   C     0.30161   0.24535   0.34290   0.00000  Uiso   1.00
C705   C     0.33869   0.28857   0.33695   0.00000  Uiso   1.00
C706   C     0.30452   0.34414   0.30427   0.00000  Uiso   1.00
C707   C     0.34800   0.37690   0.30446   0.00000  Uiso   1.00
C708   C     0.31524   0.14149   0.34702   0.00000  Uiso   1.00
C709   C     0.26134   0.07340   0.32280   0.00000  Uiso   1.00
C710   C     0.28507   0.98235   0.33146   0.00000  Uiso   1.00
C711   C     0.34544   0.27815   0.38477   0.00000  Uiso   1.00
C712   C     0.31694   0.32494   0.39229   0.00000  Uiso   1.00
C713   C     0.36609   0.34892   0.43274   0.00000  Uiso   1.00
H714   H     0.49794   0.18754   0.42607   0.00000  Uiso   1.00
H715   H     0.51517   0.28209   0.39351   0.00000  Uiso   1.00
H716   H     0.47200   0.01140   0.41204   0.00000  Uiso   1.00
H717   H     0.52759   0.26290   0.48152   0.00000  Uiso   1.00
H718   H     0.50123   0.39662   0.34341   0.00000  Uiso   1.00
H719   H     0.41020   0.82585   0.38250   0.00000  Uiso   1.00
H720   H     0.02742   0.85619   0.52901   0.00000  Uiso   1.00
H721   H     0.24326   0.26253   0.31818   0.00000  Uiso   1.00
H722   H     0.24652   0.36120   0.27970   0.00000  Uiso   1.00
H723   H     0.20335   0.09050   0.29824   0.00000  Uiso   1.00
H724   H     0.25894   0.34201   0.36771   0.00000  Uiso   1.00
H725   H     0.28318   0.46083   0.25104   0.00000  Uiso   1.00
H726   H     0.19215   0.89005   0.29012   0.00000  Uiso   1.00
H727   H     0.80937   0.92039   0.43663   0.00000  Uiso   1.00
O728   O     0.39894   0.49225   0.27386   0.00000  Uiso   1.00
O729   O     0.77951   0.24342   0.32514   0.00000  Uiso   1.00
O730   O     0.93330   0.93922   0.51735   0.00000  Uiso   1.00
N731   N     0.44946   0.39821   0.32696   0.00000  Uiso   1.00
N732   N     0.36436   0.86457   0.36349   0.00000  Uiso   1.00
N733   N     0.97394   0.86037   0.50047   0.00000  Uiso   1.00
N734   N     0.33213   0.43276   0.27725   0.00000  Uiso   1.00
N735   N     0.24703   0.89912   0.31379   0.00000  Uiso   1.00
N736   N     0.85661   0.89492   0.45076   0.00000  Uiso   1.00
C737   C     0.69194   0.00545   0.43204   0.00000  Uiso   1.00
C738   C     0.60838   0.99776   0.39284   0.00000  Uiso   1.00
C739   C     0.55795   0.03208   0.38730   0.00000  Uiso   1.00
C740   C     0.48389   0.01799   0.34916   0.00000  Uiso   1.00
C741   C     0.35761   0.01321   0.29308   0.00000  Uiso   1.00
C742   C     0.71748   0.05290   0.41979   0.00000  Uiso   1.00
C743   C     0.75877   0.13357   0.43690   0.00000  Uiso   1.00
C744   C     0.77656   0.16589   0.42144   0.00000  Uiso   1.00
C745   C     0.81969   0.24668   0.40721   0.00000  Uiso   1.00
C746   C     0.72129   0.90670   0.44382   0.00000  Uiso   1.00
C747   C     0.76581   0.86445   0.48115   0.00000  Uiso   1.00
C748   C     0.78682   0.77367   0.48594   0.00000  Uiso   1.00
C749   C     0.33586   0.12747   0.50902   0.00000  Uiso   1.00
C750   C     0.65011   0.91939   0.37416   0.00000  Uiso   1.00
C751   C     0.58567   0.95102   0.36141   0.00000  Uiso   1.00
C752   C     0.51166   0.93687   0.32327   0.00000  Uiso   1.00
C753   C     0.46113   0.97116   0.31767   0.00000  Uiso   1.00
C754   C     0.69476   0.00617   0.38835   0.00000  Uiso   1.00
C755   C     0.71249   0.03836   0.37287   0.00000  Uiso   1.00
C756   C     0.75380   0.11906   0.38995   0.00000  Uiso   1.00
C757   C     0.69857   0.85996   0.41239   0.00000  Uiso   1.00
C758   C     0.71952   0.76924   0.41712   0.00000  Uiso   1.00
C759   C     0.76405   0.72685   0.45445   0.00000  Uiso   1.00
H760   H     0.70963   0.04184   0.45651   0.00000  Uiso   1.00
H761   H     0.57555   0.06826   0.41164   0.00000  Uiso   1.00
H762   H     0.77636   0.16972   0.46123   0.00000  Uiso   1.00
H763   H     0.78338   0.90064   0.50547   0.00000  Uiso   1.00
H764   H     0.41688   0.07696   0.34802   0.00000  Uiso   1.00
H765   H     0.84030   0.29090   0.45259   0.00000  Uiso   1.00
H766   H     0.85512   0.72348   0.54589   0.00000  Uiso   1.00
H767   H     0.63242   0.88300   0.34969   0.00000  Uiso   1.00
H768   H     0.49410   0.90070   0.29895   0.00000  Uiso   1.00
H769   H     0.69490   0.00217   0.34854   0.00000  Uiso   1.00
H770   H     0.20193   0.23308   0.39278   0.00000  Uiso   1.00
H771   H     0.35077   0.94097   0.25655   0.00000  Uiso   1.00
H772   H     0.77420   0.15490   0.36113   0.00000  Uiso   1.00
H773   H     0.28901   0.08749   0.45443   0.00000  Uiso   1.00
O774   O     0.29423   0.02350   0.27083   0.00000  Uiso   1.00
O775   O     0.84975   0.30416   0.40804   0.00000  Uiso   1.00
O776   O     0.86919   0.55973   0.53044   0.00000  Uiso   1.00
N777   N     0.42030   0.04251   0.33346   0.00000  Uiso   1.00
N778   N     0.81617   0.24254   0.43123   0.00000  Uiso   1.00
N779   N     0.83004   0.71206   0.51845   0.00000  Uiso   1.00
N780   N     0.38473   0.96933   0.28424   0.00000  Uiso   1.00
N781   N     0.78059   0.16936   0.38201   0.00000  Uiso   1.00
N782   N     0.29446   0.13888   0.46924   0.00000  Uiso   1.00
C783   C     0.65337   0.40944   0.39965   0.00000  Uiso   1.00
C784   C     0.59646   0.35887   0.35861   0.00000  Uiso   1.00
C785   C     0.57981   0.26530   0.35260   0.00000  Uiso   1.00
C786   C     0.52604   0.23229   0.31270   0.00000  Uiso   1.00
C787   C     0.44309   0.14487   0.25394   0.00000  Uiso   1.00
C788   C     0.61215   0.48812   0.39397   0.00000  Uiso   1.00
C789   C     0.60870   0.50322   0.41770   0.00000  Uiso   1.00
C790   C     0.56815   0.57903   0.40757   0.00000  Uiso   1.00
C791   C     0.00960   0.19231   0.40373   0.00000  Uiso   1.00
C792   C     0.70634   0.45521   0.40514   0.00000  Uiso   1.00
C793   C     0.78210   0.44266   0.43826   0.00000  Uiso   1.00
C794   C     0.32085   0.99078   0.43754   0.00000  Uiso   1.00
C795   C     0.40855   0.05295   0.45104   0.00000  Uiso   1.00
C796   C     0.08748   0.01723   0.33948   0.00000  Uiso   1.00
C797   C     0.56067   0.41742   0.32593   0.00000  Uiso   1.00
C798   C     0.50691   0.38455   0.28603   0.00000  Uiso   1.00
C799   C     0.49019   0.29094   0.27996   0.00000  Uiso   1.00
C800   C     0.57636   0.54667   0.36129   0.00000  Uiso   1.00
C801   C     0.03580   0.12248   0.35113   0.00000  Uiso   1.00
C802   C     0.03229   0.13769   0.37483   0.00000  Uiso   1.00
C803   C     0.17055   0.01375   0.37246   0.00000  Uiso   1.00
C804   C     0.20919   0.06191   0.37169   0.00000  Uiso   1.00
C805   C     0.28499   0.04943   0.40481   0.00000  Uiso   1.00
H806   H     0.68123   0.36387   0.42509   0.00000  Uiso   1.00
H807   H     0.60752   0.22001   0.37789   0.00000  Uiso   1.00
H808   H     0.63641   0.45791   0.44299   0.00000  Uiso   1.00
H809   H     0.80977   0.39735   0.46354   0.00000  Uiso   1.00
H810   H     0.50999   0.08635   0.31115   0.00000  Uiso   1.00
H811   H     0.07093   0.08798   0.44841   0.00000  Uiso   1.00
H812   H     0.93650   0.46028   0.49176   0.00000  Uiso   1.00
H813   H     0.05961   0.06281   0.31404   0.00000  Uiso   1.00
H814   H     0.47923   0.42987   0.26075   0.00000  Uiso   1.00
H815   H     0.00812   0.16777   0.32584   0.00000  Uiso   1.00
H816   H     0.18148   0.10721   0.34640   0.00000  Uiso   1.00
H817   H     0.40586   0.25668   0.21607   0.00000  Uiso   1.00
H818   H     0.46681   0.75832   0.35334   0.00000  Uiso   1.00
H819   H     0.33237   0.13061   0.39668   0.00000  Uiso   1.00
O820   O     0.40722   0.08048   0.23056   0.00000  Uiso   1.00
O821   O     0.98719   0.23861   0.41064   0.00000  Uiso   1.00
O822   O     0.46680   0.07106   0.46752   0.00000  Uiso   1.00
N823   N     0.49653   0.14468   0.29609   0.00000  Uiso   1.00
N824   N     0.05349   0.11367   0.42442   0.00000  Uiso   1.00
N825   N     0.39527   0.99429   0.46495   0.00000  Uiso   1.00
N826   N     0.44050   0.23633   0.24493   0.00000  Uiso   1.00
N827   N     0.49746   0.70532   0.37326   0.00000  Uiso   1.00
N828   N     0.33924   0.08595   0.41379   0.00000  Uiso   1.00
C829   C     0.06041   0.70473   0.09865   0.00000  Uiso   1.00
C830   C     0.08636   0.76650   0.13130   0.00000  Uiso   1.00
C831   C     0.04282   0.79919   0.13106   0.00000  Uiso   1.00
C832   C     0.07692   0.85479   0.16374   0.00000  Uiso   1.00
C833   C     0.10582   0.94732   0.20961   0.00000  Uiso   1.00
C834   C     0.10982   0.61943   0.12123   0.00000  Uiso   1.00
C835   C     0.08600   0.52845   0.11253   0.00000  Uiso   1.00
C836   C     0.13985   0.46025   0.13673   0.00000  Uiso   1.00
C837   C     0.20517   0.32443   0.16696   0.00000  Uiso   1.00
C838   C     0.07961   0.75608   0.08348   0.00000  Uiso   1.00
C839   C     0.03040   0.77999   0.04304   0.00000  Uiso   1.00
C840   C     0.05883   0.82682   0.03546   0.00000  Uiso   1.00
C841   C     0.57724   0.40318   0.00707   0.00000  Uiso   1.00
C842   C     0.19839   0.74535   0.15710   0.00000  Uiso   1.00
C843   C     0.16131   0.78857   0.16305   0.00000  Uiso   1.00
C844   C     0.19548   0.84414   0.19573   0.00000  Uiso   1.00
C845   C     0.15200   0.87690   0.19554   0.00000  Uiso   1.00
C846   C     0.18476   0.64149   0.15298   0.00000  Uiso   1.00
C847   C     0.23866   0.57340   0.17720   0.00000  Uiso   1.00
C848   C     0.21493   0.48235   0.16854   0.00000  Uiso   1.00
C849   C     0.15456   0.77815   0.11523   0.00000  Uiso   1.00
C850   C     0.18306   0.82494   0.10771   0.00000  Uiso   1.00
C851   C     0.13391   0.84892   0.06726   0.00000  Uiso   1.00
H852   H     0.00206   0.68754   0.07393   0.00000  Uiso   1.00
H853   H     0.98483   0.78209   0.10649   0.00000  Uiso   1.00
H854   H     0.02800   0.51140   0.08796   0.00000  Uiso   1.00
H855   H     0.97241   0.76290   0.01848   0.00000  Uiso   1.00
H856   H     0.99877   0.89662   0.15659   0.00000  Uiso   1.00
H857   H     0.08980   0.32585   0.11750   0.00000  Uiso   1.00
H858   H     0.47258   0.35619   0.97099   0.00000  Uiso   1.00
H859   H     0.25674   0.76253   0.18182   0.00000  Uiso   1.00
H860   H     0.25348   0.86120   0.22030   0.00000  Uiso   1.00
H861   H     0.29665   0.59050   0.20176   0.00000  Uiso   1.00
H862   H     0.24106   0.84201   0.13229   0.00000  Uiso   1.00
H863   H     0.21682   0.96083   0.24896   0.00000  Uiso   1.00
H864   H     0.30785   0.39005   0.20988   0.00000  Uiso   1.00
H865   H     0.69063   0.42039   0.06337   0.00000  Uiso   1.00
O866   O     0.10106   0.99225   0.22614   0.00000  Uiso   1.00
O867   O     0.72049   0.74342   0.17486   0.00000  Uiso   1.00
O868   O     0.56670   0.43922   0.98265   0.00000  Uiso   1.00
N869   N     0.05054   0.89821   0.17304   0.00000  Uiso   1.00
N870   N     0.13564   0.36457   0.13651   0.00000  Uiso   1.00
N871   N     0.52606   0.36037   0.99953   0.00000  Uiso   1.00
N872   N     0.16787   0.93276   0.22275   0.00000  Uiso   1.00
N873   N     0.25297   0.39912   0.18621   0.00000  Uiso   1.00
N874   N     0.64339   0.39492   0.04924   0.00000  Uiso   1.00
C875   C     0.80806   0.50545   0.06796   0.00000  Uiso   1.00
C876   C     0.89162   0.49776   0.10716   0.00000  Uiso   1.00
C877   C     0.94205   0.53208   0.11270   0.00000  Uiso   1.00
C878   C     0.01611   0.51799   0.15084   0.00000  Uiso   1.00
C879   C     0.14239   0.51321   0.20692   0.00000  Uiso   1.00
C880   C     0.78252   0.55290   0.08021   0.00000  Uiso   1.00
C881   C     0.74123   0.63357   0.06310   0.00000  Uiso   1.00
C882   C     0.72344   0.66589   0.07856   0.00000  Uiso   1.00
C883   C     0.68031   0.74668   0.09279   0.00000  Uiso   1.00
C884   C     0.77871   0.40670   0.05618   0.00000  Uiso   1.00
C885   C     0.73419   0.36445   0.01885   0.00000  Uiso   1.00
C886   C     0.71318   0.27367   0.01406   0.00000  Uiso   1.00
C887   C     0.16414   0.62747   0.99098   0.00000  Uiso   1.00
C888   C     0.84989   0.41939   0.12584   0.00000  Uiso   1.00
C889   C     0.91433   0.45102   0.13859   0.00000  Uiso   1.00
C890   C     0.98834   0.43687   0.17673   0.00000  Uiso   1.00
C891   C     0.03887   0.47116   0.18233   0.00000  Uiso   1.00
C892   C     0.80524   0.50617   0.11165   0.00000  Uiso   1.00
C893   C     0.78751   0.53836   0.12713   0.00000  Uiso   1.00
C894   C     0.74620   0.61906   0.11005   0.00000  Uiso   1.00
C895   C     0.80143   0.35996   0.08761   0.00000  Uiso   1.00
C896   C     0.78048   0.26924   0.08288   0.00000  Uiso   1.00
C897   C     0.73595   0.22685   0.04555   0.00000  Uiso   1.00
H898   H     0.79037   0.54184   0.04349   0.00000  Uiso   1.00
H899   H     0.92445   0.56826   0.08836   0.00000  Uiso   1.00
H900   H     0.72364   0.66972   0.03877   0.00000  Uiso   1.00
H901   H     0.71662   0.40064   0.99453   0.00000  Uiso   1.00
H902   H     0.08312   0.57696   0.15198   0.00000  Uiso   1.00
H903   H     0.65970   0.79090   0.04741   0.00000  Uiso   1.00
H904   H     0.64488   0.22348   0.95411   0.00000  Uiso   1.00
H905   H     0.86758   0.38300   0.15031   0.00000  Uiso   1.00
H906   H     0.00590   0.40070   0.20105   0.00000  Uiso   1.00
H907   H     0.80510   0.50217   0.15146   0.00000  Uiso   1.00
H908   H     0.29807   0.73308   0.10722   0.00000  Uiso   1.00
H909   H     0.14923   0.44097   0.24345   0.00000  Uiso   1.00
H910   H     0.72580   0.65490   0.13887   0.00000  Uiso   1.00
H911   H     0.21099   0.58749   0.04557   0.00000  Uiso   1.00
O912   O     0.20577   0.52350   0.22917   0.00000  Uiso   1.00
O913   O     0.65025   0.80416   0.09196   0.00000  Uiso   1.00
O914   O     0.63081   0.05973   0.96956   0.00000  Uiso   1.00
N915   N     0.07970   0.54251   0.16654   0.00000  Uiso   1.00
N916   N     0.68383   0.74254   0.06877   0.00000  Uiso   1.00
N917   N     0.66996   0.21206   0.98155   0.00000  Uiso   1.00
N918   N     0.11527   0.46933   0.21576   0.00000  Uiso   1.00
N919   N     0.71941   0.66936   0.11799   0.00000  Uiso   1.00
N920   N     0.20554   0.63888   0.03076   0.00000  Uiso   1.00
C921   C     0.84663   0.90944   0.10035   0.00000  Uiso   1.00
C922   C     0.90354   0.85887   0.14139   0.00000  Uiso   1.00
C923   C     0.92019   0.76530   0.14740   0.00000  Uiso   1.00
C924   C     0.97396   0.73229   0.18730   0.00000  Uiso   1.00
C925   C     0.05691   0.64487   0.24606   0.00000  Uiso   1.00
C926   C     0.88785   0.98812   0.10603   0.00000  Uiso   1.00
C927   C     0.89130   0.00322   0.08230   0.00000  Uiso   1.00
C928   C     0.93185   0.07903   0.09243   0.00000  Uiso   1.00
C929   C     0.49040   0.69231   0.09627   0.00000  Uiso   1.00
C930   C     0.79366   0.95521   0.09486   0.00000  Uiso   1.00
C931   C     0.71790   0.94266   0.06174   0.00000  Uiso   1.00
C932   C     0.17915   0.49078   0.06246   0.00000  Uiso   1.00
C933   C     0.09145   0.55295   0.04896   0.00000  Uiso   1.00
C934   C     0.41252   0.51723   0.16052   0.00000  Uiso   1.00
C935   C     0.93933   0.91742   0.17407   0.00000  Uiso   1.00
C936   C     0.99309   0.88455   0.21397   0.00000  Uiso   1.00
C937   C     0.00981   0.79094   0.22004   0.00000  Uiso   1.00
C938   C     0.92364   0.04667   0.13871   0.00000  Uiso   1.00
C939   C     0.46420   0.62248   0.14887   0.00000  Uiso   1.00
C940   C     0.46771   0.63769   0.12517   0.00000  Uiso   1.00
C941   C     0.32945   0.51375   0.12754   0.00000  Uiso   1.00
C942   C     0.29081   0.56191   0.12831   0.00000  Uiso   1.00
C943   C     0.21501   0.54943   0.09519   0.00000  Uiso   1.00
H944   H     0.81877   0.86387   0.07491   0.00000  Uiso   1.00
H945   H     0.89248   0.72001   0.12211   0.00000  Uiso   1.00
H946   H     0.86359   0.95791   0.05701   0.00000  Uiso   1.00
H947   H     0.69023   0.89735   0.03646   0.00000  Uiso   1.00
H948   H     0.99001   0.58635   0.18885   0.00000  Uiso   1.00
H949   H     0.42907   0.58798   0.05159   0.00000  Uiso   1.00
H950   H     0.56350   0.96028   0.00824   0.00000  Uiso   1.00
H951   H     0.44039   0.56281   0.18596   0.00000  Uiso   1.00
H952   H     0.02077   0.92987   0.23925   0.00000  Uiso   1.00
H953   H     0.49188   0.66777   0.17416   0.00000  Uiso   1.00
H954   H     0.31852   0.60721   0.15360   0.00000  Uiso   1.00
H955   H     0.09414   0.75668   0.28393   0.00000  Uiso   1.00
H956   H     0.03319   0.25832   0.14666   0.00000  Uiso   1.00
H957   H     0.16763   0.63061   0.10332   0.00000  Uiso   1.00
O958   O     0.09278   0.58048   0.26944   0.00000  Uiso   1.00
O959   O     0.51281   0.73861   0.08936   0.00000  Uiso   1.00
O960   O     0.03320   0.57106   0.03248   0.00000  Uiso   1.00
N961   N     0.00347   0.64468   0.20391   0.00000  Uiso   1.00
N962   N     0.44651   0.61367   0.07558   0.00000  Uiso   1.00
N963   N     0.10473   0.49429   0.03505   0.00000  Uiso   1.00
N964   N     0.05950   0.73633   0.25507   0.00000  Uiso   1.00
N965   N     0.00254   0.20532   0.12674   0.00000  Uiso   1.00
N966   N     0.16076   0.58595   0.08621   0.00000  Uiso   1.00
C967   C     0.56041   0.20473   0.09865   0.00000  Uiso   1.00
C968   C     0.58636   0.26650   0.13130   0.00000  Uiso   1.00
C969   C     0.54282   0.29919   0.13106   0.00000  Uiso   1.00
C970   C     0.57692   0.35479   0.16374   0.00000  Uiso   1.00
C971   C     0.60582   0.44732   0.20961   0.00000  Uiso   1.00
C972   C     0.60982   0.11943   0.12123   0.00000  Uiso   1.00
C973   C     0.58600   0.02845   0.11253   0.00000  Uiso   1.00
C974   C     0.63985   0.96025   0.13673   0.00000  Uiso   1.00
C975   C     0.70517   0.82443   0.16696   0.00000  Uiso   1.00
C976   C     0.57961   0.25608   0.08348   0.00000  Uiso   1.00
C977   C     0.53040   0.27999   0.04304   0.00000  Uiso   1.00
C978   C     0.55883   0.32682   0.03546   0.00000  Uiso   1.00
C979   C     0.07724   0.90318   0.00707   0.00000  Uiso   1.00
C980   C     0.69839   0.24535   0.15710   0.00000  Uiso   1.00
C981   C     0.66131   0.28857   0.16305   0.00000  Uiso   1.00
C982   C     0.69548   0.34414   0.19573   0.00000  Uiso   1.00
C983   C     0.65200   0.37690   0.19554   0.00000  Uiso   1.00
C984   C     0.68476   0.14149   0.15298   0.00000  Uiso   1.00
C985   C     0.73866   0.07340   0.17720   0.00000  Uiso   1.00
C986   C     0.71493   0.98235   0.16854   0.00000  Uiso   1.00
C987   C     0.65456   0.27815   0.11523   0.00000  Uiso   1.00
C988   C     0.68306   0.32494   0.10771   0.00000  Uiso   1.00
C989   C     0.63391   0.34892   0.06726   0.00000  Uiso   1.00
H990   H     0.50206   0.18754   0.07393   0.00000  Uiso   1.00
H991   H     0.48483   0.28209   0.10649   0.00000  Uiso   1.00
H992   H     0.52800   0.01140   0.08796   0.00000  Uiso   1.00
H993   H     0.47241   0.26290   0.01848   0.00000  Uiso   1.00
H994   H     0.49877   0.39662   0.15659   0.00000  Uiso   1.00
H995   H     0.58980   0.82585   0.11750   0.00000  Uiso   1.00
H996   H     0.97258   0.85619   0.97099   0.00000  Uiso   1.00
H997   H     0.75674   0.26253   0.18182   0.00000  Uiso   1.00
H998   H     0.75348   0.36120   0.22030   0.00000  Uiso   1.00
H999   H     0.79665   0.09050   0.20176   0.00000  Uiso   1.00
H1000  H     0.74106   0.34201   0.13229   0.00000  Uiso   1.00
H1001  H     0.71682   0.46083   0.24896   0.00000  Uiso   1.00
H1002  H     0.80785   0.89005   0.20988   0.00000  Uiso   1.00
H1003  H     0.19063   0.92039   0.06337   0.00000  Uiso   1.00
O1004  O     0.60106   0.49225   0.22614   0.00000  Uiso   1.00
O1005  O     0.22049   0.24342   0.17486   0.00000  Uiso   1.00
O1006  O     0.06670   0.93922   0.98265   0.00000  Uiso   1.00
N1007  N     0.55054   0.39821   0.17304   0.00000  Uiso   1.00
N1008  N     0.63564   0.86457   0.13651   0.00000  Uiso   1.00
N1009  N     0.02606   0.86037   0.99953   0.00000  Uiso   1.00
N1010  N     0.66787   0.43276   0.22275   0.00000  Uiso   1.00
N1011  N     0.75297   0.89912   0.18621   0.00000  Uiso   1.00
N1012  N     0.14339   0.89492   0.04924   0.00000  Uiso   1.00
C1013  C     0.30806   0.00545   0.06796   0.00000  Uiso   1.00
C1014  C     0.39162   0.99776   0.10716   0.00000  Uiso   1.00
C1015  C     0.44205   0.03208   0.11270   0.00000  Uiso   1.00
C1016  C     0.51611   0.01799   0.15084   0.00000  Uiso   1.00
C1017  C     0.64239   0.01321   0.20692   0.00000  Uiso   1.00
C1018  C     0.28252   0.05290   0.08021   0.00000  Uiso   1.00
C1019  C     0.24123   0.13357   0.06310   0.00000  Uiso   1.00
C1020  C     0.22344   0.16589   0.07856   0.00000  Uiso   1.00
C1021  C     0.18031   0.24668   0.09279   0.00000  Uiso   1.00
C1022  C     0.27871   0.90670   0.05618   0.00000  Uiso   1.00
C1023  C     0.23419   0.86445   0.01885   0.00000  Uiso   1.00
C1024  C     0.21318   0.77367   0.01406   0.00000  Uiso   1.00
C1025  C     0.66414   0.12747   0.99098   0.00000  Uiso   1.00
C1026  C     0.34989   0.91939   0.12584   0.00000  Uiso   1.00
C1027  C     0.41433   0.95102   0.13859   0.00000  Uiso   1.00
C1028  C     0.48834   0.93687   0.17673   0.00000  Uiso   1.00
C1029  C     0.53887   0.97116   0.18233   0.00000  Uiso   1.00
C1030  C     0.30524   0.00617   0.11165   0.00000  Uiso   1.00
C1031  C     0.28751   0.03836   0.12713   0.00000  Uiso   1.00
C1032  C     0.24620   0.11906   0.11005   0.00000  Uiso   1.00
C1033  C     0.30143   0.85996   0.08761   0.00000  Uiso   1.00
C1034  C     0.28048   0.76924   0.08288   0.00000  Uiso   1.00
C1035  C     0.23595   0.72685   0.04555   0.00000  Uiso   1.00
H1036  H     0.29037   0.04184   0.04349   0.00000  Uiso   1.00
H1037  H     0.42445   0.06826   0.08836   0.00000  Uiso   1.00
H1038  H     0.22364   0.16972   0.03877   0.00000  Uiso   1.00
H1039  H     0.21662   0.90064   0.99453   0.00000  Uiso   1.00
H1040  H     0.58312   0.07696   0.15198   0.00000  Uiso   1.00
H1041  H     0.15970   0.29090   0.04741   0.00000  Uiso   1.00
H1042  H     0.14488   0.72348   0.95411   0.00000  Uiso   1.00
H1043  H     0.36758   0.88300   0.15031   0.00000  Uiso   1.00
H1044  H     0.50590   0.90070   0.20105   0.00000  Uiso   1.00
H1045  H     0.30510   0.00217   0.15146   0.00000  Uiso   1.00
H1046  H     0.79807   0.23308   0.10722   0.00000  Uiso   1.00
H1047  H     0.64923   0.94097   0.24345   0.00000  Uiso   1.00
H1048  H     0.22580   0.15490   0.13887   0.00000  Uiso   1.00
H1049  H     0.71099   0.08749   0.04557   0.00000  Uiso   1.00
O1050  O     0.70577   0.02350   0.22917   0.00000  Uiso   1.00
O1051  O     0.15025   0.30416   0.09196   0.00000  Uiso   1.00
O1052  O     0.13081   0.55973   0.96956   0.00000  Uiso   1.00
N1053  N     0.57970   0.04251   0.16654   0.00000  Uiso   1.00
N1054  N     0.18383   0.24254   0.06877   0.00000  Uiso   1.00
N1055  N     0.16996   0.71206   0.98155   0.00000  Uiso   1.00
N1056  N     0.61527   0.96933   0.21576   0.00000  Uiso   1.00
N1057  N     0.21941   0.16936   0.11799   0.00000  Uiso   1.00
N1058  N     0.70554   0.13888   0.03076   0.00000  Uiso   1.00
C1059  C     0.34663   0.40944   0.10035   0.00000  Uiso   1.00
C1060  C     0.40354   0.35887   0.14139   0.00000  Uiso   1.00
C1061  C     0.42019   0.26530   0.14740   0.00000  Uiso   1.00
C1062  C     0.47396   0.23229   0.18730   0.00000  Uiso   1.00
C1063  C     0.55691   0.14487   0.24606   0.00000  Uiso   1.00
C1064  C     0.38785   0.48812   0.10603   0.00000  Uiso   1.00
C1065  C     0.39130   0.50322   0.08230   0.00000  Uiso   1.00
C1066  C     0.43185   0.57903   0.09243   0.00000  Uiso   1.00
C1067  C     0.99040   0.19231   0.09627   0.00000  Uiso   1.00
C1068  C     0.29366   0.45521   0.09486   0.00000  Uiso   1.00
C1069  C     0.21790   0.44266   0.06174   0.00000  Uiso   1.00
C1070  C     0.67915   0.99078   0.06246   0.00000  Uiso   1.00
C1071  C     0.59145   0.05295   0.04896   0.00000  Uiso   1.00
C1072  C     0.91252   0.01723   0.16052   0.00000  Uiso   1.00
C1073  C     0.43933   0.41742   0.17407   0.00000  Uiso   1.00
C1074  C     0.49309   0.38455   0.21397   0.00000  Uiso   1.00
C1075  C     0.50981   0.29094   0.22004   0.00000  Uiso   1.00
C1076  C     0.42364   0.54667   0.13871   0.00000  Uiso   1.00
C1077  C     0.96420   0.12248   0.14887   0.00000  Uiso   1.00
C1078  C     0.96771   0.13769   0.12517   0.00000  Uiso   1.00
C1079  C     0.82945   0.01375   0.12754   0.00000  Uiso   1.00
C1080  C     0.79081   0.06191   0.12831   0.00000  Uiso   1.00
C1081  C     0.71501   0.04943   0.09519   0.00000  Uiso   1.00
H1082  H     0.31877   0.36387   0.07491   0.00000  Uiso   1.00
H1083  H     0.39248   0.22001   0.12211   0.00000  Uiso   1.00
H1084  H     0.36359   0.45791   0.05701   0.00000  Uiso   1.00
H1085  H     0.19023   0.39735   0.03646   0.00000  Uiso   1.00
H1086  H     0.49001   0.08635   0.18885   0.00000  Uiso   1.00
H1087  H     0.92907   0.08798   0.05159   0.00000  Uiso   1.00
H1088  H     0.06350   0.46028   0.00824   0.00000  Uiso   1.00
H1089  H     0.94039   0.06281   0.18596   0.00000  Uiso   1.00
H1090  H     0.52077   0.42987   0.23925   0.00000  Uiso   1.00
H1091  H     0.99188   0.16777   0.17416   0.00000  Uiso   1.00
H1092  H     0.81852   0.10721   0.15360   0.00000  Uiso   1.00
H1093  H     0.59414   0.25668   0.28393   0.00000  Uiso   1.00
H1094  H     0.53319   0.75832   0.14666   0.00000  Uiso   1.00
H1095  H     0.66763   0.13061   0.10332   0.00000  Uiso   1.00
O1096  O     0.59278   0.08048   0.26944   0.00000  Uiso   1.00
O1097  O     0.01281   0.23861   0.08936   0.00000  Uiso   1.00
O1098  O     0.53320   0.07106   0.03248   0.00000  Uiso   1.00
N1099  N     0.50347   0.14468   0.20391   0.00000  Uiso   1.00
N1100  N     0.94651   0.11367   0.07558   0.00000  Uiso   1.00
N1101  N     0.60473   0.99429   0.03505   0.00000  Uiso   1.00
N1102  N     0.55950   0.23633   0.25507   0.00000  Uiso   1.00
N1103  N     0.50254   0.70532   0.12674   0.00000  Uiso   1.00
N1104  N     0.66076   0.08595   0.08621   0.00000  Uiso   1.00
