data_job_05287
_audit_creation_date              2018-12-19
_audit_creation_method            'Materials Studio'
_symmetry_space_group_name_H-M    'P1'
_symmetry_Int_Tables_number       1
_symmetry_cell_setting            triclinic
loop_
_symmetry_equiv_pos_as_xyz
  x,y,z
_cell_length_a                    29.5832
_cell_length_b                    17.0649
_cell_length_c                    18.1548
_cell_angle_alpha                 90.0000
_cell_angle_beta                  90.0000
_cell_angle_gamma                 90.0000
loop_
_atom_site_label
_atom_site_type_symbol
_atom_site_fract_x
_atom_site_fract_y
_atom_site_fract_z
_atom_site_U_iso_or_equiv
_atom_site_adp_type
_atom_site_occupancy
C1     C     0.49953   0.64115   0.54266   0.00000  Uiso   1.00
C2     C     0.51619   0.64272   0.46319   0.00000  Uiso   1.00
C3     C     0.53690   0.58110   0.42645   0.00000  Uiso   1.00
C4     C     0.54968   0.59424   0.35391   0.00000  Uiso   1.00
C5     C     0.57674   0.58572   0.23577   0.00000  Uiso   1.00
C6     C     0.52315   0.70896   0.58152   0.00000  Uiso   1.00
C7     C     0.54972   0.70303   0.64429   0.00000  Uiso   1.00
C8     C     0.56835   0.77193   0.67136   0.00000  Uiso   1.00
C9     C     0.60619   0.86625   0.73697   0.00000  Uiso   1.00
C10    C     0.44956   0.66283   0.53975   0.00000  Uiso   1.00
C11    C     0.41423   0.61813   0.56742   0.00000  Uiso   1.00
C12    C     0.37090   0.64820   0.55934   0.00000  Uiso   1.00
C13    C     0.29448   0.67090   0.56009   0.00000  Uiso   1.00
C14    C     0.48539   0.77404   0.47915   0.00000  Uiso   1.00
C15    C     0.50851   0.71491   0.42869   0.00000  Uiso   1.00
C16    C     0.52126   0.72814   0.35618   0.00000  Uiso   1.00
C17    C     0.54199   0.66655   0.31935   0.00000  Uiso   1.00
C18    C     0.51548   0.78114   0.54703   0.00000  Uiso   1.00
C19    C     0.53407   0.85007   0.57402   0.00000  Uiso   1.00
C20    C     0.56066   0.84424   0.63680   0.00000  Uiso   1.00
C21    C     0.44188   0.73502   0.50525   0.00000  Uiso   1.00
C22    C     0.39859   0.76516   0.49714   0.00000  Uiso   1.00
C23    C     0.36321   0.72051   0.52478   0.00000  Uiso   1.00
H24    H     0.50551   0.58495   0.56952   0.00000  Uiso   1.00
H25    H     0.54285   0.52525   0.45317   0.00000  Uiso   1.00
H26    H     0.55565   0.64716   0.67097   0.00000  Uiso   1.00
H27    H     0.42019   0.56227   0.59411   0.00000  Uiso   1.00
H28    H     0.58087   0.49091   0.30897   0.00000  Uiso   1.00
H29    H     0.60785   0.74797   0.76823   0.00000  Uiso   1.00
H30    H     0.32221   0.56896   0.60615   0.00000  Uiso   1.00
H31    H     0.47941   0.83025   0.45229   0.00000  Uiso   1.00
H32    H     0.51531   0.78401   0.32950   0.00000  Uiso   1.00
H33    H     0.52812   0.90592   0.54731   0.00000  Uiso   1.00
H34    H     0.39266   0.82102   0.47044   0.00000  Uiso   1.00
H35    H     0.55852   0.70092   0.20860   0.00000  Uiso   1.00
H36    H     0.58551   0.95798   0.66787   0.00000  Uiso   1.00
H37    H     0.29987   0.77897   0.50578   0.00000  Uiso   1.00
O38    O     0.59380   0.56108   0.18014   0.00000  Uiso   1.00
O39    O     0.62920   0.89833   0.78268   0.00000  Uiso   1.00
O40    O     0.25444   0.66347   0.57003   0.00000  Uiso   1.00
N41    N     0.57067   0.54668   0.30219   0.00000  Uiso   1.00
N42    N     0.59591   0.78701   0.73157   0.00000  Uiso   1.00
N43    N     0.32886   0.61966   0.58006   0.00000  Uiso   1.00
N44    N     0.55865   0.65968   0.24819   0.00000  Uiso   1.00
N45    N     0.58389   0.90001   0.67756   0.00000  Uiso   1.00
N46    N     0.31684   0.73266   0.52605   0.00000  Uiso   1.00
C47    C     0.49953   0.14115   0.04266   0.00000  Uiso   1.00
C48    C     0.51619   0.14272   0.96319   0.00000  Uiso   1.00
C49    C     0.53690   0.08110   0.92645   0.00000  Uiso   1.00
C50    C     0.54968   0.09424   0.85391   0.00000  Uiso   1.00
C51    C     0.57674   0.08572   0.73577   0.00000  Uiso   1.00
C52    C     0.52315   0.20896   0.08152   0.00000  Uiso   1.00
C53    C     0.54972   0.20303   0.14429   0.00000  Uiso   1.00
C54    C     0.56835   0.27193   0.17136   0.00000  Uiso   1.00
C55    C     0.60619   0.36625   0.23697   0.00000  Uiso   1.00
C56    C     0.44956   0.16283   0.03975   0.00000  Uiso   1.00
C57    C     0.41423   0.11813   0.06742   0.00000  Uiso   1.00
C58    C     0.37090   0.14820   0.05934   0.00000  Uiso   1.00
C59    C     0.29448   0.17090   0.06009   0.00000  Uiso   1.00
C60    C     0.48539   0.27404   0.97915   0.00000  Uiso   1.00
C61    C     0.50851   0.21491   0.92869   0.00000  Uiso   1.00
C62    C     0.52126   0.22814   0.85618   0.00000  Uiso   1.00
C63    C     0.54199   0.16655   0.81935   0.00000  Uiso   1.00
C64    C     0.51548   0.28114   0.04703   0.00000  Uiso   1.00
C65    C     0.53407   0.35007   0.07402   0.00000  Uiso   1.00
C66    C     0.56066   0.34424   0.13680   0.00000  Uiso   1.00
C67    C     0.44188   0.23502   0.00525   0.00000  Uiso   1.00
C68    C     0.39859   0.26516   0.99714   0.00000  Uiso   1.00
C69    C     0.36321   0.22051   0.02478   0.00000  Uiso   1.00
H70    H     0.50551   0.08495   0.06952   0.00000  Uiso   1.00
H71    H     0.54285   0.02525   0.95317   0.00000  Uiso   1.00
H72    H     0.55565   0.14716   0.17097   0.00000  Uiso   1.00
H73    H     0.42019   0.06227   0.09411   0.00000  Uiso   1.00
H74    H     0.58087   0.99091   0.80897   0.00000  Uiso   1.00
H75    H     0.60785   0.24797   0.26823   0.00000  Uiso   1.00
H76    H     0.32221   0.06896   0.10615   0.00000  Uiso   1.00
H77    H     0.47941   0.33025   0.95229   0.00000  Uiso   1.00
H78    H     0.51531   0.28401   0.82950   0.00000  Uiso   1.00
H79    H     0.52812   0.40592   0.04731   0.00000  Uiso   1.00
H80    H     0.39266   0.32102   0.97044   0.00000  Uiso   1.00
H81    H     0.55852   0.20092   0.70860   0.00000  Uiso   1.00
H82    H     0.58551   0.45798   0.16787   0.00000  Uiso   1.00
H83    H     0.29987   0.27897   0.00578   0.00000  Uiso   1.00
O84    O     0.59380   0.06108   0.68014   0.00000  Uiso   1.00
O85    O     0.62920   0.39833   0.28268   0.00000  Uiso   1.00
O86    O     0.25444   0.16347   0.07003   0.00000  Uiso   1.00
N87    N     0.57067   0.04668   0.80219   0.00000  Uiso   1.00
N88    N     0.59591   0.28701   0.23157   0.00000  Uiso   1.00
N89    N     0.32886   0.11966   0.08006   0.00000  Uiso   1.00
N90    N     0.55865   0.15968   0.74819   0.00000  Uiso   1.00
N91    N     0.58389   0.40001   0.17756   0.00000  Uiso   1.00
N92    N     0.31684   0.23266   0.02605   0.00000  Uiso   1.00
C93    C     0.99953   0.64115   0.04266   0.00000  Uiso   1.00
C94    C     0.01619   0.64272   0.96319   0.00000  Uiso   1.00
C95    C     0.03690   0.58110   0.92645   0.00000  Uiso   1.00
C96    C     0.04968   0.59424   0.85391   0.00000  Uiso   1.00
C97    C     0.07674   0.58572   0.73577   0.00000  Uiso   1.00
C98    C     0.02315   0.70896   0.08152   0.00000  Uiso   1.00
C99    C     0.04972   0.70303   0.14429   0.00000  Uiso   1.00
C100   C     0.06835   0.77193   0.17136   0.00000  Uiso   1.00
C101   C     0.10619   0.86625   0.23697   0.00000  Uiso   1.00
C102   C     0.94956   0.66283   0.03975   0.00000  Uiso   1.00
C103   C     0.91423   0.61813   0.06742   0.00000  Uiso   1.00
C104   C     0.87090   0.64820   0.05934   0.00000  Uiso   1.00
C105   C     0.79448   0.67090   0.06009   0.00000  Uiso   1.00
C106   C     0.98539   0.77404   0.97915   0.00000  Uiso   1.00
C107   C     0.00851   0.71491   0.92869   0.00000  Uiso   1.00
C108   C     0.02126   0.72814   0.85618   0.00000  Uiso   1.00
C109   C     0.04199   0.66655   0.81935   0.00000  Uiso   1.00
C110   C     0.01548   0.78114   0.04703   0.00000  Uiso   1.00
C111   C     0.03407   0.85007   0.07402   0.00000  Uiso   1.00
C112   C     0.06066   0.84424   0.13680   0.00000  Uiso   1.00
C113   C     0.94188   0.73502   0.00525   0.00000  Uiso   1.00
C114   C     0.89859   0.76516   0.99714   0.00000  Uiso   1.00
C115   C     0.86321   0.72051   0.02478   0.00000  Uiso   1.00
H116   H     0.00551   0.58495   0.06952   0.00000  Uiso   1.00
H117   H     0.04285   0.52525   0.95317   0.00000  Uiso   1.00
H118   H     0.05565   0.64716   0.17097   0.00000  Uiso   1.00
H119   H     0.92019   0.56227   0.09411   0.00000  Uiso   1.00
H120   H     0.08087   0.49091   0.80897   0.00000  Uiso   1.00
H121   H     0.10785   0.74797   0.26823   0.00000  Uiso   1.00
H122   H     0.82221   0.56896   0.10615   0.00000  Uiso   1.00
H123   H     0.97941   0.83025   0.95229   0.00000  Uiso   1.00
H124   H     0.01531   0.78401   0.82950   0.00000  Uiso   1.00
H125   H     0.02812   0.90592   0.04731   0.00000  Uiso   1.00
H126   H     0.89266   0.82102   0.97044   0.00000  Uiso   1.00
H127   H     0.05852   0.70092   0.70860   0.00000  Uiso   1.00
H128   H     0.08551   0.95798   0.16787   0.00000  Uiso   1.00
H129   H     0.79987   0.77897   0.00578   0.00000  Uiso   1.00
O130   O     0.09380   0.56108   0.68014   0.00000  Uiso   1.00
O131   O     0.12920   0.89833   0.28268   0.00000  Uiso   1.00
O132   O     0.75444   0.66347   0.07003   0.00000  Uiso   1.00
N133   N     0.07067   0.54668   0.80219   0.00000  Uiso   1.00
N134   N     0.09591   0.78701   0.23157   0.00000  Uiso   1.00
N135   N     0.82886   0.61966   0.08006   0.00000  Uiso   1.00
N136   N     0.05865   0.65968   0.74819   0.00000  Uiso   1.00
N137   N     0.08389   0.90001   0.17756   0.00000  Uiso   1.00
N138   N     0.81684   0.73266   0.02605   0.00000  Uiso   1.00
C139   C     0.99953   0.14115   0.54266   0.00000  Uiso   1.00
C140   C     0.01619   0.14272   0.46319   0.00000  Uiso   1.00
C141   C     0.03690   0.08110   0.42645   0.00000  Uiso   1.00
C142   C     0.04968   0.09424   0.35391   0.00000  Uiso   1.00
C143   C     0.07674   0.08572   0.23577   0.00000  Uiso   1.00
C144   C     0.02315   0.20896   0.58152   0.00000  Uiso   1.00
C145   C     0.04972   0.20303   0.64429   0.00000  Uiso   1.00
C146   C     0.06835   0.27193   0.67136   0.00000  Uiso   1.00
C147   C     0.10619   0.36625   0.73697   0.00000  Uiso   1.00
C148   C     0.94956   0.16283   0.53975   0.00000  Uiso   1.00
C149   C     0.91423   0.11813   0.56742   0.00000  Uiso   1.00
C150   C     0.87090   0.14820   0.55934   0.00000  Uiso   1.00
C151   C     0.79448   0.17090   0.56009   0.00000  Uiso   1.00
C152   C     0.98539   0.27404   0.47915   0.00000  Uiso   1.00
C153   C     0.00851   0.21491   0.42869   0.00000  Uiso   1.00
C154   C     0.02126   0.22814   0.35618   0.00000  Uiso   1.00
C155   C     0.04199   0.16655   0.31935   0.00000  Uiso   1.00
C156   C     0.01548   0.28114   0.54703   0.00000  Uiso   1.00
C157   C     0.03407   0.35007   0.57402   0.00000  Uiso   1.00
C158   C     0.06066   0.34424   0.63680   0.00000  Uiso   1.00
C159   C     0.94188   0.23502   0.50525   0.00000  Uiso   1.00
C160   C     0.89859   0.26516   0.49714   0.00000  Uiso   1.00
C161   C     0.86321   0.22051   0.52478   0.00000  Uiso   1.00
H162   H     0.00551   0.08495   0.56952   0.00000  Uiso   1.00
H163   H     0.04285   0.02525   0.45317   0.00000  Uiso   1.00
H164   H     0.05565   0.14716   0.67097   0.00000  Uiso   1.00
H165   H     0.92019   0.06227   0.59411   0.00000  Uiso   1.00
H166   H     0.08087   0.99091   0.30897   0.00000  Uiso   1.00
H167   H     0.10785   0.24797   0.76823   0.00000  Uiso   1.00
H168   H     0.82221   0.06896   0.60615   0.00000  Uiso   1.00
H169   H     0.97941   0.33025   0.45229   0.00000  Uiso   1.00
H170   H     0.01531   0.28401   0.32950   0.00000  Uiso   1.00
H171   H     0.02812   0.40592   0.54731   0.00000  Uiso   1.00
H172   H     0.89266   0.32102   0.47044   0.00000  Uiso   1.00
H173   H     0.05852   0.20092   0.20860   0.00000  Uiso   1.00
H174   H     0.08551   0.45798   0.66787   0.00000  Uiso   1.00
H175   H     0.79987   0.27897   0.50578   0.00000  Uiso   1.00
O176   O     0.09380   0.06108   0.18014   0.00000  Uiso   1.00
O177   O     0.12920   0.39833   0.78268   0.00000  Uiso   1.00
O178   O     0.75444   0.16347   0.57003   0.00000  Uiso   1.00
N179   N     0.07067   0.04668   0.30219   0.00000  Uiso   1.00
N180   N     0.09591   0.28701   0.73157   0.00000  Uiso   1.00
N181   N     0.82886   0.11966   0.58006   0.00000  Uiso   1.00
N182   N     0.05865   0.15968   0.24819   0.00000  Uiso   1.00
N183   N     0.08389   0.40001   0.67756   0.00000  Uiso   1.00
N184   N     0.81684   0.23266   0.52605   0.00000  Uiso   1.00
C185   C     0.50047   0.35885   0.54266   0.00000  Uiso   1.00
C186   C     0.48381   0.35728   0.46319   0.00000  Uiso   1.00
C187   C     0.46310   0.41890   0.42645   0.00000  Uiso   1.00
C188   C     0.45032   0.40576   0.35391   0.00000  Uiso   1.00
C189   C     0.42326   0.41428   0.23577   0.00000  Uiso   1.00
C190   C     0.47685   0.29104   0.58152   0.00000  Uiso   1.00
C191   C     0.45028   0.29697   0.64429   0.00000  Uiso   1.00
C192   C     0.43165   0.22807   0.67136   0.00000  Uiso   1.00
C193   C     0.39381   0.13375   0.73697   0.00000  Uiso   1.00
C194   C     0.55044   0.33717   0.53975   0.00000  Uiso   1.00
C195   C     0.58577   0.38187   0.56742   0.00000  Uiso   1.00
C196   C     0.62910   0.35180   0.55934   0.00000  Uiso   1.00
C197   C     0.70552   0.32910   0.56009   0.00000  Uiso   1.00
C198   C     0.51461   0.22596   0.47915   0.00000  Uiso   1.00
C199   C     0.49149   0.28509   0.42869   0.00000  Uiso   1.00
C200   C     0.47874   0.27186   0.35618   0.00000  Uiso   1.00
C201   C     0.45801   0.33345   0.31935   0.00000  Uiso   1.00
C202   C     0.48452   0.21886   0.54703   0.00000  Uiso   1.00
C203   C     0.46593   0.14993   0.57402   0.00000  Uiso   1.00
C204   C     0.43934   0.15576   0.63680   0.00000  Uiso   1.00
C205   C     0.55812   0.26498   0.50525   0.00000  Uiso   1.00
C206   C     0.60141   0.23484   0.49714   0.00000  Uiso   1.00
C207   C     0.63679   0.27949   0.52478   0.00000  Uiso   1.00
H208   H     0.49449   0.41505   0.56952   0.00000  Uiso   1.00
H209   H     0.45715   0.47475   0.45317   0.00000  Uiso   1.00
H210   H     0.44435   0.35284   0.67097   0.00000  Uiso   1.00
H211   H     0.57981   0.43773   0.59411   0.00000  Uiso   1.00
H212   H     0.41913   0.50909   0.30897   0.00000  Uiso   1.00
H213   H     0.39215   0.25203   0.76823   0.00000  Uiso   1.00
H214   H     0.67779   0.43104   0.60615   0.00000  Uiso   1.00
H215   H     0.52059   0.16975   0.45229   0.00000  Uiso   1.00
H216   H     0.48469   0.21599   0.32950   0.00000  Uiso   1.00
H217   H     0.47188   0.09408   0.54731   0.00000  Uiso   1.00
H218   H     0.60734   0.17898   0.47044   0.00000  Uiso   1.00
H219   H     0.44148   0.29908   0.20860   0.00000  Uiso   1.00
H220   H     0.41449   0.04202   0.66787   0.00000  Uiso   1.00
H221   H     0.70013   0.22103   0.50578   0.00000  Uiso   1.00
O222   O     0.40620   0.43892   0.18014   0.00000  Uiso   1.00
O223   O     0.37080   0.10167   0.78268   0.00000  Uiso   1.00
O224   O     0.74556   0.33653   0.57003   0.00000  Uiso   1.00
N225   N     0.42933   0.45332   0.30219   0.00000  Uiso   1.00
N226   N     0.40409   0.21299   0.73157   0.00000  Uiso   1.00
N227   N     0.67114   0.38034   0.58006   0.00000  Uiso   1.00
N228   N     0.44135   0.34032   0.24819   0.00000  Uiso   1.00
N229   N     0.41611   0.09999   0.67756   0.00000  Uiso   1.00
N230   N     0.68316   0.26734   0.52605   0.00000  Uiso   1.00
C231   C     0.50047   0.85885   0.04266   0.00000  Uiso   1.00
C232   C     0.48381   0.85728   0.96319   0.00000  Uiso   1.00
C233   C     0.46310   0.91890   0.92645   0.00000  Uiso   1.00
C234   C     0.45032   0.90576   0.85391   0.00000  Uiso   1.00
C235   C     0.42326   0.91428   0.73577   0.00000  Uiso   1.00
C236   C     0.47685   0.79104   0.08152   0.00000  Uiso   1.00
C237   C     0.45028   0.79697   0.14429   0.00000  Uiso   1.00
C238   C     0.43165   0.72807   0.17136   0.00000  Uiso   1.00
C239   C     0.39381   0.63375   0.23697   0.00000  Uiso   1.00
C240   C     0.55044   0.83717   0.03975   0.00000  Uiso   1.00
C241   C     0.58577   0.88187   0.06742   0.00000  Uiso   1.00
C242   C     0.62910   0.85180   0.05934   0.00000  Uiso   1.00
C243   C     0.70552   0.82910   0.06009   0.00000  Uiso   1.00
C244   C     0.51461   0.72596   0.97915   0.00000  Uiso   1.00
C245   C     0.49149   0.78509   0.92869   0.00000  Uiso   1.00
C246   C     0.47874   0.77186   0.85618   0.00000  Uiso   1.00
C247   C     0.45801   0.83345   0.81935   0.00000  Uiso   1.00
C248   C     0.48452   0.71886   0.04703   0.00000  Uiso   1.00
C249   C     0.46593   0.64993   0.07402   0.00000  Uiso   1.00
C250   C     0.43934   0.65576   0.13680   0.00000  Uiso   1.00
C251   C     0.55812   0.76498   0.00525   0.00000  Uiso   1.00
C252   C     0.60141   0.73484   0.99714   0.00000  Uiso   1.00
C253   C     0.63679   0.77949   0.02478   0.00000  Uiso   1.00
H254   H     0.49449   0.91505   0.06952   0.00000  Uiso   1.00
H255   H     0.45715   0.97475   0.95317   0.00000  Uiso   1.00
H256   H     0.44435   0.85284   0.17097   0.00000  Uiso   1.00
H257   H     0.57981   0.93773   0.09411   0.00000  Uiso   1.00
H258   H     0.41913   0.00909   0.80897   0.00000  Uiso   1.00
H259   H     0.39215   0.75203   0.26823   0.00000  Uiso   1.00
H260   H     0.67779   0.93104   0.10615   0.00000  Uiso   1.00
H261   H     0.52059   0.66975   0.95229   0.00000  Uiso   1.00
H262   H     0.48469   0.71599   0.82950   0.00000  Uiso   1.00
H263   H     0.47188   0.59408   0.04731   0.00000  Uiso   1.00
H264   H     0.60734   0.67898   0.97044   0.00000  Uiso   1.00
H265   H     0.44148   0.79908   0.70860   0.00000  Uiso   1.00
H266   H     0.41449   0.54202   0.16787   0.00000  Uiso   1.00
H267   H     0.70013   0.72103   0.00578   0.00000  Uiso   1.00
O268   O     0.40620   0.93892   0.68014   0.00000  Uiso   1.00
O269   O     0.37080   0.60167   0.28268   0.00000  Uiso   1.00
O270   O     0.74556   0.83653   0.07003   0.00000  Uiso   1.00
N271   N     0.42933   0.95332   0.80219   0.00000  Uiso   1.00
N272   N     0.40409   0.71299   0.23157   0.00000  Uiso   1.00
N273   N     0.67114   0.88034   0.08006   0.00000  Uiso   1.00
N274   N     0.44135   0.84032   0.74819   0.00000  Uiso   1.00
N275   N     0.41611   0.59999   0.17756   0.00000  Uiso   1.00
N276   N     0.68316   0.76734   0.02605   0.00000  Uiso   1.00
C277   C     0.00047   0.35885   0.04266   0.00000  Uiso   1.00
C278   C     0.98381   0.35728   0.96319   0.00000  Uiso   1.00
C279   C     0.96310   0.41890   0.92645   0.00000  Uiso   1.00
C280   C     0.95032   0.40576   0.85391   0.00000  Uiso   1.00
C281   C     0.92326   0.41428   0.73577   0.00000  Uiso   1.00
C282   C     0.97685   0.29104   0.08152   0.00000  Uiso   1.00
C283   C     0.95028   0.29697   0.14429   0.00000  Uiso   1.00
C284   C     0.93165   0.22807   0.17136   0.00000  Uiso   1.00
C285   C     0.89381   0.13375   0.23697   0.00000  Uiso   1.00
C286   C     0.05044   0.33717   0.03975   0.00000  Uiso   1.00
C287   C     0.08577   0.38187   0.06742   0.00000  Uiso   1.00
C288   C     0.12910   0.35180   0.05934   0.00000  Uiso   1.00
C289   C     0.20552   0.32910   0.06009   0.00000  Uiso   1.00
C290   C     0.01461   0.22596   0.97915   0.00000  Uiso   1.00
C291   C     0.99149   0.28509   0.92869   0.00000  Uiso   1.00
C292   C     0.97874   0.27186   0.85618   0.00000  Uiso   1.00
C293   C     0.95801   0.33345   0.81935   0.00000  Uiso   1.00
C294   C     0.98452   0.21886   0.04703   0.00000  Uiso   1.00
C295   C     0.96593   0.14993   0.07402   0.00000  Uiso   1.00
C296   C     0.93934   0.15576   0.13680   0.00000  Uiso   1.00
C297   C     0.05812   0.26498   0.00525   0.00000  Uiso   1.00
C298   C     0.10141   0.23484   0.99714   0.00000  Uiso   1.00
C299   C     0.13679   0.27949   0.02478   0.00000  Uiso   1.00
H300   H     0.99449   0.41505   0.06952   0.00000  Uiso   1.00
H301   H     0.95715   0.47475   0.95317   0.00000  Uiso   1.00
H302   H     0.94435   0.35284   0.17097   0.00000  Uiso   1.00
H303   H     0.07981   0.43773   0.09411   0.00000  Uiso   1.00
H304   H     0.91913   0.50909   0.80897   0.00000  Uiso   1.00
H305   H     0.89215   0.25203   0.26823   0.00000  Uiso   1.00
H306   H     0.17779   0.43104   0.10615   0.00000  Uiso   1.00
H307   H     0.02059   0.16975   0.95229   0.00000  Uiso   1.00
H308   H     0.98469   0.21599   0.82950   0.00000  Uiso   1.00
H309   H     0.97188   0.09408   0.04731   0.00000  Uiso   1.00
H310   H     0.10734   0.17898   0.97044   0.00000  Uiso   1.00
H311   H     0.94148   0.29908   0.70860   0.00000  Uiso   1.00
H312   H     0.91449   0.04202   0.16787   0.00000  Uiso   1.00
H313   H     0.20013   0.22103   0.00578   0.00000  Uiso   1.00
O314   O     0.90620   0.43892   0.68014   0.00000  Uiso   1.00
O315   O     0.87080   0.10167   0.28268   0.00000  Uiso   1.00
O316   O     0.24556   0.33653   0.07003   0.00000  Uiso   1.00
N317   N     0.92933   0.45332   0.80219   0.00000  Uiso   1.00
N318   N     0.90409   0.21299   0.23157   0.00000  Uiso   1.00
N319   N     0.17114   0.38034   0.08006   0.00000  Uiso   1.00
N320   N     0.94135   0.34032   0.74819   0.00000  Uiso   1.00
N321   N     0.91611   0.09999   0.17756   0.00000  Uiso   1.00
N322   N     0.18316   0.26734   0.02605   0.00000  Uiso   1.00
C323   C     0.00047   0.85885   0.54266   0.00000  Uiso   1.00
C324   C     0.98381   0.85728   0.46319   0.00000  Uiso   1.00
C325   C     0.96310   0.91890   0.42645   0.00000  Uiso   1.00
C326   C     0.95032   0.90576   0.35391   0.00000  Uiso   1.00
C327   C     0.92326   0.91428   0.23577   0.00000  Uiso   1.00
C328   C     0.97685   0.79104   0.58152   0.00000  Uiso   1.00
C329   C     0.95028   0.79697   0.64429   0.00000  Uiso   1.00
C330   C     0.93165   0.72807   0.67136   0.00000  Uiso   1.00
C331   C     0.89381   0.63375   0.73697   0.00000  Uiso   1.00
C332   C     0.05044   0.83717   0.53975   0.00000  Uiso   1.00
C333   C     0.08577   0.88187   0.56742   0.00000  Uiso   1.00
C334   C     0.12910   0.85180   0.55934   0.00000  Uiso   1.00
C335   C     0.20552   0.82910   0.56009   0.00000  Uiso   1.00
C336   C     0.01461   0.72596   0.47915   0.00000  Uiso   1.00
C337   C     0.99149   0.78509   0.42869   0.00000  Uiso   1.00
C338   C     0.97874   0.77186   0.35618   0.00000  Uiso   1.00
C339   C     0.95801   0.83345   0.31935   0.00000  Uiso   1.00
C340   C     0.98452   0.71886   0.54703   0.00000  Uiso   1.00
C341   C     0.96593   0.64993   0.57402   0.00000  Uiso   1.00
C342   C     0.93934   0.65576   0.63680   0.00000  Uiso   1.00
C343   C     0.05812   0.76498   0.50525   0.00000  Uiso   1.00
C344   C     0.10141   0.73484   0.49714   0.00000  Uiso   1.00
C345   C     0.13679   0.77949   0.52478   0.00000  Uiso   1.00
H346   H     0.99449   0.91505   0.56952   0.00000  Uiso   1.00
H347   H     0.95715   0.97475   0.45317   0.00000  Uiso   1.00
H348   H     0.94435   0.85284   0.67097   0.00000  Uiso   1.00
H349   H     0.07981   0.93773   0.59411   0.00000  Uiso   1.00
H350   H     0.91913   0.00909   0.30897   0.00000  Uiso   1.00
H351   H     0.89215   0.75203   0.76823   0.00000  Uiso   1.00
H352   H     0.17779   0.93104   0.60615   0.00000  Uiso   1.00
H353   H     0.02059   0.66975   0.45229   0.00000  Uiso   1.00
H354   H     0.98469   0.71599   0.32950   0.00000  Uiso   1.00
H355   H     0.97188   0.59408   0.54731   0.00000  Uiso   1.00
H356   H     0.10734   0.67898   0.47044   0.00000  Uiso   1.00
H357   H     0.94148   0.79908   0.20860   0.00000  Uiso   1.00
H358   H     0.91449   0.54202   0.66787   0.00000  Uiso   1.00
H359   H     0.20013   0.72103   0.50578   0.00000  Uiso   1.00
O360   O     0.90620   0.93892   0.18014   0.00000  Uiso   1.00
O361   O     0.87080   0.60167   0.78268   0.00000  Uiso   1.00
O362   O     0.24556   0.83653   0.57003   0.00000  Uiso   1.00
N363   N     0.92933   0.95332   0.30219   0.00000  Uiso   1.00
N364   N     0.90409   0.71299   0.73157   0.00000  Uiso   1.00
N365   N     0.17114   0.88034   0.58006   0.00000  Uiso   1.00
N366   N     0.94135   0.84032   0.24819   0.00000  Uiso   1.00
N367   N     0.91611   0.59999   0.67756   0.00000  Uiso   1.00
N368   N     0.18316   0.76734   0.52605   0.00000  Uiso   1.00
C369   C     0.74953   0.60885   0.79266   0.00000  Uiso   1.00
C370   C     0.76619   0.60728   0.71319   0.00000  Uiso   1.00
C371   C     0.78690   0.66890   0.67645   0.00000  Uiso   1.00
C372   C     0.79968   0.65576   0.60391   0.00000  Uiso   1.00
C373   C     0.82674   0.66428   0.48577   0.00000  Uiso   1.00
C374   C     0.77315   0.54104   0.83152   0.00000  Uiso   1.00
C375   C     0.79972   0.54697   0.89429   0.00000  Uiso   1.00
C376   C     0.81835   0.47807   0.92136   0.00000  Uiso   1.00
C377   C     0.85619   0.38375   0.98697   0.00000  Uiso   1.00
C378   C     0.69956   0.58717   0.78975   0.00000  Uiso   1.00
C379   C     0.66423   0.63187   0.81742   0.00000  Uiso   1.00
C380   C     0.62090   0.60180   0.80934   0.00000  Uiso   1.00
C381   C     0.54448   0.57910   0.81009   0.00000  Uiso   1.00
C382   C     0.73539   0.47596   0.72915   0.00000  Uiso   1.00
C383   C     0.75851   0.53509   0.67869   0.00000  Uiso   1.00
C384   C     0.77126   0.52186   0.60618   0.00000  Uiso   1.00
C385   C     0.79199   0.58345   0.56935   0.00000  Uiso   1.00
C386   C     0.76548   0.46886   0.79703   0.00000  Uiso   1.00
C387   C     0.78407   0.39993   0.82402   0.00000  Uiso   1.00
C388   C     0.81066   0.40576   0.88680   0.00000  Uiso   1.00
C389   C     0.69188   0.51498   0.75525   0.00000  Uiso   1.00
C390   C     0.64859   0.48484   0.74714   0.00000  Uiso   1.00
C391   C     0.61321   0.52949   0.77478   0.00000  Uiso   1.00
H392   H     0.75551   0.66505   0.81952   0.00000  Uiso   1.00
H393   H     0.79285   0.72475   0.70317   0.00000  Uiso   1.00
H394   H     0.80565   0.60284   0.92097   0.00000  Uiso   1.00
H395   H     0.67019   0.68773   0.84411   0.00000  Uiso   1.00
H396   H     0.83087   0.75909   0.55897   0.00000  Uiso   1.00
H397   H     0.85785   0.50203   0.01823   0.00000  Uiso   1.00
H398   H     0.57221   0.68104   0.85615   0.00000  Uiso   1.00
H399   H     0.72941   0.41975   0.70229   0.00000  Uiso   1.00
H400   H     0.76531   0.46599   0.57950   0.00000  Uiso   1.00
H401   H     0.77812   0.34408   0.79731   0.00000  Uiso   1.00
H402   H     0.64266   0.42898   0.72044   0.00000  Uiso   1.00
H403   H     0.80852   0.54908   0.45860   0.00000  Uiso   1.00
H404   H     0.83551   0.29202   0.91787   0.00000  Uiso   1.00
H405   H     0.54987   0.47103   0.75578   0.00000  Uiso   1.00
O406   O     0.84380   0.68892   0.43014   0.00000  Uiso   1.00
O407   O     0.87920   0.35167   0.03268   0.00000  Uiso   1.00
O408   O     0.50444   0.58653   0.82003   0.00000  Uiso   1.00
N409   N     0.82067   0.70332   0.55219   0.00000  Uiso   1.00
N410   N     0.84591   0.46299   0.98157   0.00000  Uiso   1.00
N411   N     0.57886   0.63034   0.83006   0.00000  Uiso   1.00
N412   N     0.80865   0.59032   0.49819   0.00000  Uiso   1.00
N413   N     0.83389   0.34999   0.92756   0.00000  Uiso   1.00
N414   N     0.56684   0.51734   0.77605   0.00000  Uiso   1.00
C415   C     0.74953   0.10885   0.29266   0.00000  Uiso   1.00
C416   C     0.76619   0.10728   0.21319   0.00000  Uiso   1.00
C417   C     0.78690   0.16890   0.17645   0.00000  Uiso   1.00
C418   C     0.79968   0.15576   0.10391   0.00000  Uiso   1.00
C419   C     0.82674   0.16428   0.98577   0.00000  Uiso   1.00
C420   C     0.77315   0.04104   0.33152   0.00000  Uiso   1.00
C421   C     0.79972   0.04697   0.39429   0.00000  Uiso   1.00
C422   C     0.81835   0.97807   0.42136   0.00000  Uiso   1.00
C423   C     0.85619   0.88375   0.48697   0.00000  Uiso   1.00
C424   C     0.69956   0.08717   0.28975   0.00000  Uiso   1.00
C425   C     0.66423   0.13187   0.31742   0.00000  Uiso   1.00
C426   C     0.62090   0.10180   0.30934   0.00000  Uiso   1.00
C427   C     0.54448   0.07910   0.31009   0.00000  Uiso   1.00
C428   C     0.73539   0.97596   0.22915   0.00000  Uiso   1.00
C429   C     0.75851   0.03509   0.17869   0.00000  Uiso   1.00
C430   C     0.77126   0.02186   0.10618   0.00000  Uiso   1.00
C431   C     0.79199   0.08345   0.06935   0.00000  Uiso   1.00
C432   C     0.76548   0.96886   0.29703   0.00000  Uiso   1.00
C433   C     0.78407   0.89993   0.32402   0.00000  Uiso   1.00
C434   C     0.81066   0.90576   0.38680   0.00000  Uiso   1.00
C435   C     0.69188   0.01498   0.25525   0.00000  Uiso   1.00
C436   C     0.64859   0.98484   0.24714   0.00000  Uiso   1.00
C437   C     0.61321   0.02949   0.27478   0.00000  Uiso   1.00
H438   H     0.75551   0.16505   0.31952   0.00000  Uiso   1.00
H439   H     0.79285   0.22475   0.20317   0.00000  Uiso   1.00
H440   H     0.80565   0.10284   0.42097   0.00000  Uiso   1.00
H441   H     0.67019   0.18773   0.34411   0.00000  Uiso   1.00
H442   H     0.83087   0.25909   0.05897   0.00000  Uiso   1.00
H443   H     0.85785   0.00203   0.51823   0.00000  Uiso   1.00
H444   H     0.57221   0.18104   0.35615   0.00000  Uiso   1.00
H445   H     0.72941   0.91975   0.20229   0.00000  Uiso   1.00
H446   H     0.76531   0.96599   0.07950   0.00000  Uiso   1.00
H447   H     0.77812   0.84408   0.29731   0.00000  Uiso   1.00
H448   H     0.64266   0.92898   0.22044   0.00000  Uiso   1.00
H449   H     0.80852   0.04908   0.95860   0.00000  Uiso   1.00
H450   H     0.83551   0.79202   0.41787   0.00000  Uiso   1.00
H451   H     0.54987   0.97103   0.25578   0.00000  Uiso   1.00
O452   O     0.84380   0.18892   0.93014   0.00000  Uiso   1.00
O453   O     0.87920   0.85167   0.53268   0.00000  Uiso   1.00
O454   O     0.50444   0.08653   0.32003   0.00000  Uiso   1.00
N455   N     0.82067   0.20332   0.05219   0.00000  Uiso   1.00
N456   N     0.84591   0.96299   0.48157   0.00000  Uiso   1.00
N457   N     0.57886   0.13034   0.33006   0.00000  Uiso   1.00
N458   N     0.80865   0.09032   0.99819   0.00000  Uiso   1.00
N459   N     0.83389   0.84999   0.42756   0.00000  Uiso   1.00
N460   N     0.56684   0.01734   0.27605   0.00000  Uiso   1.00
C461   C     0.24953   0.60885   0.29266   0.00000  Uiso   1.00
C462   C     0.26619   0.60728   0.21319   0.00000  Uiso   1.00
C463   C     0.28690   0.66890   0.17645   0.00000  Uiso   1.00
C464   C     0.29968   0.65576   0.10391   0.00000  Uiso   1.00
C465   C     0.32674   0.66428   0.98577   0.00000  Uiso   1.00
C466   C     0.27315   0.54104   0.33152   0.00000  Uiso   1.00
C467   C     0.29972   0.54697   0.39429   0.00000  Uiso   1.00
C468   C     0.31835   0.47807   0.42136   0.00000  Uiso   1.00
C469   C     0.35619   0.38375   0.48697   0.00000  Uiso   1.00
C470   C     0.19956   0.58717   0.28975   0.00000  Uiso   1.00
C471   C     0.16423   0.63187   0.31742   0.00000  Uiso   1.00
C472   C     0.12090   0.60180   0.30934   0.00000  Uiso   1.00
C473   C     0.04448   0.57910   0.31009   0.00000  Uiso   1.00
C474   C     0.23539   0.47596   0.22915   0.00000  Uiso   1.00
C475   C     0.25851   0.53509   0.17869   0.00000  Uiso   1.00
C476   C     0.27126   0.52186   0.10618   0.00000  Uiso   1.00
C477   C     0.29199   0.58345   0.06935   0.00000  Uiso   1.00
C478   C     0.26548   0.46886   0.29703   0.00000  Uiso   1.00
C479   C     0.28407   0.39993   0.32402   0.00000  Uiso   1.00
C480   C     0.31066   0.40576   0.38680   0.00000  Uiso   1.00
C481   C     0.19188   0.51498   0.25525   0.00000  Uiso   1.00
C482   C     0.14859   0.48484   0.24714   0.00000  Uiso   1.00
C483   C     0.11321   0.52949   0.27478   0.00000  Uiso   1.00
H484   H     0.25551   0.66505   0.31952   0.00000  Uiso   1.00
H485   H     0.29285   0.72475   0.20317   0.00000  Uiso   1.00
H486   H     0.30565   0.60284   0.42097   0.00000  Uiso   1.00
H487   H     0.17019   0.68773   0.34411   0.00000  Uiso   1.00
H488   H     0.33087   0.75909   0.05897   0.00000  Uiso   1.00
H489   H     0.35785   0.50203   0.51823   0.00000  Uiso   1.00
H490   H     0.07221   0.68104   0.35615   0.00000  Uiso   1.00
H491   H     0.22941   0.41975   0.20229   0.00000  Uiso   1.00
H492   H     0.26531   0.46599   0.07950   0.00000  Uiso   1.00
H493   H     0.27812   0.34408   0.29731   0.00000  Uiso   1.00
H494   H     0.14266   0.42898   0.22044   0.00000  Uiso   1.00
H495   H     0.30852   0.54908   0.95860   0.00000  Uiso   1.00
H496   H     0.33551   0.29202   0.41787   0.00000  Uiso   1.00
H497   H     0.04987   0.47103   0.25578   0.00000  Uiso   1.00
O498   O     0.34380   0.68892   0.93014   0.00000  Uiso   1.00
O499   O     0.37920   0.35167   0.53268   0.00000  Uiso   1.00
O500   O     0.00444   0.58653   0.32003   0.00000  Uiso   1.00
N501   N     0.32067   0.70332   0.05219   0.00000  Uiso   1.00
N502   N     0.34591   0.46299   0.48157   0.00000  Uiso   1.00
N503   N     0.07886   0.63034   0.33006   0.00000  Uiso   1.00
N504   N     0.30865   0.59032   0.99819   0.00000  Uiso   1.00
N505   N     0.33389   0.34999   0.42756   0.00000  Uiso   1.00
N506   N     0.06684   0.51734   0.27605   0.00000  Uiso   1.00
C507   C     0.24953   0.10885   0.79266   0.00000  Uiso   1.00
C508   C     0.26619   0.10728   0.71319   0.00000  Uiso   1.00
C509   C     0.28690   0.16890   0.67645   0.00000  Uiso   1.00
C510   C     0.29968   0.15576   0.60391   0.00000  Uiso   1.00
C511   C     0.32674   0.16428   0.48577   0.00000  Uiso   1.00
C512   C     0.27315   0.04104   0.83152   0.00000  Uiso   1.00
C513   C     0.29972   0.04697   0.89429   0.00000  Uiso   1.00
C514   C     0.31835   0.97807   0.92136   0.00000  Uiso   1.00
C515   C     0.35619   0.88375   0.98697   0.00000  Uiso   1.00
C516   C     0.19956   0.08717   0.78975   0.00000  Uiso   1.00
C517   C     0.16423   0.13187   0.81742   0.00000  Uiso   1.00
C518   C     0.12090   0.10180   0.80934   0.00000  Uiso   1.00
C519   C     0.04448   0.07910   0.81009   0.00000  Uiso   1.00
C520   C     0.23539   0.97596   0.72915   0.00000  Uiso   1.00
C521   C     0.25851   0.03509   0.67869   0.00000  Uiso   1.00
C522   C     0.27126   0.02186   0.60618   0.00000  Uiso   1.00
C523   C     0.29199   0.08345   0.56935   0.00000  Uiso   1.00
C524   C     0.26548   0.96886   0.79703   0.00000  Uiso   1.00
C525   C     0.28407   0.89993   0.82402   0.00000  Uiso   1.00
C526   C     0.31066   0.90576   0.88680   0.00000  Uiso   1.00
C527   C     0.19188   0.01498   0.75525   0.00000  Uiso   1.00
C528   C     0.14859   0.98484   0.74714   0.00000  Uiso   1.00
C529   C     0.11321   0.02949   0.77478   0.00000  Uiso   1.00
H530   H     0.25551   0.16505   0.81952   0.00000  Uiso   1.00
H531   H     0.29285   0.22475   0.70317   0.00000  Uiso   1.00
H532   H     0.30565   0.10284   0.92097   0.00000  Uiso   1.00
H533   H     0.17019   0.18773   0.84411   0.00000  Uiso   1.00
H534   H     0.33087   0.25909   0.55897   0.00000  Uiso   1.00
H535   H     0.35785   0.00203   0.01823   0.00000  Uiso   1.00
H536   H     0.07221   0.18104   0.85615   0.00000  Uiso   1.00
H537   H     0.22941   0.91975   0.70229   0.00000  Uiso   1.00
H538   H     0.26531   0.96599   0.57950   0.00000  Uiso   1.00
H539   H     0.27812   0.84408   0.79731   0.00000  Uiso   1.00
H540   H     0.14266   0.92898   0.72044   0.00000  Uiso   1.00
H541   H     0.30852   0.04908   0.45860   0.00000  Uiso   1.00
H542   H     0.33551   0.79202   0.91787   0.00000  Uiso   1.00
H543   H     0.04987   0.97103   0.75578   0.00000  Uiso   1.00
O544   O     0.34380   0.18892   0.43014   0.00000  Uiso   1.00
O545   O     0.37920   0.85167   0.03268   0.00000  Uiso   1.00
O546   O     0.00444   0.08653   0.82003   0.00000  Uiso   1.00
N547   N     0.32067   0.20332   0.55219   0.00000  Uiso   1.00
N548   N     0.34591   0.96299   0.98157   0.00000  Uiso   1.00
N549   N     0.07886   0.13034   0.83006   0.00000  Uiso   1.00
N550   N     0.30865   0.09032   0.49819   0.00000  Uiso   1.00
N551   N     0.33389   0.84999   0.92756   0.00000  Uiso   1.00
N552   N     0.06684   0.01734   0.77605   0.00000  Uiso   1.00
C553   C     0.75047   0.89115   0.79266   0.00000  Uiso   1.00
C554   C     0.73381   0.89272   0.71319   0.00000  Uiso   1.00
C555   C     0.71310   0.83110   0.67645   0.00000  Uiso   1.00
C556   C     0.70032   0.84424   0.60391   0.00000  Uiso   1.00
C557   C     0.67326   0.83572   0.48577   0.00000  Uiso   1.00
C558   C     0.72685   0.95896   0.83152   0.00000  Uiso   1.00
C559   C     0.70028   0.95303   0.89429   0.00000  Uiso   1.00
C560   C     0.68165   0.02193   0.92136   0.00000  Uiso   1.00
C561   C     0.64381   0.11625   0.98697   0.00000  Uiso   1.00
C562   C     0.80044   0.91283   0.78975   0.00000  Uiso   1.00
C563   C     0.83577   0.86813   0.81742   0.00000  Uiso   1.00
C564   C     0.87910   0.89820   0.80934   0.00000  Uiso   1.00
C565   C     0.95552   0.92090   0.81009   0.00000  Uiso   1.00
C566   C     0.76461   0.02404   0.72915   0.00000  Uiso   1.00
C567   C     0.74149   0.96491   0.67869   0.00000  Uiso   1.00
C568   C     0.72874   0.97814   0.60618   0.00000  Uiso   1.00
C569   C     0.70801   0.91655   0.56935   0.00000  Uiso   1.00
C570   C     0.73452   0.03114   0.79703   0.00000  Uiso   1.00
C571   C     0.71593   0.10007   0.82402   0.00000  Uiso   1.00
C572   C     0.68934   0.09424   0.88680   0.00000  Uiso   1.00
C573   C     0.80812   0.98502   0.75525   0.00000  Uiso   1.00
C574   C     0.85141   0.01516   0.74714   0.00000  Uiso   1.00
C575   C     0.88679   0.97051   0.77478   0.00000  Uiso   1.00
H576   H     0.74449   0.83495   0.81952   0.00000  Uiso   1.00
H577   H     0.70715   0.77525   0.70317   0.00000  Uiso   1.00
H578   H     0.69435   0.89716   0.92097   0.00000  Uiso   1.00
H579   H     0.82981   0.81227   0.84411   0.00000  Uiso   1.00
H580   H     0.66913   0.74091   0.55897   0.00000  Uiso   1.00
H581   H     0.64215   0.99797   0.01823   0.00000  Uiso   1.00
H582   H     0.92779   0.81896   0.85615   0.00000  Uiso   1.00
H583   H     0.77059   0.08025   0.70229   0.00000  Uiso   1.00
H584   H     0.73469   0.03401   0.57950   0.00000  Uiso   1.00
H585   H     0.72188   0.15592   0.79731   0.00000  Uiso   1.00
H586   H     0.85734   0.07102   0.72044   0.00000  Uiso   1.00
H587   H     0.69148   0.95092   0.45860   0.00000  Uiso   1.00
H588   H     0.66449   0.20798   0.91787   0.00000  Uiso   1.00
H589   H     0.95013   0.02897   0.75578   0.00000  Uiso   1.00
O590   O     0.65620   0.81108   0.43014   0.00000  Uiso   1.00
O591   O     0.62080   0.14833   0.03268   0.00000  Uiso   1.00
O592   O     0.99556   0.91347   0.82003   0.00000  Uiso   1.00
N593   N     0.67933   0.79668   0.55219   0.00000  Uiso   1.00
N594   N     0.65409   0.03701   0.98157   0.00000  Uiso   1.00
N595   N     0.92114   0.86966   0.83006   0.00000  Uiso   1.00
N596   N     0.69135   0.90968   0.49819   0.00000  Uiso   1.00
N597   N     0.66611   0.15001   0.92756   0.00000  Uiso   1.00
N598   N     0.93316   0.98266   0.77605   0.00000  Uiso   1.00
C599   C     0.75047   0.39115   0.29266   0.00000  Uiso   1.00
C600   C     0.73381   0.39272   0.21319   0.00000  Uiso   1.00
C601   C     0.71310   0.33110   0.17645   0.00000  Uiso   1.00
C602   C     0.70032   0.34424   0.10391   0.00000  Uiso   1.00
C603   C     0.67326   0.33572   0.98577   0.00000  Uiso   1.00
C604   C     0.72685   0.45896   0.33152   0.00000  Uiso   1.00
C605   C     0.70028   0.45303   0.39429   0.00000  Uiso   1.00
C606   C     0.68165   0.52193   0.42136   0.00000  Uiso   1.00
C607   C     0.64381   0.61625   0.48697   0.00000  Uiso   1.00
C608   C     0.80044   0.41283   0.28975   0.00000  Uiso   1.00
C609   C     0.83577   0.36813   0.31742   0.00000  Uiso   1.00
C610   C     0.87910   0.39820   0.30934   0.00000  Uiso   1.00
C611   C     0.95552   0.42090   0.31009   0.00000  Uiso   1.00
C612   C     0.76461   0.52404   0.22915   0.00000  Uiso   1.00
C613   C     0.74149   0.46491   0.17869   0.00000  Uiso   1.00
C614   C     0.72874   0.47814   0.10618   0.00000  Uiso   1.00
C615   C     0.70801   0.41655   0.06935   0.00000  Uiso   1.00
C616   C     0.73452   0.53114   0.29703   0.00000  Uiso   1.00
C617   C     0.71593   0.60007   0.32402   0.00000  Uiso   1.00
C618   C     0.68934   0.59424   0.38680   0.00000  Uiso   1.00
C619   C     0.80812   0.48502   0.25525   0.00000  Uiso   1.00
C620   C     0.85141   0.51516   0.24714   0.00000  Uiso   1.00
C621   C     0.88679   0.47051   0.27478   0.00000  Uiso   1.00
H622   H     0.74449   0.33495   0.31952   0.00000  Uiso   1.00
H623   H     0.70715   0.27525   0.20317   0.00000  Uiso   1.00
H624   H     0.69435   0.39716   0.42097   0.00000  Uiso   1.00
H625   H     0.82981   0.31227   0.34411   0.00000  Uiso   1.00
H626   H     0.66913   0.24091   0.05897   0.00000  Uiso   1.00
H627   H     0.64215   0.49797   0.51823   0.00000  Uiso   1.00
H628   H     0.92779   0.31896   0.35615   0.00000  Uiso   1.00
H629   H     0.77059   0.58025   0.20229   0.00000  Uiso   1.00
H630   H     0.73469   0.53401   0.07950   0.00000  Uiso   1.00
H631   H     0.72188   0.65592   0.29731   0.00000  Uiso   1.00
H632   H     0.85734   0.57102   0.22044   0.00000  Uiso   1.00
H633   H     0.69148   0.45092   0.95860   0.00000  Uiso   1.00
H634   H     0.66449   0.70798   0.41787   0.00000  Uiso   1.00
H635   H     0.95013   0.52897   0.25578   0.00000  Uiso   1.00
O636   O     0.65620   0.31108   0.93014   0.00000  Uiso   1.00
O637   O     0.62080   0.64833   0.53268   0.00000  Uiso   1.00
O638   O     0.99556   0.41347   0.32003   0.00000  Uiso   1.00
N639   N     0.67933   0.29668   0.05219   0.00000  Uiso   1.00
N640   N     0.65409   0.53701   0.48157   0.00000  Uiso   1.00
N641   N     0.92114   0.36966   0.33006   0.00000  Uiso   1.00
N642   N     0.69135   0.40968   0.99819   0.00000  Uiso   1.00
N643   N     0.66611   0.65001   0.42756   0.00000  Uiso   1.00
N644   N     0.93316   0.48266   0.27605   0.00000  Uiso   1.00
C645   C     0.25047   0.89115   0.29266   0.00000  Uiso   1.00
C646   C     0.23381   0.89272   0.21319   0.00000  Uiso   1.00
C647   C     0.21310   0.83110   0.17645   0.00000  Uiso   1.00
C648   C     0.20032   0.84424   0.10391   0.00000  Uiso   1.00
C649   C     0.17326   0.83572   0.98577   0.00000  Uiso   1.00
C650   C     0.22685   0.95896   0.33152   0.00000  Uiso   1.00
C651   C     0.20028   0.95303   0.39429   0.00000  Uiso   1.00
C652   C     0.18165   0.02193   0.42136   0.00000  Uiso   1.00
C653   C     0.14381   0.11625   0.48697   0.00000  Uiso   1.00
C654   C     0.30044   0.91283   0.28975   0.00000  Uiso   1.00
C655   C     0.33577   0.86813   0.31742   0.00000  Uiso   1.00
C656   C     0.37910   0.89820   0.30934   0.00000  Uiso   1.00
C657   C     0.45552   0.92090   0.31009   0.00000  Uiso   1.00
C658   C     0.26461   0.02404   0.22915   0.00000  Uiso   1.00
C659   C     0.24149   0.96491   0.17869   0.00000  Uiso   1.00
C660   C     0.22874   0.97814   0.10618   0.00000  Uiso   1.00
C661   C     0.20801   0.91655   0.06935   0.00000  Uiso   1.00
C662   C     0.23452   0.03114   0.29703   0.00000  Uiso   1.00
C663   C     0.21593   0.10007   0.32402   0.00000  Uiso   1.00
C664   C     0.18934   0.09424   0.38680   0.00000  Uiso   1.00
C665   C     0.30812   0.98502   0.25525   0.00000  Uiso   1.00
C666   C     0.35141   0.01516   0.24714   0.00000  Uiso   1.00
C667   C     0.38679   0.97051   0.27478   0.00000  Uiso   1.00
H668   H     0.24449   0.83495   0.31952   0.00000  Uiso   1.00
H669   H     0.20715   0.77525   0.20317   0.00000  Uiso   1.00
H670   H     0.19435   0.89716   0.42097   0.00000  Uiso   1.00
H671   H     0.32981   0.81227   0.34411   0.00000  Uiso   1.00
H672   H     0.16913   0.74091   0.05897   0.00000  Uiso   1.00
H673   H     0.14215   0.99797   0.51823   0.00000  Uiso   1.00
H674   H     0.42779   0.81896   0.35615   0.00000  Uiso   1.00
H675   H     0.27059   0.08025   0.20229   0.00000  Uiso   1.00
H676   H     0.23469   0.03401   0.07950   0.00000  Uiso   1.00
H677   H     0.22188   0.15592   0.29731   0.00000  Uiso   1.00
H678   H     0.35734   0.07102   0.22044   0.00000  Uiso   1.00
H679   H     0.19148   0.95092   0.95860   0.00000  Uiso   1.00
H680   H     0.16449   0.20798   0.41787   0.00000  Uiso   1.00
H681   H     0.45013   0.02897   0.25578   0.00000  Uiso   1.00
O682   O     0.15620   0.81108   0.93014   0.00000  Uiso   1.00
O683   O     0.12080   0.14833   0.53268   0.00000  Uiso   1.00
O684   O     0.49556   0.91347   0.32003   0.00000  Uiso   1.00
N685   N     0.17933   0.79668   0.05219   0.00000  Uiso   1.00
N686   N     0.15409   0.03701   0.48157   0.00000  Uiso   1.00
N687   N     0.42114   0.86966   0.33006   0.00000  Uiso   1.00
N688   N     0.19135   0.90968   0.99819   0.00000  Uiso   1.00
N689   N     0.16611   0.15001   0.42756   0.00000  Uiso   1.00
N690   N     0.43316   0.98266   0.27605   0.00000  Uiso   1.00
C691   C     0.25047   0.39115   0.79266   0.00000  Uiso   1.00
C692   C     0.23381   0.39272   0.71319   0.00000  Uiso   1.00
C693   C     0.21310   0.33110   0.67645   0.00000  Uiso   1.00
C694   C     0.20032   0.34424   0.60391   0.00000  Uiso   1.00
C695   C     0.17326   0.33572   0.48577   0.00000  Uiso   1.00
C696   C     0.22685   0.45896   0.83152   0.00000  Uiso   1.00
C697   C     0.20028   0.45303   0.89429   0.00000  Uiso   1.00
C698   C     0.18165   0.52193   0.92136   0.00000  Uiso   1.00
C699   C     0.14381   0.61625   0.98697   0.00000  Uiso   1.00
C700   C     0.30044   0.41283   0.78975   0.00000  Uiso   1.00
C701   C     0.33577   0.36813   0.81742   0.00000  Uiso   1.00
C702   C     0.37910   0.39820   0.80934   0.00000  Uiso   1.00
C703   C     0.45552   0.42090   0.81009   0.00000  Uiso   1.00
C704   C     0.26461   0.52404   0.72915   0.00000  Uiso   1.00
C705   C     0.24149   0.46491   0.67869   0.00000  Uiso   1.00
C706   C     0.22874   0.47814   0.60618   0.00000  Uiso   1.00
C707   C     0.20801   0.41655   0.56935   0.00000  Uiso   1.00
C708   C     0.23452   0.53114   0.79703   0.00000  Uiso   1.00
C709   C     0.21593   0.60007   0.82402   0.00000  Uiso   1.00
C710   C     0.18934   0.59424   0.88680   0.00000  Uiso   1.00
C711   C     0.30812   0.48502   0.75525   0.00000  Uiso   1.00
C712   C     0.35141   0.51516   0.74714   0.00000  Uiso   1.00
C713   C     0.38679   0.47051   0.77478   0.00000  Uiso   1.00
H714   H     0.24449   0.33495   0.81952   0.00000  Uiso   1.00
H715   H     0.20715   0.27525   0.70317   0.00000  Uiso   1.00
H716   H     0.19435   0.39716   0.92097   0.00000  Uiso   1.00
H717   H     0.32981   0.31227   0.84411   0.00000  Uiso   1.00
H718   H     0.16913   0.24091   0.55897   0.00000  Uiso   1.00
H719   H     0.14215   0.49797   0.01823   0.00000  Uiso   1.00
H720   H     0.42779   0.31896   0.85615   0.00000  Uiso   1.00
H721   H     0.27059   0.58025   0.70229   0.00000  Uiso   1.00
H722   H     0.23469   0.53401   0.57950   0.00000  Uiso   1.00
H723   H     0.22188   0.65592   0.79731   0.00000  Uiso   1.00
H724   H     0.35734   0.57102   0.72044   0.00000  Uiso   1.00
H725   H     0.19148   0.45092   0.45860   0.00000  Uiso   1.00
H726   H     0.16449   0.70798   0.91787   0.00000  Uiso   1.00
H727   H     0.45013   0.52897   0.75578   0.00000  Uiso   1.00
O728   O     0.15620   0.31108   0.43014   0.00000  Uiso   1.00
O729   O     0.12080   0.64833   0.03268   0.00000  Uiso   1.00
O730   O     0.49556   0.41347   0.82003   0.00000  Uiso   1.00
N731   N     0.17933   0.29668   0.55219   0.00000  Uiso   1.00
N732   N     0.15409   0.53701   0.98157   0.00000  Uiso   1.00
N733   N     0.42114   0.36966   0.83006   0.00000  Uiso   1.00
N734   N     0.19135   0.40968   0.49819   0.00000  Uiso   1.00
N735   N     0.16611   0.65001   0.92756   0.00000  Uiso   1.00
N736   N     0.43316   0.48266   0.77605   0.00000  Uiso   1.00
