data_job_06572
_audit_creation_date              2018-12-19
_audit_creation_method            'Materials Studio'
_symmetry_space_group_name_H-M    'P1'
_symmetry_Int_Tables_number       1
_symmetry_cell_setting            triclinic
loop_
_symmetry_equiv_pos_as_xyz
  x,y,z
_cell_length_a                    34.8488
_cell_length_b                    25.3601
_cell_length_c                    19.6859
_cell_angle_alpha                 90.0000
_cell_angle_beta                  117.3207
_cell_angle_gamma                 90.0000
loop_
_atom_site_label
_atom_site_type_symbol
_atom_site_fract_x
_atom_site_fract_y
_atom_site_fract_z
_atom_site_U_iso_or_equiv
_atom_site_adp_type
_atom_site_occupancy
C1     C     0.93450   0.12704   0.32836   0.00000  Uiso   1.00
C2     C     0.92343   0.07852   0.36168   0.00000  Uiso   1.00
C3     C     0.95007   0.03522   0.39355   0.00000  Uiso   1.00
C4     C     0.93401   0.99484   0.42086   0.00000  Uiso   1.00
C5     C     0.42308   0.41905   0.47324   0.00000  Uiso   1.00
C6     C     0.89877   0.13196   0.24640   0.00000  Uiso   1.00
C7     C     0.90467   0.13361   0.18134   0.00000  Uiso   1.00
C8     C     0.86784   0.13822   0.11161   0.00000  Uiso   1.00
C9     C     0.81862   0.14544   0.98501   0.00000  Uiso   1.00
C10    C     0.92930   0.17424   0.37142   0.00000  Uiso   1.00
C11    C     0.96087   0.21145   0.41146   0.00000  Uiso   1.00
C12    C     0.94975   0.25167   0.44697   0.00000  Uiso   1.00
C13    C     0.94795   0.32454   0.51448   0.00000  Uiso   1.00
C14    C     0.85862   0.13230   0.32022   0.00000  Uiso   1.00
C15    C     0.88222   0.08138   0.35726   0.00000  Uiso   1.00
C16    C     0.86611   0.04105   0.38453   0.00000  Uiso   1.00
C17    C     0.89272   0.99770   0.41643   0.00000  Uiso   1.00
C18    C     0.85755   0.13482   0.24197   0.00000  Uiso   1.00
C19    C     0.82071   0.13943   0.17233   0.00000  Uiso   1.00
C20    C     0.82655   0.14108   0.10718   0.00000  Uiso   1.00
C21    C     0.88809   0.17710   0.36700   0.00000  Uiso   1.00
C22    C     0.87691   0.21727   0.40245   0.00000  Uiso   1.00
C23    C     0.90846   0.25453   0.44254   0.00000  Uiso   1.00
H24    H     0.96659   0.12481   0.33180   0.00000  Uiso   1.00
H25    H     0.48196   0.53302   0.39695   0.00000  Uiso   1.00
H26    H     0.93657   0.13140   0.18478   0.00000  Uiso   1.00
H27    H     0.99276   0.20923   0.41487   0.00000  Uiso   1.00
H28    H     0.48082   0.43251   0.46721   0.00000  Uiso   1.00
H29    H     0.88510   0.13996   0.01983   0.00000  Uiso   1.00
H30    H     0.00361   0.30408   0.50501   0.00000  Uiso   1.00
H31    H     0.82653   0.13453   0.31677   0.00000  Uiso   1.00
H32    H     0.83421   0.04327   0.38110   0.00000  Uiso   1.00
H33    H     0.78882   0.14165   0.16893   0.00000  Uiso   1.00
H34    H     0.84502   0.21947   0.39901   0.00000  Uiso   1.00
H35    H     0.86090   0.94083   0.45434   0.00000  Uiso   1.00
H36    H     0.76518   0.14828   0.00696   0.00000  Uiso   1.00
H37    H     0.88369   0.31239   0.49214   0.00000  Uiso   1.00
O38    O     0.42844   0.37645   0.50334   0.00000  Uiso   1.00
O39    O     0.80286   0.14863   0.91640   0.00000  Uiso   1.00
O40    O     0.95834   0.36394   0.55295   0.00000  Uiso   1.00
N41    N     0.45155   0.44700   0.45536   0.00000  Uiso   1.00
N42    N     0.86206   0.14094   0.03709   0.00000  Uiso   1.00
N43    N     0.97284   0.29438   0.49068   0.00000  Uiso   1.00
N44    N     0.88702   0.95147   0.44844   0.00000  Uiso   1.00
N45    N     0.79753   0.14541   0.03017   0.00000  Uiso   1.00
N46    N     0.90832   0.29886   0.48376   0.00000  Uiso   1.00
C47    C     0.60553   0.05282   0.67458   0.00000  Uiso   1.00
C48    C     0.55832   0.06907   0.62911   0.00000  Uiso   1.00
C49    C     0.53197   0.05860   0.55229   0.00000  Uiso   1.00
C50    C     0.48973   0.07681   0.52124   0.00000  Uiso   1.00
C51    C     0.41877   0.09786   0.44389   0.00000  Uiso   1.00
C52    C     0.63063   0.10353   0.70817   0.00000  Uiso   1.00
C53    C     0.66508   0.12202   0.69783   0.00000  Uiso   1.00
C54    C     0.68371   0.16924   0.73335   0.00000  Uiso   1.00
C55    C     0.72503   0.24376   0.77879   0.00000  Uiso   1.00
C56    C     0.60834   0.02080   0.74228   0.00000  Uiso   1.00
C57    C     0.62405   0.96973   0.76064   0.00000  Uiso   1.00
C58    C     0.62393   0.94730   0.82488   0.00000  Uiso   1.00
C59    C     0.63064   0.89336   0.92328   0.00000  Uiso   1.00
C60    C     0.57739   0.10380   0.75603   0.00000  Uiso   1.00
C61    C     0.54304   0.09676   0.67335   0.00000  Uiso   1.00
C62    C     0.50083   0.11500   0.64241   0.00000  Uiso   1.00
C63    C     0.47442   0.10455   0.56556   0.00000  Uiso   1.00
C64    C     0.61535   0.13122   0.75241   0.00000  Uiso   1.00
C65    C     0.63394   0.17842   0.78795   0.00000  Uiso   1.00
C66    C     0.66840   0.19698   0.77767   0.00000  Uiso   1.00
C67    C     0.59306   0.04848   0.78652   0.00000  Uiso   1.00
C68    C     0.59291   0.02613   0.85075   0.00000  Uiso   1.00
C69    C     0.60862   0.97504   0.86920   0.00000  Uiso   1.00
H70    H     0.61743   0.03126   0.64014   0.00000  Uiso   1.00
H71    H     0.54381   0.03717   0.51807   0.00000  Uiso   1.00
H72    H     0.67690   0.10058   0.66360   0.00000  Uiso   1.00
H73    H     0.63588   0.94831   0.72639   0.00000  Uiso   1.00
H74    H     0.45546   0.05595   0.40224   0.00000  Uiso   1.00
H75    H     0.73609   0.18964   0.70912   0.00000  Uiso   1.00
H76    H     0.64959   0.86855   0.84152   0.00000  Uiso   1.00
H77    H     0.56549   0.12536   0.79048   0.00000  Uiso   1.00
H78    H     0.48901   0.13643   0.67666   0.00000  Uiso   1.00
H79    H     0.62210   0.19984   0.82218   0.00000  Uiso   1.00
H80    H     0.58108   0.04757   0.88497   0.00000  Uiso   1.00
H81    H     0.41098   0.13651   0.53095   0.00000  Uiso   1.00
H82    H     0.69161   0.27020   0.83783   0.00000  Uiso   1.00
H83    H     0.60512   0.94912   0.97023   0.00000  Uiso   1.00
O84    O     0.38385   0.10183   0.38901   0.00000  Uiso   1.00
O85    O     0.75204   0.27722   0.79162   0.00000  Uiso   1.00
O86    O     0.63856   0.85596   0.96533   0.00000  Uiso   1.00
N87    N     0.45548   0.07338   0.44816   0.00000  Uiso   1.00
N88    N     0.71785   0.19838   0.73506   0.00000  Uiso   1.00
N89    N     0.63700   0.89819   0.85886   0.00000  Uiso   1.00
N90    N     0.43155   0.11673   0.51742   0.00000  Uiso   1.00
N91    N     0.69392   0.24173   0.80432   0.00000  Uiso   1.00
N92    N     0.61306   0.94154   0.92812   0.00000  Uiso   1.00
C93    C     0.74008   0.58620   0.92526   0.00000  Uiso   1.00
C94    C     0.75057   0.62275   0.99304   0.00000  Uiso   1.00
C95    C     0.77158   0.67095   0.00540   0.00000  Uiso   1.00
C96    C     0.27813   0.19843   0.07084   0.00000  Uiso   1.00
C97    C     0.29656   0.25822   0.16832   0.00000  Uiso   1.00
C98    C     0.76065   0.53323   0.95921   0.00000  Uiso   1.00
C99    C     0.79014   0.50616   0.94312   0.00000  Uiso   1.00
C100   C     0.80517   0.45829   0.98008   0.00000  Uiso   1.00
C101   C     0.83923   0.37908   0.02500   0.00000  Uiso   1.00
C102   C     0.69139   0.57734   0.88810   0.00000  Uiso   1.00
C103   C     0.66264   0.58735   0.81221   0.00000  Uiso   1.00
C104   C     0.61936   0.57660   0.78928   0.00000  Uiso   1.00
C105   C     0.54589   0.56588   0.72379   0.00000  Uiso   1.00
C106   C     0.71434   0.54931   0.01948   0.00000  Uiso   1.00
C107   C     0.73659   0.60271   0.04422   0.00000  Uiso   1.00
C108   C     0.74310   0.63013   0.10965   0.00000  Uiso   1.00
C109   C     0.76412   0.67836   0.12211   0.00000  Uiso   1.00
C110   C     0.74667   0.51319   0.01039   0.00000  Uiso   1.00
C111   C     0.76166   0.46535   0.04737   0.00000  Uiso   1.00
C112   C     0.79116   0.43821   0.03135   0.00000  Uiso   1.00
C113   C     0.67741   0.55730   0.93928   0.00000  Uiso   1.00
C114   C     0.63417   0.54654   0.91646   0.00000  Uiso   1.00
C115   C     0.60536   0.55653   0.84056   0.00000  Uiso   1.00
H116   H     0.75096   0.60180   0.88541   0.00000  Uiso   1.00
H117   H     0.28240   0.18644   0.96578   0.00000  Uiso   1.00
H118   H     0.80094   0.52167   0.90351   0.00000  Uiso   1.00
H119   H     0.67347   0.60285   0.77262   0.00000  Uiso   1.00
H120   H     0.31109   0.27143   0.07748   0.00000  Uiso   1.00
H121   H     0.85019   0.42401   0.94615   0.00000  Uiso   1.00
H122   H     0.58139   0.59519   0.67014   0.00000  Uiso   1.00
H123   H     0.70346   0.53371   0.05933   0.00000  Uiso   1.00
H124   H     0.73228   0.61461   0.14925   0.00000  Uiso   1.00
H125   H     0.75083   0.44985   0.08697   0.00000  Uiso   1.00
H126   H     0.62336   0.53103   0.95608   0.00000  Uiso   1.00
H127   H     0.27042   0.21313   0.22639   0.00000  Uiso   1.00
H128   H     0.80952   0.36571   0.09505   0.00000  Uiso   1.00
H129   H     0.54072   0.53690   0.81904   0.00000  Uiso   1.00
O130   O     0.31059   0.29672   0.20796   0.00000  Uiso   1.00
O131   O     0.86188   0.34092   0.03564   0.00000  Uiso   1.00
O132   O     0.50922   0.56551   0.67353   0.00000  Uiso   1.00
N133   N     0.29756   0.24661   0.10018   0.00000  Uiso   1.00
N134   N     0.83412   0.42180   0.97740   0.00000  Uiso   1.00
N135   N     0.58281   0.58183   0.71935   0.00000  Uiso   1.00
N136   N     0.27567   0.21524   0.18030   0.00000  Uiso   1.00
N137   N     0.81223   0.39043   0.05752   0.00000  Uiso   1.00
N138   N     0.56093   0.55046   0.79947   0.00000  Uiso   1.00
C139   C     0.43450   0.62704   0.32836   0.00000  Uiso   1.00
C140   C     0.42343   0.57852   0.36168   0.00000  Uiso   1.00
C141   C     0.45007   0.53522   0.39355   0.00000  Uiso   1.00
C142   C     0.43401   0.49484   0.42086   0.00000  Uiso   1.00
C143   C     0.92308   0.91905   0.47324   0.00000  Uiso   1.00
C144   C     0.39877   0.63196   0.24640   0.00000  Uiso   1.00
C145   C     0.40467   0.63361   0.18134   0.00000  Uiso   1.00
C146   C     0.36784   0.63822   0.11161   0.00000  Uiso   1.00
C147   C     0.31862   0.64544   0.98501   0.00000  Uiso   1.00
C148   C     0.42930   0.67424   0.37142   0.00000  Uiso   1.00
C149   C     0.46087   0.71145   0.41146   0.00000  Uiso   1.00
C150   C     0.44975   0.75167   0.44697   0.00000  Uiso   1.00
C151   C     0.44795   0.82454   0.51448   0.00000  Uiso   1.00
C152   C     0.35862   0.63230   0.32022   0.00000  Uiso   1.00
C153   C     0.38222   0.58138   0.35726   0.00000  Uiso   1.00
C154   C     0.36611   0.54105   0.38453   0.00000  Uiso   1.00
C155   C     0.39272   0.49770   0.41643   0.00000  Uiso   1.00
C156   C     0.35755   0.63482   0.24197   0.00000  Uiso   1.00
C157   C     0.32071   0.63943   0.17233   0.00000  Uiso   1.00
C158   C     0.32655   0.64108   0.10718   0.00000  Uiso   1.00
C159   C     0.38809   0.67710   0.36700   0.00000  Uiso   1.00
C160   C     0.37691   0.71727   0.40245   0.00000  Uiso   1.00
C161   C     0.40846   0.75453   0.44254   0.00000  Uiso   1.00
H162   H     0.46659   0.62481   0.33180   0.00000  Uiso   1.00
H163   H     0.98196   0.03302   0.39695   0.00000  Uiso   1.00
H164   H     0.43657   0.63140   0.18478   0.00000  Uiso   1.00
H165   H     0.49276   0.70923   0.41487   0.00000  Uiso   1.00
H166   H     0.98082   0.93251   0.46721   0.00000  Uiso   1.00
H167   H     0.38510   0.63996   0.01983   0.00000  Uiso   1.00
H168   H     0.50361   0.80408   0.50501   0.00000  Uiso   1.00
H169   H     0.32653   0.63453   0.31677   0.00000  Uiso   1.00
H170   H     0.33421   0.54327   0.38110   0.00000  Uiso   1.00
H171   H     0.28882   0.64165   0.16893   0.00000  Uiso   1.00
H172   H     0.34502   0.71947   0.39901   0.00000  Uiso   1.00
H173   H     0.36090   0.44083   0.45434   0.00000  Uiso   1.00
H174   H     0.26518   0.64828   0.00696   0.00000  Uiso   1.00
H175   H     0.38369   0.81239   0.49214   0.00000  Uiso   1.00
O176   O     0.92844   0.87645   0.50334   0.00000  Uiso   1.00
O177   O     0.30286   0.64863   0.91640   0.00000  Uiso   1.00
O178   O     0.45834   0.86394   0.55295   0.00000  Uiso   1.00
N179   N     0.95155   0.94700   0.45536   0.00000  Uiso   1.00
N180   N     0.36206   0.64094   0.03709   0.00000  Uiso   1.00
N181   N     0.47284   0.79438   0.49068   0.00000  Uiso   1.00
N182   N     0.38702   0.45147   0.44844   0.00000  Uiso   1.00
N183   N     0.29753   0.64541   0.03017   0.00000  Uiso   1.00
N184   N     0.40832   0.79886   0.48376   0.00000  Uiso   1.00
C185   C     0.10553   0.55282   0.67458   0.00000  Uiso   1.00
C186   C     0.05832   0.56907   0.62911   0.00000  Uiso   1.00
C187   C     0.03197   0.55860   0.55229   0.00000  Uiso   1.00
C188   C     0.98973   0.57681   0.52124   0.00000  Uiso   1.00
C189   C     0.91877   0.59786   0.44389   0.00000  Uiso   1.00
C190   C     0.13063   0.60353   0.70817   0.00000  Uiso   1.00
C191   C     0.16508   0.62202   0.69783   0.00000  Uiso   1.00
C192   C     0.18371   0.66924   0.73335   0.00000  Uiso   1.00
C193   C     0.22503   0.74376   0.77879   0.00000  Uiso   1.00
C194   C     0.10834   0.52080   0.74228   0.00000  Uiso   1.00
C195   C     0.12405   0.46973   0.76064   0.00000  Uiso   1.00
C196   C     0.12393   0.44730   0.82488   0.00000  Uiso   1.00
C197   C     0.13064   0.39336   0.92328   0.00000  Uiso   1.00
C198   C     0.07739   0.60380   0.75603   0.00000  Uiso   1.00
C199   C     0.04304   0.59676   0.67335   0.00000  Uiso   1.00
C200   C     0.00083   0.61500   0.64241   0.00000  Uiso   1.00
C201   C     0.97442   0.60455   0.56556   0.00000  Uiso   1.00
C202   C     0.11535   0.63122   0.75241   0.00000  Uiso   1.00
C203   C     0.13394   0.67842   0.78795   0.00000  Uiso   1.00
C204   C     0.16840   0.69698   0.77767   0.00000  Uiso   1.00
C205   C     0.09306   0.54848   0.78652   0.00000  Uiso   1.00
C206   C     0.09291   0.52613   0.85075   0.00000  Uiso   1.00
C207   C     0.10862   0.47504   0.86920   0.00000  Uiso   1.00
H208   H     0.11743   0.53126   0.64014   0.00000  Uiso   1.00
H209   H     0.04381   0.53717   0.51807   0.00000  Uiso   1.00
H210   H     0.17690   0.60058   0.66360   0.00000  Uiso   1.00
H211   H     0.13588   0.44831   0.72639   0.00000  Uiso   1.00
H212   H     0.95546   0.55595   0.40224   0.00000  Uiso   1.00
H213   H     0.23609   0.68964   0.70912   0.00000  Uiso   1.00
H214   H     0.14959   0.36855   0.84152   0.00000  Uiso   1.00
H215   H     0.06549   0.62536   0.79048   0.00000  Uiso   1.00
H216   H     0.98901   0.63643   0.67666   0.00000  Uiso   1.00
H217   H     0.12210   0.69984   0.82218   0.00000  Uiso   1.00
H218   H     0.08108   0.54757   0.88497   0.00000  Uiso   1.00
H219   H     0.91098   0.63651   0.53095   0.00000  Uiso   1.00
H220   H     0.19161   0.77020   0.83783   0.00000  Uiso   1.00
H221   H     0.10512   0.44912   0.97023   0.00000  Uiso   1.00
O222   O     0.88385   0.60183   0.38901   0.00000  Uiso   1.00
O223   O     0.25204   0.77722   0.79162   0.00000  Uiso   1.00
O224   O     0.13856   0.35596   0.96533   0.00000  Uiso   1.00
N225   N     0.95548   0.57338   0.44816   0.00000  Uiso   1.00
N226   N     0.21785   0.69838   0.73506   0.00000  Uiso   1.00
N227   N     0.13700   0.39819   0.85886   0.00000  Uiso   1.00
N228   N     0.93155   0.61673   0.51742   0.00000  Uiso   1.00
N229   N     0.19392   0.74173   0.80432   0.00000  Uiso   1.00
N230   N     0.11306   0.44154   0.92812   0.00000  Uiso   1.00
C231   C     0.24008   0.08620   0.92526   0.00000  Uiso   1.00
C232   C     0.25057   0.12275   0.99304   0.00000  Uiso   1.00
C233   C     0.27158   0.17095   0.00540   0.00000  Uiso   1.00
C234   C     0.77813   0.69843   0.07084   0.00000  Uiso   1.00
C235   C     0.79656   0.75822   0.16832   0.00000  Uiso   1.00
C236   C     0.26065   0.03323   0.95921   0.00000  Uiso   1.00
C237   C     0.29014   0.00616   0.94312   0.00000  Uiso   1.00
C238   C     0.30517   0.95829   0.98008   0.00000  Uiso   1.00
C239   C     0.33923   0.87908   0.02500   0.00000  Uiso   1.00
C240   C     0.19139   0.07734   0.88810   0.00000  Uiso   1.00
C241   C     0.16264   0.08735   0.81221   0.00000  Uiso   1.00
C242   C     0.11936   0.07660   0.78928   0.00000  Uiso   1.00
C243   C     0.04589   0.06588   0.72379   0.00000  Uiso   1.00
C244   C     0.21434   0.04931   0.01948   0.00000  Uiso   1.00
C245   C     0.23659   0.10271   0.04422   0.00000  Uiso   1.00
C246   C     0.24310   0.13013   0.10965   0.00000  Uiso   1.00
C247   C     0.26412   0.17836   0.12211   0.00000  Uiso   1.00
C248   C     0.24667   0.01319   0.01039   0.00000  Uiso   1.00
C249   C     0.26166   0.96535   0.04737   0.00000  Uiso   1.00
C250   C     0.29116   0.93821   0.03135   0.00000  Uiso   1.00
C251   C     0.17741   0.05730   0.93928   0.00000  Uiso   1.00
C252   C     0.13417   0.04654   0.91646   0.00000  Uiso   1.00
C253   C     0.10536   0.05653   0.84056   0.00000  Uiso   1.00
H254   H     0.25096   0.10180   0.88541   0.00000  Uiso   1.00
H255   H     0.78240   0.68644   0.96578   0.00000  Uiso   1.00
H256   H     0.30094   0.02167   0.90351   0.00000  Uiso   1.00
H257   H     0.17347   0.10285   0.77262   0.00000  Uiso   1.00
H258   H     0.81109   0.77143   0.07748   0.00000  Uiso   1.00
H259   H     0.35019   0.92401   0.94615   0.00000  Uiso   1.00
H260   H     0.08139   0.09519   0.67014   0.00000  Uiso   1.00
H261   H     0.20346   0.03371   0.05933   0.00000  Uiso   1.00
H262   H     0.23228   0.11461   0.14925   0.00000  Uiso   1.00
H263   H     0.25083   0.94985   0.08697   0.00000  Uiso   1.00
H264   H     0.12336   0.03103   0.95608   0.00000  Uiso   1.00
H265   H     0.77042   0.71313   0.22639   0.00000  Uiso   1.00
H266   H     0.30952   0.86571   0.09505   0.00000  Uiso   1.00
H267   H     0.04072   0.03690   0.81904   0.00000  Uiso   1.00
O268   O     0.81059   0.79672   0.20796   0.00000  Uiso   1.00
O269   O     0.36188   0.84092   0.03564   0.00000  Uiso   1.00
O270   O     0.00922   0.06551   0.67353   0.00000  Uiso   1.00
N271   N     0.79756   0.74661   0.10018   0.00000  Uiso   1.00
N272   N     0.33412   0.92180   0.97740   0.00000  Uiso   1.00
N273   N     0.08281   0.08183   0.71935   0.00000  Uiso   1.00
N274   N     0.77567   0.71524   0.18030   0.00000  Uiso   1.00
N275   N     0.31223   0.89043   0.05752   0.00000  Uiso   1.00
N276   N     0.06093   0.05046   0.79947   0.00000  Uiso   1.00
C277   C     0.06550   0.12704   0.17164   0.00000  Uiso   1.00
C278   C     0.07657   0.07852   0.13832   0.00000  Uiso   1.00
C279   C     0.04993   0.03522   0.10645   0.00000  Uiso   1.00
C280   C     0.06599   0.99484   0.07914   0.00000  Uiso   1.00
C281   C     0.57692   0.41905   0.02676   0.00000  Uiso   1.00
C282   C     0.10123   0.13196   0.25360   0.00000  Uiso   1.00
C283   C     0.09533   0.13361   0.31866   0.00000  Uiso   1.00
C284   C     0.13216   0.13822   0.38839   0.00000  Uiso   1.00
C285   C     0.18138   0.14544   0.51499   0.00000  Uiso   1.00
C286   C     0.07070   0.17424   0.12858   0.00000  Uiso   1.00
C287   C     0.03913   0.21145   0.08854   0.00000  Uiso   1.00
C288   C     0.05025   0.25167   0.05303   0.00000  Uiso   1.00
C289   C     0.05205   0.32454   0.98552   0.00000  Uiso   1.00
C290   C     0.14138   0.13230   0.17978   0.00000  Uiso   1.00
C291   C     0.11778   0.08138   0.14274   0.00000  Uiso   1.00
C292   C     0.13389   0.04105   0.11547   0.00000  Uiso   1.00
C293   C     0.10728   0.99770   0.08357   0.00000  Uiso   1.00
C294   C     0.14245   0.13482   0.25803   0.00000  Uiso   1.00
C295   C     0.17929   0.13943   0.32767   0.00000  Uiso   1.00
C296   C     0.17345   0.14108   0.39282   0.00000  Uiso   1.00
C297   C     0.11191   0.17710   0.13300   0.00000  Uiso   1.00
C298   C     0.12309   0.21727   0.09755   0.00000  Uiso   1.00
C299   C     0.09154   0.25453   0.05746   0.00000  Uiso   1.00
H300   H     0.03341   0.12481   0.16820   0.00000  Uiso   1.00
H301   H     0.51804   0.53302   0.10305   0.00000  Uiso   1.00
H302   H     0.06343   0.13140   0.31522   0.00000  Uiso   1.00
H303   H     0.00724   0.20923   0.08513   0.00000  Uiso   1.00
H304   H     0.51918   0.43251   0.03279   0.00000  Uiso   1.00
H305   H     0.11490   0.13996   0.48017   0.00000  Uiso   1.00
H306   H     0.99639   0.30408   0.99499   0.00000  Uiso   1.00
H307   H     0.17347   0.13453   0.18323   0.00000  Uiso   1.00
H308   H     0.16579   0.04327   0.11890   0.00000  Uiso   1.00
H309   H     0.21118   0.14165   0.33107   0.00000  Uiso   1.00
H310   H     0.15498   0.21947   0.10099   0.00000  Uiso   1.00
H311   H     0.13910   0.94083   0.04566   0.00000  Uiso   1.00
H312   H     0.23482   0.14828   0.49304   0.00000  Uiso   1.00
H313   H     0.11631   0.31239   0.00786   0.00000  Uiso   1.00
O314   O     0.57156   0.37645   0.99666   0.00000  Uiso   1.00
O315   O     0.19714   0.14863   0.58360   0.00000  Uiso   1.00
O316   O     0.04166   0.36394   0.94705   0.00000  Uiso   1.00
N317   N     0.54845   0.44700   0.04464   0.00000  Uiso   1.00
N318   N     0.13794   0.14094   0.46291   0.00000  Uiso   1.00
N319   N     0.02716   0.29438   0.00932   0.00000  Uiso   1.00
N320   N     0.11298   0.95147   0.05156   0.00000  Uiso   1.00
N321   N     0.20247   0.14541   0.46983   0.00000  Uiso   1.00
N322   N     0.09168   0.29886   0.01624   0.00000  Uiso   1.00
C323   C     0.39447   0.05282   0.82542   0.00000  Uiso   1.00
C324   C     0.44168   0.06907   0.87089   0.00000  Uiso   1.00
C325   C     0.46803   0.05860   0.94771   0.00000  Uiso   1.00
C326   C     0.51027   0.07681   0.97876   0.00000  Uiso   1.00
C327   C     0.58123   0.09786   0.05611   0.00000  Uiso   1.00
C328   C     0.36937   0.10353   0.79183   0.00000  Uiso   1.00
C329   C     0.33492   0.12202   0.80217   0.00000  Uiso   1.00
C330   C     0.31629   0.16924   0.76665   0.00000  Uiso   1.00
C331   C     0.27497   0.24376   0.72121   0.00000  Uiso   1.00
C332   C     0.39166   0.02080   0.75772   0.00000  Uiso   1.00
C333   C     0.37595   0.96973   0.73936   0.00000  Uiso   1.00
C334   C     0.37607   0.94730   0.67512   0.00000  Uiso   1.00
C335   C     0.36936   0.89336   0.57672   0.00000  Uiso   1.00
C336   C     0.42261   0.10380   0.74397   0.00000  Uiso   1.00
C337   C     0.45696   0.09676   0.82665   0.00000  Uiso   1.00
C338   C     0.49917   0.11500   0.85759   0.00000  Uiso   1.00
C339   C     0.52558   0.10455   0.93444   0.00000  Uiso   1.00
C340   C     0.38465   0.13122   0.74759   0.00000  Uiso   1.00
C341   C     0.36606   0.17842   0.71205   0.00000  Uiso   1.00
C342   C     0.33160   0.19698   0.72233   0.00000  Uiso   1.00
C343   C     0.40694   0.04848   0.71348   0.00000  Uiso   1.00
C344   C     0.40709   0.02613   0.64925   0.00000  Uiso   1.00
C345   C     0.39138   0.97504   0.63080   0.00000  Uiso   1.00
H346   H     0.38257   0.03126   0.85986   0.00000  Uiso   1.00
H347   H     0.45619   0.03717   0.98193   0.00000  Uiso   1.00
H348   H     0.32310   0.10058   0.83640   0.00000  Uiso   1.00
H349   H     0.36412   0.94831   0.77361   0.00000  Uiso   1.00
H350   H     0.54454   0.05595   0.09776   0.00000  Uiso   1.00
H351   H     0.26391   0.18964   0.79088   0.00000  Uiso   1.00
H352   H     0.35041   0.86855   0.65848   0.00000  Uiso   1.00
H353   H     0.43451   0.12536   0.70952   0.00000  Uiso   1.00
H354   H     0.51099   0.13643   0.82334   0.00000  Uiso   1.00
H355   H     0.37790   0.19984   0.67782   0.00000  Uiso   1.00
H356   H     0.41892   0.04757   0.61503   0.00000  Uiso   1.00
H357   H     0.58902   0.13651   0.96905   0.00000  Uiso   1.00
H358   H     0.30839   0.27020   0.66217   0.00000  Uiso   1.00
H359   H     0.39488   0.94912   0.52977   0.00000  Uiso   1.00
O360   O     0.61615   0.10183   0.11099   0.00000  Uiso   1.00
O361   O     0.24796   0.27722   0.70838   0.00000  Uiso   1.00
O362   O     0.36144   0.85596   0.53467   0.00000  Uiso   1.00
N363   N     0.54452   0.07338   0.05184   0.00000  Uiso   1.00
N364   N     0.28215   0.19838   0.76494   0.00000  Uiso   1.00
N365   N     0.36300   0.89819   0.64114   0.00000  Uiso   1.00
N366   N     0.56845   0.11673   0.98258   0.00000  Uiso   1.00
N367   N     0.30608   0.24173   0.69568   0.00000  Uiso   1.00
N368   N     0.38694   0.94154   0.57188   0.00000  Uiso   1.00
C369   C     0.25992   0.58620   0.57474   0.00000  Uiso   1.00
C370   C     0.24943   0.62275   0.50696   0.00000  Uiso   1.00
C371   C     0.22842   0.67095   0.49460   0.00000  Uiso   1.00
C372   C     0.72187   0.19843   0.42916   0.00000  Uiso   1.00
C373   C     0.70344   0.25822   0.33168   0.00000  Uiso   1.00
C374   C     0.23935   0.53323   0.54079   0.00000  Uiso   1.00
C375   C     0.20986   0.50616   0.55688   0.00000  Uiso   1.00
C376   C     0.19483   0.45829   0.51992   0.00000  Uiso   1.00
C377   C     0.16077   0.37908   0.47500   0.00000  Uiso   1.00
C378   C     0.30861   0.57734   0.61190   0.00000  Uiso   1.00
C379   C     0.33736   0.58735   0.68779   0.00000  Uiso   1.00
C380   C     0.38064   0.57660   0.71072   0.00000  Uiso   1.00
C381   C     0.45411   0.56588   0.77621   0.00000  Uiso   1.00
C382   C     0.28566   0.54931   0.48052   0.00000  Uiso   1.00
C383   C     0.26341   0.60271   0.45578   0.00000  Uiso   1.00
C384   C     0.25690   0.63013   0.39035   0.00000  Uiso   1.00
C385   C     0.23588   0.67836   0.37789   0.00000  Uiso   1.00
C386   C     0.25333   0.51319   0.48961   0.00000  Uiso   1.00
C387   C     0.23834   0.46535   0.45263   0.00000  Uiso   1.00
C388   C     0.20884   0.43821   0.46865   0.00000  Uiso   1.00
C389   C     0.32259   0.55730   0.56072   0.00000  Uiso   1.00
C390   C     0.36583   0.54654   0.58354   0.00000  Uiso   1.00
C391   C     0.39464   0.55653   0.65944   0.00000  Uiso   1.00
H392   H     0.24904   0.60180   0.61459   0.00000  Uiso   1.00
H393   H     0.71760   0.18644   0.53422   0.00000  Uiso   1.00
H394   H     0.19906   0.52167   0.59649   0.00000  Uiso   1.00
H395   H     0.32653   0.60285   0.72738   0.00000  Uiso   1.00
H396   H     0.68891   0.27143   0.42252   0.00000  Uiso   1.00
H397   H     0.14981   0.42401   0.55385   0.00000  Uiso   1.00
H398   H     0.41861   0.59519   0.82986   0.00000  Uiso   1.00
H399   H     0.29654   0.53371   0.44067   0.00000  Uiso   1.00
H400   H     0.26772   0.61461   0.35075   0.00000  Uiso   1.00
H401   H     0.24917   0.44985   0.41303   0.00000  Uiso   1.00
H402   H     0.37664   0.53103   0.54392   0.00000  Uiso   1.00
H403   H     0.72958   0.21313   0.27361   0.00000  Uiso   1.00
H404   H     0.19048   0.36571   0.40495   0.00000  Uiso   1.00
H405   H     0.45928   0.53690   0.68096   0.00000  Uiso   1.00
O406   O     0.68941   0.29672   0.29204   0.00000  Uiso   1.00
O407   O     0.13812   0.34092   0.46436   0.00000  Uiso   1.00
O408   O     0.49078   0.56551   0.82647   0.00000  Uiso   1.00
N409   N     0.70244   0.24661   0.39982   0.00000  Uiso   1.00
N410   N     0.16588   0.42180   0.52260   0.00000  Uiso   1.00
N411   N     0.41719   0.58183   0.78065   0.00000  Uiso   1.00
N412   N     0.72433   0.21524   0.31970   0.00000  Uiso   1.00
N413   N     0.18777   0.39043   0.44248   0.00000  Uiso   1.00
N414   N     0.43907   0.55046   0.70053   0.00000  Uiso   1.00
C415   C     0.56550   0.62704   0.17164   0.00000  Uiso   1.00
C416   C     0.57657   0.57852   0.13832   0.00000  Uiso   1.00
C417   C     0.54993   0.53522   0.10645   0.00000  Uiso   1.00
C418   C     0.56599   0.49484   0.07914   0.00000  Uiso   1.00
C419   C     0.07692   0.91905   0.02676   0.00000  Uiso   1.00
C420   C     0.60123   0.63196   0.25360   0.00000  Uiso   1.00
C421   C     0.59533   0.63361   0.31866   0.00000  Uiso   1.00
C422   C     0.63216   0.63822   0.38839   0.00000  Uiso   1.00
C423   C     0.68138   0.64544   0.51499   0.00000  Uiso   1.00
C424   C     0.57070   0.67424   0.12858   0.00000  Uiso   1.00
C425   C     0.53913   0.71145   0.08854   0.00000  Uiso   1.00
C426   C     0.55025   0.75167   0.05303   0.00000  Uiso   1.00
C427   C     0.55205   0.82454   0.98552   0.00000  Uiso   1.00
C428   C     0.64138   0.63230   0.17978   0.00000  Uiso   1.00
C429   C     0.61778   0.58138   0.14274   0.00000  Uiso   1.00
C430   C     0.63389   0.54105   0.11547   0.00000  Uiso   1.00
C431   C     0.60728   0.49770   0.08357   0.00000  Uiso   1.00
C432   C     0.64245   0.63482   0.25803   0.00000  Uiso   1.00
C433   C     0.67929   0.63943   0.32767   0.00000  Uiso   1.00
C434   C     0.67345   0.64108   0.39282   0.00000  Uiso   1.00
C435   C     0.61191   0.67710   0.13300   0.00000  Uiso   1.00
C436   C     0.62309   0.71727   0.09755   0.00000  Uiso   1.00
C437   C     0.59154   0.75453   0.05746   0.00000  Uiso   1.00
H438   H     0.53341   0.62481   0.16820   0.00000  Uiso   1.00
H439   H     0.01804   0.03302   0.10305   0.00000  Uiso   1.00
H440   H     0.56343   0.63140   0.31522   0.00000  Uiso   1.00
H441   H     0.50724   0.70923   0.08513   0.00000  Uiso   1.00
H442   H     0.01918   0.93251   0.03279   0.00000  Uiso   1.00
H443   H     0.61490   0.63996   0.48017   0.00000  Uiso   1.00
H444   H     0.49639   0.80408   0.99499   0.00000  Uiso   1.00
H445   H     0.67347   0.63453   0.18323   0.00000  Uiso   1.00
H446   H     0.66579   0.54327   0.11890   0.00000  Uiso   1.00
H447   H     0.71118   0.64165   0.33107   0.00000  Uiso   1.00
H448   H     0.65498   0.71947   0.10099   0.00000  Uiso   1.00
H449   H     0.63910   0.44083   0.04566   0.00000  Uiso   1.00
H450   H     0.73482   0.64828   0.49304   0.00000  Uiso   1.00
H451   H     0.61631   0.81239   0.00786   0.00000  Uiso   1.00
O452   O     0.07156   0.87645   0.99666   0.00000  Uiso   1.00
O453   O     0.69714   0.64863   0.58360   0.00000  Uiso   1.00
O454   O     0.54166   0.86394   0.94705   0.00000  Uiso   1.00
N455   N     0.04845   0.94700   0.04464   0.00000  Uiso   1.00
N456   N     0.63794   0.64094   0.46291   0.00000  Uiso   1.00
N457   N     0.52716   0.79438   0.00932   0.00000  Uiso   1.00
N458   N     0.61298   0.45147   0.05156   0.00000  Uiso   1.00
N459   N     0.70247   0.64541   0.46983   0.00000  Uiso   1.00
N460   N     0.59168   0.79886   0.01624   0.00000  Uiso   1.00
C461   C     0.89447   0.55282   0.82542   0.00000  Uiso   1.00
C462   C     0.94168   0.56907   0.87089   0.00000  Uiso   1.00
C463   C     0.96803   0.55860   0.94771   0.00000  Uiso   1.00
C464   C     0.01027   0.57681   0.97876   0.00000  Uiso   1.00
C465   C     0.08123   0.59786   0.05611   0.00000  Uiso   1.00
C466   C     0.86937   0.60353   0.79183   0.00000  Uiso   1.00
C467   C     0.83492   0.62202   0.80217   0.00000  Uiso   1.00
C468   C     0.81629   0.66924   0.76665   0.00000  Uiso   1.00
C469   C     0.77497   0.74376   0.72121   0.00000  Uiso   1.00
C470   C     0.89166   0.52080   0.75772   0.00000  Uiso   1.00
C471   C     0.87595   0.46973   0.73936   0.00000  Uiso   1.00
C472   C     0.87607   0.44730   0.67512   0.00000  Uiso   1.00
C473   C     0.86936   0.39336   0.57672   0.00000  Uiso   1.00
C474   C     0.92261   0.60380   0.74397   0.00000  Uiso   1.00
C475   C     0.95696   0.59676   0.82665   0.00000  Uiso   1.00
C476   C     0.99917   0.61500   0.85759   0.00000  Uiso   1.00
C477   C     0.02558   0.60455   0.93444   0.00000  Uiso   1.00
C478   C     0.88465   0.63122   0.74759   0.00000  Uiso   1.00
C479   C     0.86606   0.67842   0.71205   0.00000  Uiso   1.00
C480   C     0.83160   0.69698   0.72233   0.00000  Uiso   1.00
C481   C     0.90694   0.54848   0.71348   0.00000  Uiso   1.00
C482   C     0.90709   0.52613   0.64925   0.00000  Uiso   1.00
C483   C     0.89138   0.47504   0.63080   0.00000  Uiso   1.00
H484   H     0.88257   0.53126   0.85986   0.00000  Uiso   1.00
H485   H     0.95619   0.53717   0.98193   0.00000  Uiso   1.00
H486   H     0.82310   0.60058   0.83640   0.00000  Uiso   1.00
H487   H     0.86412   0.44831   0.77361   0.00000  Uiso   1.00
H488   H     0.04454   0.55595   0.09776   0.00000  Uiso   1.00
H489   H     0.76391   0.68964   0.79088   0.00000  Uiso   1.00
H490   H     0.85041   0.36855   0.65848   0.00000  Uiso   1.00
H491   H     0.93451   0.62536   0.70952   0.00000  Uiso   1.00
H492   H     0.01099   0.63643   0.82334   0.00000  Uiso   1.00
H493   H     0.87790   0.69984   0.67782   0.00000  Uiso   1.00
H494   H     0.91892   0.54757   0.61503   0.00000  Uiso   1.00
H495   H     0.08902   0.63651   0.96905   0.00000  Uiso   1.00
H496   H     0.80839   0.77020   0.66217   0.00000  Uiso   1.00
H497   H     0.89488   0.44912   0.52977   0.00000  Uiso   1.00
O498   O     0.11615   0.60183   0.11099   0.00000  Uiso   1.00
O499   O     0.74796   0.77722   0.70838   0.00000  Uiso   1.00
O500   O     0.86144   0.35596   0.53467   0.00000  Uiso   1.00
N501   N     0.04452   0.57338   0.05184   0.00000  Uiso   1.00
N502   N     0.78215   0.69838   0.76494   0.00000  Uiso   1.00
N503   N     0.86300   0.39819   0.64114   0.00000  Uiso   1.00
N504   N     0.06845   0.61673   0.98258   0.00000  Uiso   1.00
N505   N     0.80608   0.74173   0.69568   0.00000  Uiso   1.00
N506   N     0.88694   0.44154   0.57188   0.00000  Uiso   1.00
C507   C     0.75992   0.08620   0.57474   0.00000  Uiso   1.00
C508   C     0.74943   0.12275   0.50696   0.00000  Uiso   1.00
C509   C     0.72842   0.17095   0.49460   0.00000  Uiso   1.00
C510   C     0.22187   0.69843   0.42916   0.00000  Uiso   1.00
C511   C     0.20344   0.75822   0.33168   0.00000  Uiso   1.00
C512   C     0.73935   0.03323   0.54079   0.00000  Uiso   1.00
C513   C     0.70986   0.00616   0.55688   0.00000  Uiso   1.00
C514   C     0.69483   0.95829   0.51992   0.00000  Uiso   1.00
C515   C     0.66077   0.87908   0.47500   0.00000  Uiso   1.00
C516   C     0.80861   0.07734   0.61190   0.00000  Uiso   1.00
C517   C     0.83736   0.08735   0.68779   0.00000  Uiso   1.00
C518   C     0.88064   0.07660   0.71072   0.00000  Uiso   1.00
C519   C     0.95411   0.06588   0.77621   0.00000  Uiso   1.00
C520   C     0.78566   0.04931   0.48052   0.00000  Uiso   1.00
C521   C     0.76341   0.10271   0.45578   0.00000  Uiso   1.00
C522   C     0.75690   0.13013   0.39035   0.00000  Uiso   1.00
C523   C     0.73588   0.17836   0.37789   0.00000  Uiso   1.00
C524   C     0.75333   0.01319   0.48961   0.00000  Uiso   1.00
C525   C     0.73834   0.96535   0.45263   0.00000  Uiso   1.00
C526   C     0.70884   0.93821   0.46865   0.00000  Uiso   1.00
C527   C     0.82259   0.05730   0.56072   0.00000  Uiso   1.00
C528   C     0.86583   0.04654   0.58354   0.00000  Uiso   1.00
C529   C     0.89464   0.05653   0.65944   0.00000  Uiso   1.00
H530   H     0.74904   0.10180   0.61459   0.00000  Uiso   1.00
H531   H     0.21760   0.68644   0.53422   0.00000  Uiso   1.00
H532   H     0.69906   0.02167   0.59649   0.00000  Uiso   1.00
H533   H     0.82653   0.10285   0.72738   0.00000  Uiso   1.00
H534   H     0.18891   0.77143   0.42252   0.00000  Uiso   1.00
H535   H     0.64981   0.92401   0.55385   0.00000  Uiso   1.00
H536   H     0.91861   0.09519   0.82986   0.00000  Uiso   1.00
H537   H     0.79654   0.03371   0.44067   0.00000  Uiso   1.00
H538   H     0.76772   0.11461   0.35075   0.00000  Uiso   1.00
H539   H     0.74917   0.94985   0.41303   0.00000  Uiso   1.00
H540   H     0.87664   0.03103   0.54392   0.00000  Uiso   1.00
H541   H     0.22958   0.71313   0.27361   0.00000  Uiso   1.00
H542   H     0.69048   0.86571   0.40495   0.00000  Uiso   1.00
H543   H     0.95928   0.03690   0.68096   0.00000  Uiso   1.00
O544   O     0.18941   0.79672   0.29204   0.00000  Uiso   1.00
O545   O     0.63812   0.84092   0.46436   0.00000  Uiso   1.00
O546   O     0.99078   0.06551   0.82647   0.00000  Uiso   1.00
N547   N     0.20244   0.74661   0.39982   0.00000  Uiso   1.00
N548   N     0.66588   0.92180   0.52260   0.00000  Uiso   1.00
N549   N     0.91719   0.08183   0.78065   0.00000  Uiso   1.00
N550   N     0.22433   0.71524   0.31970   0.00000  Uiso   1.00
N551   N     0.68777   0.89043   0.44248   0.00000  Uiso   1.00
N552   N     0.93907   0.05046   0.70053   0.00000  Uiso   1.00
C553   C     0.06550   0.87296   0.67164   0.00000  Uiso   1.00
C554   C     0.07657   0.92148   0.63832   0.00000  Uiso   1.00
C555   C     0.04993   0.96478   0.60645   0.00000  Uiso   1.00
C556   C     0.06599   0.00516   0.57914   0.00000  Uiso   1.00
C557   C     0.57692   0.58095   0.52676   0.00000  Uiso   1.00
C558   C     0.10123   0.86804   0.75360   0.00000  Uiso   1.00
C559   C     0.09533   0.86639   0.81866   0.00000  Uiso   1.00
C560   C     0.13216   0.86178   0.88839   0.00000  Uiso   1.00
C561   C     0.18138   0.85456   0.01499   0.00000  Uiso   1.00
C562   C     0.07070   0.82576   0.62858   0.00000  Uiso   1.00
C563   C     0.03913   0.78855   0.58854   0.00000  Uiso   1.00
C564   C     0.05025   0.74833   0.55303   0.00000  Uiso   1.00
C565   C     0.05205   0.67546   0.48552   0.00000  Uiso   1.00
C566   C     0.14138   0.86770   0.67978   0.00000  Uiso   1.00
C567   C     0.11778   0.91862   0.64274   0.00000  Uiso   1.00
C568   C     0.13389   0.95895   0.61547   0.00000  Uiso   1.00
C569   C     0.10728   0.00230   0.58357   0.00000  Uiso   1.00
C570   C     0.14245   0.86518   0.75803   0.00000  Uiso   1.00
C571   C     0.17929   0.86057   0.82767   0.00000  Uiso   1.00
C572   C     0.17345   0.85892   0.89282   0.00000  Uiso   1.00
C573   C     0.11191   0.82290   0.63300   0.00000  Uiso   1.00
C574   C     0.12309   0.78273   0.59755   0.00000  Uiso   1.00
C575   C     0.09154   0.74547   0.55746   0.00000  Uiso   1.00
H576   H     0.03341   0.87519   0.66820   0.00000  Uiso   1.00
H577   H     0.51804   0.46698   0.60305   0.00000  Uiso   1.00
H578   H     0.06343   0.86860   0.81522   0.00000  Uiso   1.00
H579   H     0.00724   0.79077   0.58513   0.00000  Uiso   1.00
H580   H     0.51918   0.56749   0.53279   0.00000  Uiso   1.00
H581   H     0.11490   0.86004   0.98017   0.00000  Uiso   1.00
H582   H     0.99639   0.69592   0.49499   0.00000  Uiso   1.00
H583   H     0.17347   0.86547   0.68323   0.00000  Uiso   1.00
H584   H     0.16579   0.95673   0.61890   0.00000  Uiso   1.00
H585   H     0.21118   0.85835   0.83107   0.00000  Uiso   1.00
H586   H     0.15498   0.78053   0.60099   0.00000  Uiso   1.00
H587   H     0.13910   0.05917   0.54566   0.00000  Uiso   1.00
H588   H     0.23482   0.85172   0.99304   0.00000  Uiso   1.00
H589   H     0.11631   0.68761   0.50786   0.00000  Uiso   1.00
O590   O     0.57156   0.62355   0.49666   0.00000  Uiso   1.00
O591   O     0.19714   0.85137   0.08360   0.00000  Uiso   1.00
O592   O     0.04166   0.63606   0.44705   0.00000  Uiso   1.00
N593   N     0.54845   0.55300   0.54464   0.00000  Uiso   1.00
N594   N     0.13794   0.85906   0.96291   0.00000  Uiso   1.00
N595   N     0.02716   0.70562   0.50932   0.00000  Uiso   1.00
N596   N     0.11298   0.04853   0.55156   0.00000  Uiso   1.00
N597   N     0.20247   0.85459   0.96983   0.00000  Uiso   1.00
N598   N     0.09168   0.70114   0.51624   0.00000  Uiso   1.00
C599   C     0.39447   0.94718   0.32542   0.00000  Uiso   1.00
C600   C     0.44168   0.93093   0.37089   0.00000  Uiso   1.00
C601   C     0.46803   0.94140   0.44771   0.00000  Uiso   1.00
C602   C     0.51027   0.92319   0.47876   0.00000  Uiso   1.00
C603   C     0.58123   0.90214   0.55611   0.00000  Uiso   1.00
C604   C     0.36937   0.89647   0.29183   0.00000  Uiso   1.00
C605   C     0.33492   0.87798   0.30217   0.00000  Uiso   1.00
C606   C     0.31629   0.83076   0.26665   0.00000  Uiso   1.00
C607   C     0.27497   0.75624   0.22121   0.00000  Uiso   1.00
C608   C     0.39166   0.97920   0.25772   0.00000  Uiso   1.00
C609   C     0.37595   0.03027   0.23936   0.00000  Uiso   1.00
C610   C     0.37607   0.05270   0.17512   0.00000  Uiso   1.00
C611   C     0.36936   0.10664   0.07672   0.00000  Uiso   1.00
C612   C     0.42261   0.89620   0.24397   0.00000  Uiso   1.00
C613   C     0.45696   0.90324   0.32665   0.00000  Uiso   1.00
C614   C     0.49917   0.88500   0.35759   0.00000  Uiso   1.00
C615   C     0.52558   0.89545   0.43444   0.00000  Uiso   1.00
C616   C     0.38465   0.86878   0.24759   0.00000  Uiso   1.00
C617   C     0.36606   0.82158   0.21205   0.00000  Uiso   1.00
C618   C     0.33160   0.80302   0.22233   0.00000  Uiso   1.00
C619   C     0.40694   0.95152   0.21348   0.00000  Uiso   1.00
C620   C     0.40709   0.97387   0.14925   0.00000  Uiso   1.00
C621   C     0.39138   0.02496   0.13080   0.00000  Uiso   1.00
H622   H     0.38257   0.96874   0.35986   0.00000  Uiso   1.00
H623   H     0.45619   0.96283   0.48193   0.00000  Uiso   1.00
H624   H     0.32310   0.89942   0.33640   0.00000  Uiso   1.00
H625   H     0.36412   0.05169   0.27361   0.00000  Uiso   1.00
H626   H     0.54454   0.94405   0.59776   0.00000  Uiso   1.00
H627   H     0.26391   0.81036   0.29088   0.00000  Uiso   1.00
H628   H     0.35041   0.13145   0.15848   0.00000  Uiso   1.00
H629   H     0.43451   0.87464   0.20952   0.00000  Uiso   1.00
H630   H     0.51099   0.86357   0.32334   0.00000  Uiso   1.00
H631   H     0.37790   0.80016   0.17782   0.00000  Uiso   1.00
H632   H     0.41892   0.95243   0.11503   0.00000  Uiso   1.00
H633   H     0.58902   0.86349   0.46905   0.00000  Uiso   1.00
H634   H     0.30839   0.72980   0.16217   0.00000  Uiso   1.00
H635   H     0.39488   0.05088   0.02977   0.00000  Uiso   1.00
O636   O     0.61615   0.89817   0.61099   0.00000  Uiso   1.00
O637   O     0.24796   0.72278   0.20838   0.00000  Uiso   1.00
O638   O     0.36144   0.14404   0.03467   0.00000  Uiso   1.00
N639   N     0.54452   0.92662   0.55184   0.00000  Uiso   1.00
N640   N     0.28215   0.80162   0.26494   0.00000  Uiso   1.00
N641   N     0.36300   0.10181   0.14114   0.00000  Uiso   1.00
N642   N     0.56845   0.88327   0.48258   0.00000  Uiso   1.00
N643   N     0.30608   0.75827   0.19568   0.00000  Uiso   1.00
N644   N     0.38694   0.05846   0.07188   0.00000  Uiso   1.00
C645   C     0.25992   0.41380   0.07474   0.00000  Uiso   1.00
C646   C     0.24943   0.37725   0.00696   0.00000  Uiso   1.00
C647   C     0.22842   0.32905   0.99460   0.00000  Uiso   1.00
C648   C     0.72187   0.80157   0.92916   0.00000  Uiso   1.00
C649   C     0.70344   0.74178   0.83168   0.00000  Uiso   1.00
C650   C     0.23935   0.46677   0.04079   0.00000  Uiso   1.00
C651   C     0.20986   0.49384   0.05688   0.00000  Uiso   1.00
C652   C     0.19483   0.54171   0.01992   0.00000  Uiso   1.00
C653   C     0.16077   0.62092   0.97500   0.00000  Uiso   1.00
C654   C     0.30861   0.42266   0.11190   0.00000  Uiso   1.00
C655   C     0.33736   0.41265   0.18779   0.00000  Uiso   1.00
C656   C     0.38064   0.42340   0.21072   0.00000  Uiso   1.00
C657   C     0.45411   0.43412   0.27621   0.00000  Uiso   1.00
C658   C     0.28566   0.45069   0.98052   0.00000  Uiso   1.00
C659   C     0.26341   0.39729   0.95578   0.00000  Uiso   1.00
C660   C     0.25690   0.36987   0.89035   0.00000  Uiso   1.00
C661   C     0.23588   0.32164   0.87789   0.00000  Uiso   1.00
C662   C     0.25333   0.48681   0.98961   0.00000  Uiso   1.00
C663   C     0.23834   0.53465   0.95263   0.00000  Uiso   1.00
C664   C     0.20884   0.56179   0.96865   0.00000  Uiso   1.00
C665   C     0.32259   0.44270   0.06072   0.00000  Uiso   1.00
C666   C     0.36583   0.45346   0.08354   0.00000  Uiso   1.00
C667   C     0.39464   0.44347   0.15944   0.00000  Uiso   1.00
H668   H     0.24904   0.39820   0.11459   0.00000  Uiso   1.00
H669   H     0.71760   0.81356   0.03422   0.00000  Uiso   1.00
H670   H     0.19906   0.47833   0.09649   0.00000  Uiso   1.00
H671   H     0.32653   0.39715   0.22738   0.00000  Uiso   1.00
H672   H     0.68891   0.72857   0.92252   0.00000  Uiso   1.00
H673   H     0.14981   0.57599   0.05385   0.00000  Uiso   1.00
H674   H     0.41861   0.40481   0.32986   0.00000  Uiso   1.00
H675   H     0.29654   0.46629   0.94067   0.00000  Uiso   1.00
H676   H     0.26772   0.38539   0.85075   0.00000  Uiso   1.00
H677   H     0.24917   0.55015   0.91303   0.00000  Uiso   1.00
H678   H     0.37664   0.46897   0.04392   0.00000  Uiso   1.00
H679   H     0.72958   0.78687   0.77361   0.00000  Uiso   1.00
H680   H     0.19048   0.63429   0.90495   0.00000  Uiso   1.00
H681   H     0.45928   0.46310   0.18096   0.00000  Uiso   1.00
O682   O     0.68941   0.70328   0.79204   0.00000  Uiso   1.00
O683   O     0.13812   0.65908   0.96436   0.00000  Uiso   1.00
O684   O     0.49078   0.43449   0.32647   0.00000  Uiso   1.00
N685   N     0.70244   0.75339   0.89982   0.00000  Uiso   1.00
N686   N     0.16588   0.57820   0.02260   0.00000  Uiso   1.00
N687   N     0.41719   0.41817   0.28065   0.00000  Uiso   1.00
N688   N     0.72433   0.78476   0.81970   0.00000  Uiso   1.00
N689   N     0.18777   0.60957   0.94248   0.00000  Uiso   1.00
N690   N     0.43907   0.44954   0.20053   0.00000  Uiso   1.00
C691   C     0.56550   0.37296   0.67164   0.00000  Uiso   1.00
C692   C     0.57657   0.42148   0.63832   0.00000  Uiso   1.00
C693   C     0.54993   0.46478   0.60645   0.00000  Uiso   1.00
C694   C     0.56599   0.50516   0.57914   0.00000  Uiso   1.00
C695   C     0.07692   0.08095   0.52676   0.00000  Uiso   1.00
C696   C     0.60123   0.36804   0.75360   0.00000  Uiso   1.00
C697   C     0.59533   0.36639   0.81866   0.00000  Uiso   1.00
C698   C     0.63216   0.36178   0.88839   0.00000  Uiso   1.00
C699   C     0.68138   0.35456   0.01499   0.00000  Uiso   1.00
C700   C     0.57070   0.32576   0.62858   0.00000  Uiso   1.00
C701   C     0.53913   0.28855   0.58854   0.00000  Uiso   1.00
C702   C     0.55025   0.24833   0.55303   0.00000  Uiso   1.00
C703   C     0.55205   0.17546   0.48552   0.00000  Uiso   1.00
C704   C     0.64138   0.36770   0.67978   0.00000  Uiso   1.00
C705   C     0.61778   0.41862   0.64274   0.00000  Uiso   1.00
C706   C     0.63389   0.45895   0.61547   0.00000  Uiso   1.00
C707   C     0.60728   0.50230   0.58357   0.00000  Uiso   1.00
C708   C     0.64245   0.36518   0.75803   0.00000  Uiso   1.00
C709   C     0.67929   0.36057   0.82767   0.00000  Uiso   1.00
C710   C     0.67345   0.35892   0.89282   0.00000  Uiso   1.00
C711   C     0.61191   0.32290   0.63300   0.00000  Uiso   1.00
C712   C     0.62309   0.28273   0.59755   0.00000  Uiso   1.00
C713   C     0.59154   0.24547   0.55746   0.00000  Uiso   1.00
H714   H     0.53341   0.37519   0.66820   0.00000  Uiso   1.00
H715   H     0.01804   0.96698   0.60305   0.00000  Uiso   1.00
H716   H     0.56343   0.36860   0.81522   0.00000  Uiso   1.00
H717   H     0.50724   0.29077   0.58513   0.00000  Uiso   1.00
H718   H     0.01918   0.06749   0.53279   0.00000  Uiso   1.00
H719   H     0.61490   0.36004   0.98017   0.00000  Uiso   1.00
H720   H     0.49639   0.19592   0.49499   0.00000  Uiso   1.00
H721   H     0.67347   0.36547   0.68323   0.00000  Uiso   1.00
H722   H     0.66579   0.45673   0.61890   0.00000  Uiso   1.00
H723   H     0.71118   0.35835   0.83107   0.00000  Uiso   1.00
H724   H     0.65498   0.28053   0.60099   0.00000  Uiso   1.00
H725   H     0.63910   0.55917   0.54566   0.00000  Uiso   1.00
H726   H     0.73482   0.35172   0.99304   0.00000  Uiso   1.00
H727   H     0.61631   0.18761   0.50786   0.00000  Uiso   1.00
O728   O     0.07156   0.12355   0.49666   0.00000  Uiso   1.00
O729   O     0.69714   0.35137   0.08360   0.00000  Uiso   1.00
O730   O     0.54166   0.13606   0.44705   0.00000  Uiso   1.00
N731   N     0.04845   0.05300   0.54464   0.00000  Uiso   1.00
N732   N     0.63794   0.35906   0.96291   0.00000  Uiso   1.00
N733   N     0.52716   0.20562   0.50932   0.00000  Uiso   1.00
N734   N     0.61298   0.54853   0.55156   0.00000  Uiso   1.00
N735   N     0.70247   0.35459   0.96983   0.00000  Uiso   1.00
N736   N     0.59168   0.20114   0.51624   0.00000  Uiso   1.00
C737   C     0.89447   0.44718   0.32542   0.00000  Uiso   1.00
C738   C     0.94168   0.43093   0.37089   0.00000  Uiso   1.00
C739   C     0.96803   0.44140   0.44771   0.00000  Uiso   1.00
C740   C     0.01027   0.42319   0.47876   0.00000  Uiso   1.00
C741   C     0.08123   0.40214   0.55611   0.00000  Uiso   1.00
C742   C     0.86937   0.39647   0.29183   0.00000  Uiso   1.00
C743   C     0.83492   0.37798   0.30217   0.00000  Uiso   1.00
C744   C     0.81629   0.33076   0.26665   0.00000  Uiso   1.00
C745   C     0.77497   0.25624   0.22121   0.00000  Uiso   1.00
C746   C     0.89166   0.47920   0.25772   0.00000  Uiso   1.00
C747   C     0.87595   0.53027   0.23936   0.00000  Uiso   1.00
C748   C     0.87607   0.55270   0.17512   0.00000  Uiso   1.00
C749   C     0.86936   0.60664   0.07672   0.00000  Uiso   1.00
C750   C     0.92261   0.39620   0.24397   0.00000  Uiso   1.00
C751   C     0.95696   0.40324   0.32665   0.00000  Uiso   1.00
C752   C     0.99917   0.38500   0.35759   0.00000  Uiso   1.00
C753   C     0.02558   0.39545   0.43444   0.00000  Uiso   1.00
C754   C     0.88465   0.36878   0.24759   0.00000  Uiso   1.00
C755   C     0.86606   0.32158   0.21205   0.00000  Uiso   1.00
C756   C     0.83160   0.30302   0.22233   0.00000  Uiso   1.00
C757   C     0.90694   0.45152   0.21348   0.00000  Uiso   1.00
C758   C     0.90709   0.47387   0.14925   0.00000  Uiso   1.00
C759   C     0.89138   0.52496   0.13080   0.00000  Uiso   1.00
H760   H     0.88257   0.46874   0.35986   0.00000  Uiso   1.00
H761   H     0.95619   0.46283   0.48193   0.00000  Uiso   1.00
H762   H     0.82310   0.39942   0.33640   0.00000  Uiso   1.00
H763   H     0.86412   0.55169   0.27361   0.00000  Uiso   1.00
H764   H     0.04454   0.44405   0.59776   0.00000  Uiso   1.00
H765   H     0.76391   0.31036   0.29088   0.00000  Uiso   1.00
H766   H     0.85041   0.63145   0.15848   0.00000  Uiso   1.00
H767   H     0.93451   0.37464   0.20952   0.00000  Uiso   1.00
H768   H     0.01099   0.36357   0.32334   0.00000  Uiso   1.00
H769   H     0.87790   0.30016   0.17782   0.00000  Uiso   1.00
H770   H     0.91892   0.45243   0.11503   0.00000  Uiso   1.00
H771   H     0.08902   0.36349   0.46905   0.00000  Uiso   1.00
H772   H     0.80839   0.22980   0.16217   0.00000  Uiso   1.00
H773   H     0.89488   0.55088   0.02977   0.00000  Uiso   1.00
O774   O     0.11615   0.39817   0.61099   0.00000  Uiso   1.00
O775   O     0.74796   0.22278   0.20838   0.00000  Uiso   1.00
O776   O     0.86144   0.64404   0.03467   0.00000  Uiso   1.00
N777   N     0.04452   0.42662   0.55184   0.00000  Uiso   1.00
N778   N     0.78215   0.30162   0.26494   0.00000  Uiso   1.00
N779   N     0.86300   0.60181   0.14114   0.00000  Uiso   1.00
N780   N     0.06845   0.38327   0.48258   0.00000  Uiso   1.00
N781   N     0.80608   0.25827   0.19568   0.00000  Uiso   1.00
N782   N     0.88694   0.55846   0.07188   0.00000  Uiso   1.00
C783   C     0.75992   0.91380   0.07474   0.00000  Uiso   1.00
C784   C     0.74943   0.87725   0.00696   0.00000  Uiso   1.00
C785   C     0.72842   0.82905   0.99460   0.00000  Uiso   1.00
C786   C     0.22187   0.30157   0.92916   0.00000  Uiso   1.00
C787   C     0.20344   0.24178   0.83168   0.00000  Uiso   1.00
C788   C     0.73935   0.96677   0.04079   0.00000  Uiso   1.00
C789   C     0.70986   0.99384   0.05688   0.00000  Uiso   1.00
C790   C     0.69483   0.04171   0.01992   0.00000  Uiso   1.00
C791   C     0.66077   0.12092   0.97500   0.00000  Uiso   1.00
C792   C     0.80861   0.92266   0.11190   0.00000  Uiso   1.00
C793   C     0.83736   0.91265   0.18779   0.00000  Uiso   1.00
C794   C     0.88064   0.92340   0.21072   0.00000  Uiso   1.00
C795   C     0.95411   0.93412   0.27621   0.00000  Uiso   1.00
C796   C     0.78566   0.95069   0.98052   0.00000  Uiso   1.00
C797   C     0.76341   0.89729   0.95578   0.00000  Uiso   1.00
C798   C     0.75690   0.86987   0.89035   0.00000  Uiso   1.00
C799   C     0.73588   0.82164   0.87789   0.00000  Uiso   1.00
C800   C     0.75333   0.98681   0.98961   0.00000  Uiso   1.00
C801   C     0.73834   0.03465   0.95263   0.00000  Uiso   1.00
C802   C     0.70884   0.06179   0.96865   0.00000  Uiso   1.00
C803   C     0.82259   0.94270   0.06072   0.00000  Uiso   1.00
C804   C     0.86583   0.95346   0.08354   0.00000  Uiso   1.00
C805   C     0.89464   0.94347   0.15944   0.00000  Uiso   1.00
H806   H     0.74904   0.89820   0.11459   0.00000  Uiso   1.00
H807   H     0.21760   0.31356   0.03422   0.00000  Uiso   1.00
H808   H     0.69906   0.97833   0.09649   0.00000  Uiso   1.00
H809   H     0.82653   0.89715   0.22738   0.00000  Uiso   1.00
H810   H     0.18891   0.22857   0.92252   0.00000  Uiso   1.00
H811   H     0.64981   0.07599   0.05385   0.00000  Uiso   1.00
H812   H     0.91861   0.90481   0.32986   0.00000  Uiso   1.00
H813   H     0.79654   0.96629   0.94067   0.00000  Uiso   1.00
H814   H     0.76772   0.88539   0.85075   0.00000  Uiso   1.00
H815   H     0.74917   0.05015   0.91303   0.00000  Uiso   1.00
H816   H     0.87664   0.96897   0.04392   0.00000  Uiso   1.00
H817   H     0.22958   0.28687   0.77361   0.00000  Uiso   1.00
H818   H     0.69048   0.13429   0.90495   0.00000  Uiso   1.00
H819   H     0.95928   0.96310   0.18096   0.00000  Uiso   1.00
O820   O     0.18941   0.20328   0.79204   0.00000  Uiso   1.00
O821   O     0.63812   0.15908   0.96436   0.00000  Uiso   1.00
O822   O     0.99078   0.93449   0.32647   0.00000  Uiso   1.00
N823   N     0.20244   0.25339   0.89982   0.00000  Uiso   1.00
N824   N     0.66588   0.07820   0.02260   0.00000  Uiso   1.00
N825   N     0.91719   0.91817   0.28065   0.00000  Uiso   1.00
N826   N     0.22433   0.28476   0.81970   0.00000  Uiso   1.00
N827   N     0.68777   0.10957   0.94248   0.00000  Uiso   1.00
N828   N     0.93907   0.94954   0.20053   0.00000  Uiso   1.00
C829   C     0.93450   0.87296   0.82836   0.00000  Uiso   1.00
C830   C     0.92343   0.92148   0.86168   0.00000  Uiso   1.00
C831   C     0.95007   0.96478   0.89355   0.00000  Uiso   1.00
C832   C     0.93401   0.00516   0.92086   0.00000  Uiso   1.00
C833   C     0.42308   0.58095   0.97324   0.00000  Uiso   1.00
C834   C     0.89877   0.86804   0.74640   0.00000  Uiso   1.00
C835   C     0.90467   0.86639   0.68134   0.00000  Uiso   1.00
C836   C     0.86784   0.86178   0.61161   0.00000  Uiso   1.00
C837   C     0.81862   0.85456   0.48501   0.00000  Uiso   1.00
C838   C     0.92930   0.82576   0.87142   0.00000  Uiso   1.00
C839   C     0.96087   0.78855   0.91146   0.00000  Uiso   1.00
C840   C     0.94975   0.74833   0.94697   0.00000  Uiso   1.00
C841   C     0.94795   0.67546   0.01448   0.00000  Uiso   1.00
C842   C     0.85862   0.86770   0.82022   0.00000  Uiso   1.00
C843   C     0.88222   0.91862   0.85726   0.00000  Uiso   1.00
C844   C     0.86611   0.95895   0.88453   0.00000  Uiso   1.00
C845   C     0.89272   0.00230   0.91643   0.00000  Uiso   1.00
C846   C     0.85755   0.86518   0.74197   0.00000  Uiso   1.00
C847   C     0.82071   0.86057   0.67233   0.00000  Uiso   1.00
C848   C     0.82655   0.85892   0.60718   0.00000  Uiso   1.00
C849   C     0.88809   0.82290   0.86700   0.00000  Uiso   1.00
C850   C     0.87691   0.78273   0.90245   0.00000  Uiso   1.00
C851   C     0.90846   0.74547   0.94254   0.00000  Uiso   1.00
H852   H     0.96659   0.87519   0.83180   0.00000  Uiso   1.00
H853   H     0.48196   0.46698   0.89695   0.00000  Uiso   1.00
H854   H     0.93657   0.86860   0.68478   0.00000  Uiso   1.00
H855   H     0.99276   0.79077   0.91487   0.00000  Uiso   1.00
H856   H     0.48082   0.56749   0.96721   0.00000  Uiso   1.00
H857   H     0.88510   0.86004   0.51983   0.00000  Uiso   1.00
H858   H     0.00361   0.69592   0.00501   0.00000  Uiso   1.00
H859   H     0.82653   0.86547   0.81677   0.00000  Uiso   1.00
H860   H     0.83421   0.95673   0.88110   0.00000  Uiso   1.00
H861   H     0.78882   0.85835   0.66893   0.00000  Uiso   1.00
H862   H     0.84502   0.78053   0.89901   0.00000  Uiso   1.00
H863   H     0.86090   0.05917   0.95434   0.00000  Uiso   1.00
H864   H     0.76518   0.85172   0.50696   0.00000  Uiso   1.00
H865   H     0.88369   0.68761   0.99214   0.00000  Uiso   1.00
O866   O     0.42844   0.62355   0.00334   0.00000  Uiso   1.00
O867   O     0.80286   0.85137   0.41640   0.00000  Uiso   1.00
O868   O     0.95834   0.63606   0.05295   0.00000  Uiso   1.00
N869   N     0.45155   0.55300   0.95536   0.00000  Uiso   1.00
N870   N     0.86206   0.85906   0.53709   0.00000  Uiso   1.00
N871   N     0.97284   0.70562   0.99068   0.00000  Uiso   1.00
N872   N     0.88702   0.04853   0.94844   0.00000  Uiso   1.00
N873   N     0.79753   0.85459   0.53017   0.00000  Uiso   1.00
N874   N     0.90832   0.70114   0.98376   0.00000  Uiso   1.00
C875   C     0.60553   0.94718   0.17458   0.00000  Uiso   1.00
C876   C     0.55832   0.93093   0.12911   0.00000  Uiso   1.00
C877   C     0.53197   0.94140   0.05229   0.00000  Uiso   1.00
C878   C     0.48973   0.92319   0.02124   0.00000  Uiso   1.00
C879   C     0.41877   0.90214   0.94389   0.00000  Uiso   1.00
C880   C     0.63063   0.89647   0.20817   0.00000  Uiso   1.00
C881   C     0.66508   0.87798   0.19783   0.00000  Uiso   1.00
C882   C     0.68371   0.83076   0.23335   0.00000  Uiso   1.00
C883   C     0.72503   0.75624   0.27879   0.00000  Uiso   1.00
C884   C     0.60834   0.97920   0.24228   0.00000  Uiso   1.00
C885   C     0.62405   0.03027   0.26064   0.00000  Uiso   1.00
C886   C     0.62393   0.05270   0.32488   0.00000  Uiso   1.00
C887   C     0.63064   0.10664   0.42328   0.00000  Uiso   1.00
C888   C     0.57739   0.89620   0.25603   0.00000  Uiso   1.00
C889   C     0.54304   0.90324   0.17335   0.00000  Uiso   1.00
C890   C     0.50083   0.88500   0.14241   0.00000  Uiso   1.00
C891   C     0.47442   0.89545   0.06556   0.00000  Uiso   1.00
C892   C     0.61535   0.86878   0.25241   0.00000  Uiso   1.00
C893   C     0.63394   0.82158   0.28795   0.00000  Uiso   1.00
C894   C     0.66840   0.80302   0.27767   0.00000  Uiso   1.00
C895   C     0.59306   0.95152   0.28652   0.00000  Uiso   1.00
C896   C     0.59291   0.97387   0.35075   0.00000  Uiso   1.00
C897   C     0.60862   0.02496   0.36920   0.00000  Uiso   1.00
H898   H     0.61743   0.96874   0.14014   0.00000  Uiso   1.00
H899   H     0.54381   0.96283   0.01807   0.00000  Uiso   1.00
H900   H     0.67690   0.89942   0.16360   0.00000  Uiso   1.00
H901   H     0.63588   0.05169   0.22639   0.00000  Uiso   1.00
H902   H     0.45546   0.94405   0.90224   0.00000  Uiso   1.00
H903   H     0.73609   0.81036   0.20912   0.00000  Uiso   1.00
H904   H     0.64959   0.13145   0.34152   0.00000  Uiso   1.00
H905   H     0.56549   0.87464   0.29048   0.00000  Uiso   1.00
H906   H     0.48901   0.86357   0.17666   0.00000  Uiso   1.00
H907   H     0.62210   0.80016   0.32218   0.00000  Uiso   1.00
H908   H     0.58108   0.95243   0.38497   0.00000  Uiso   1.00
H909   H     0.41098   0.86349   0.03095   0.00000  Uiso   1.00
H910   H     0.69161   0.72980   0.33783   0.00000  Uiso   1.00
H911   H     0.60512   0.05088   0.47023   0.00000  Uiso   1.00
O912   O     0.38385   0.89817   0.88901   0.00000  Uiso   1.00
O913   O     0.75204   0.72278   0.29162   0.00000  Uiso   1.00
O914   O     0.63856   0.14404   0.46533   0.00000  Uiso   1.00
N915   N     0.45548   0.92662   0.94816   0.00000  Uiso   1.00
N916   N     0.71785   0.80162   0.23506   0.00000  Uiso   1.00
N917   N     0.63700   0.10181   0.35886   0.00000  Uiso   1.00
N918   N     0.43155   0.88327   0.01742   0.00000  Uiso   1.00
N919   N     0.69392   0.75827   0.30432   0.00000  Uiso   1.00
N920   N     0.61306   0.05846   0.42812   0.00000  Uiso   1.00
C921   C     0.74008   0.41380   0.42526   0.00000  Uiso   1.00
C922   C     0.75057   0.37725   0.49304   0.00000  Uiso   1.00
C923   C     0.77158   0.32905   0.50540   0.00000  Uiso   1.00
C924   C     0.27813   0.80157   0.57084   0.00000  Uiso   1.00
C925   C     0.29656   0.74178   0.66832   0.00000  Uiso   1.00
C926   C     0.76065   0.46677   0.45921   0.00000  Uiso   1.00
C927   C     0.79014   0.49384   0.44312   0.00000  Uiso   1.00
C928   C     0.80517   0.54171   0.48008   0.00000  Uiso   1.00
C929   C     0.83923   0.62092   0.52500   0.00000  Uiso   1.00
C930   C     0.69139   0.42266   0.38810   0.00000  Uiso   1.00
C931   C     0.66264   0.41265   0.31221   0.00000  Uiso   1.00
C932   C     0.61936   0.42340   0.28928   0.00000  Uiso   1.00
C933   C     0.54589   0.43412   0.22379   0.00000  Uiso   1.00
C934   C     0.71434   0.45069   0.51948   0.00000  Uiso   1.00
C935   C     0.73659   0.39729   0.54422   0.00000  Uiso   1.00
C936   C     0.74310   0.36987   0.60965   0.00000  Uiso   1.00
C937   C     0.76412   0.32164   0.62211   0.00000  Uiso   1.00
C938   C     0.74667   0.48681   0.51039   0.00000  Uiso   1.00
C939   C     0.76166   0.53465   0.54737   0.00000  Uiso   1.00
C940   C     0.79116   0.56179   0.53135   0.00000  Uiso   1.00
C941   C     0.67741   0.44270   0.43928   0.00000  Uiso   1.00
C942   C     0.63417   0.45346   0.41646   0.00000  Uiso   1.00
C943   C     0.60536   0.44347   0.34056   0.00000  Uiso   1.00
H944   H     0.75096   0.39820   0.38541   0.00000  Uiso   1.00
H945   H     0.28240   0.81356   0.46578   0.00000  Uiso   1.00
H946   H     0.80094   0.47833   0.40351   0.00000  Uiso   1.00
H947   H     0.67347   0.39715   0.27262   0.00000  Uiso   1.00
H948   H     0.31109   0.72857   0.57748   0.00000  Uiso   1.00
H949   H     0.85019   0.57599   0.44615   0.00000  Uiso   1.00
H950   H     0.58139   0.40481   0.17014   0.00000  Uiso   1.00
H951   H     0.70346   0.46629   0.55933   0.00000  Uiso   1.00
H952   H     0.73228   0.38539   0.64925   0.00000  Uiso   1.00
H953   H     0.75083   0.55015   0.58697   0.00000  Uiso   1.00
H954   H     0.62336   0.46897   0.45608   0.00000  Uiso   1.00
H955   H     0.27042   0.78687   0.72639   0.00000  Uiso   1.00
H956   H     0.80952   0.63429   0.59505   0.00000  Uiso   1.00
H957   H     0.54072   0.46310   0.31904   0.00000  Uiso   1.00
O958   O     0.31059   0.70328   0.70796   0.00000  Uiso   1.00
O959   O     0.86188   0.65908   0.53564   0.00000  Uiso   1.00
O960   O     0.50922   0.43449   0.17353   0.00000  Uiso   1.00
N961   N     0.29756   0.75339   0.60018   0.00000  Uiso   1.00
N962   N     0.83412   0.57820   0.47740   0.00000  Uiso   1.00
N963   N     0.58281   0.41817   0.21935   0.00000  Uiso   1.00
N964   N     0.27567   0.78476   0.68030   0.00000  Uiso   1.00
N965   N     0.81223   0.60957   0.55752   0.00000  Uiso   1.00
N966   N     0.56093   0.44954   0.29947   0.00000  Uiso   1.00
C967   C     0.43450   0.37296   0.82836   0.00000  Uiso   1.00
C968   C     0.42343   0.42148   0.86168   0.00000  Uiso   1.00
C969   C     0.45007   0.46478   0.89355   0.00000  Uiso   1.00
C970   C     0.43401   0.50516   0.92086   0.00000  Uiso   1.00
C971   C     0.92308   0.08095   0.97324   0.00000  Uiso   1.00
C972   C     0.39877   0.36804   0.74640   0.00000  Uiso   1.00
C973   C     0.40467   0.36639   0.68134   0.00000  Uiso   1.00
C974   C     0.36784   0.36178   0.61161   0.00000  Uiso   1.00
C975   C     0.31862   0.35456   0.48501   0.00000  Uiso   1.00
C976   C     0.42930   0.32576   0.87142   0.00000  Uiso   1.00
C977   C     0.46087   0.28855   0.91146   0.00000  Uiso   1.00
C978   C     0.44975   0.24833   0.94697   0.00000  Uiso   1.00
C979   C     0.44795   0.17546   0.01448   0.00000  Uiso   1.00
C980   C     0.35862   0.36770   0.82022   0.00000  Uiso   1.00
C981   C     0.38222   0.41862   0.85726   0.00000  Uiso   1.00
C982   C     0.36611   0.45895   0.88453   0.00000  Uiso   1.00
C983   C     0.39272   0.50230   0.91643   0.00000  Uiso   1.00
C984   C     0.35755   0.36518   0.74197   0.00000  Uiso   1.00
C985   C     0.32071   0.36057   0.67233   0.00000  Uiso   1.00
C986   C     0.32655   0.35892   0.60718   0.00000  Uiso   1.00
C987   C     0.38809   0.32290   0.86700   0.00000  Uiso   1.00
C988   C     0.37691   0.28273   0.90245   0.00000  Uiso   1.00
C989   C     0.40846   0.24547   0.94254   0.00000  Uiso   1.00
H990   H     0.46659   0.37519   0.83180   0.00000  Uiso   1.00
H991   H     0.98196   0.96698   0.89695   0.00000  Uiso   1.00
H992   H     0.43657   0.36860   0.68478   0.00000  Uiso   1.00
H993   H     0.49276   0.29077   0.91487   0.00000  Uiso   1.00
H994   H     0.98082   0.06749   0.96721   0.00000  Uiso   1.00
H995   H     0.38510   0.36004   0.51983   0.00000  Uiso   1.00
H996   H     0.50361   0.19592   0.00501   0.00000  Uiso   1.00
H997   H     0.32653   0.36547   0.81677   0.00000  Uiso   1.00
H998   H     0.33421   0.45673   0.88110   0.00000  Uiso   1.00
H999   H     0.28882   0.35835   0.66893   0.00000  Uiso   1.00
H1000  H     0.34502   0.28053   0.89901   0.00000  Uiso   1.00
H1001  H     0.36090   0.55917   0.95434   0.00000  Uiso   1.00
H1002  H     0.26518   0.35172   0.50696   0.00000  Uiso   1.00
H1003  H     0.38369   0.18761   0.99214   0.00000  Uiso   1.00
O1004  O     0.92844   0.12355   0.00334   0.00000  Uiso   1.00
O1005  O     0.30286   0.35137   0.41640   0.00000  Uiso   1.00
O1006  O     0.45834   0.13606   0.05295   0.00000  Uiso   1.00
N1007  N     0.95155   0.05300   0.95536   0.00000  Uiso   1.00
N1008  N     0.36206   0.35906   0.53709   0.00000  Uiso   1.00
N1009  N     0.47284   0.20562   0.99068   0.00000  Uiso   1.00
N1010  N     0.38702   0.54853   0.94844   0.00000  Uiso   1.00
N1011  N     0.29753   0.35459   0.53017   0.00000  Uiso   1.00
N1012  N     0.40832   0.20114   0.98376   0.00000  Uiso   1.00
C1013  C     0.10553   0.44718   0.17458   0.00000  Uiso   1.00
C1014  C     0.05832   0.43093   0.12911   0.00000  Uiso   1.00
C1015  C     0.03197   0.44140   0.05229   0.00000  Uiso   1.00
C1016  C     0.98973   0.42319   0.02124   0.00000  Uiso   1.00
C1017  C     0.91877   0.40214   0.94389   0.00000  Uiso   1.00
C1018  C     0.13063   0.39647   0.20817   0.00000  Uiso   1.00
C1019  C     0.16508   0.37798   0.19783   0.00000  Uiso   1.00
C1020  C     0.18371   0.33076   0.23335   0.00000  Uiso   1.00
C1021  C     0.22503   0.25624   0.27879   0.00000  Uiso   1.00
C1022  C     0.10834   0.47920   0.24228   0.00000  Uiso   1.00
C1023  C     0.12405   0.53027   0.26064   0.00000  Uiso   1.00
C1024  C     0.12393   0.55270   0.32488   0.00000  Uiso   1.00
C1025  C     0.13064   0.60664   0.42328   0.00000  Uiso   1.00
C1026  C     0.07739   0.39620   0.25603   0.00000  Uiso   1.00
C1027  C     0.04304   0.40324   0.17335   0.00000  Uiso   1.00
C1028  C     0.00083   0.38500   0.14241   0.00000  Uiso   1.00
C1029  C     0.97442   0.39545   0.06556   0.00000  Uiso   1.00
C1030  C     0.11535   0.36878   0.25241   0.00000  Uiso   1.00
C1031  C     0.13394   0.32158   0.28795   0.00000  Uiso   1.00
C1032  C     0.16840   0.30302   0.27767   0.00000  Uiso   1.00
C1033  C     0.09306   0.45152   0.28652   0.00000  Uiso   1.00
C1034  C     0.09291   0.47387   0.35075   0.00000  Uiso   1.00
C1035  C     0.10862   0.52496   0.36920   0.00000  Uiso   1.00
H1036  H     0.11743   0.46874   0.14014   0.00000  Uiso   1.00
H1037  H     0.04381   0.46283   0.01807   0.00000  Uiso   1.00
H1038  H     0.17690   0.39942   0.16360   0.00000  Uiso   1.00
H1039  H     0.13588   0.55169   0.22639   0.00000  Uiso   1.00
H1040  H     0.95546   0.44405   0.90224   0.00000  Uiso   1.00
H1041  H     0.23609   0.31036   0.20912   0.00000  Uiso   1.00
H1042  H     0.14959   0.63145   0.34152   0.00000  Uiso   1.00
H1043  H     0.06549   0.37464   0.29048   0.00000  Uiso   1.00
H1044  H     0.98901   0.36357   0.17666   0.00000  Uiso   1.00
H1045  H     0.12210   0.30016   0.32218   0.00000  Uiso   1.00
H1046  H     0.08108   0.45243   0.38497   0.00000  Uiso   1.00
H1047  H     0.91098   0.36349   0.03095   0.00000  Uiso   1.00
H1048  H     0.19161   0.22980   0.33783   0.00000  Uiso   1.00
H1049  H     0.10512   0.55088   0.47023   0.00000  Uiso   1.00
O1050  O     0.88385   0.39817   0.88901   0.00000  Uiso   1.00
O1051  O     0.25204   0.22278   0.29162   0.00000  Uiso   1.00
O1052  O     0.13856   0.64404   0.46533   0.00000  Uiso   1.00
N1053  N     0.95548   0.42662   0.94816   0.00000  Uiso   1.00
N1054  N     0.21785   0.30162   0.23506   0.00000  Uiso   1.00
N1055  N     0.13700   0.60181   0.35886   0.00000  Uiso   1.00
N1056  N     0.93155   0.38327   0.01742   0.00000  Uiso   1.00
N1057  N     0.19392   0.25827   0.30432   0.00000  Uiso   1.00
N1058  N     0.11306   0.55846   0.42812   0.00000  Uiso   1.00
C1059  C     0.24008   0.91380   0.42526   0.00000  Uiso   1.00
C1060  C     0.25057   0.87725   0.49304   0.00000  Uiso   1.00
C1061  C     0.27158   0.82905   0.50540   0.00000  Uiso   1.00
C1062  C     0.77813   0.30157   0.57084   0.00000  Uiso   1.00
C1063  C     0.79656   0.24178   0.66832   0.00000  Uiso   1.00
C1064  C     0.26065   0.96677   0.45921   0.00000  Uiso   1.00
C1065  C     0.29014   0.99384   0.44312   0.00000  Uiso   1.00
C1066  C     0.30517   0.04171   0.48008   0.00000  Uiso   1.00
C1067  C     0.33923   0.12092   0.52500   0.00000  Uiso   1.00
C1068  C     0.19139   0.92266   0.38810   0.00000  Uiso   1.00
C1069  C     0.16264   0.91265   0.31221   0.00000  Uiso   1.00
C1070  C     0.11936   0.92340   0.28928   0.00000  Uiso   1.00
C1071  C     0.04589   0.93412   0.22379   0.00000  Uiso   1.00
C1072  C     0.21434   0.95069   0.51948   0.00000  Uiso   1.00
C1073  C     0.23659   0.89729   0.54422   0.00000  Uiso   1.00
C1074  C     0.24310   0.86987   0.60965   0.00000  Uiso   1.00
C1075  C     0.26412   0.82164   0.62211   0.00000  Uiso   1.00
C1076  C     0.24667   0.98681   0.51039   0.00000  Uiso   1.00
C1077  C     0.26166   0.03465   0.54737   0.00000  Uiso   1.00
C1078  C     0.29116   0.06179   0.53135   0.00000  Uiso   1.00
C1079  C     0.17741   0.94270   0.43928   0.00000  Uiso   1.00
C1080  C     0.13417   0.95346   0.41646   0.00000  Uiso   1.00
C1081  C     0.10536   0.94347   0.34056   0.00000  Uiso   1.00
H1082  H     0.25096   0.89820   0.38541   0.00000  Uiso   1.00
H1083  H     0.78240   0.31356   0.46578   0.00000  Uiso   1.00
H1084  H     0.30094   0.97833   0.40351   0.00000  Uiso   1.00
H1085  H     0.17347   0.89715   0.27262   0.00000  Uiso   1.00
H1086  H     0.81109   0.22857   0.57748   0.00000  Uiso   1.00
H1087  H     0.35019   0.07599   0.44615   0.00000  Uiso   1.00
H1088  H     0.08139   0.90481   0.17014   0.00000  Uiso   1.00
H1089  H     0.20346   0.96629   0.55933   0.00000  Uiso   1.00
H1090  H     0.23228   0.88539   0.64925   0.00000  Uiso   1.00
H1091  H     0.25083   0.05015   0.58697   0.00000  Uiso   1.00
H1092  H     0.12336   0.96897   0.45608   0.00000  Uiso   1.00
H1093  H     0.77042   0.28687   0.72639   0.00000  Uiso   1.00
H1094  H     0.30952   0.13429   0.59505   0.00000  Uiso   1.00
H1095  H     0.04072   0.96310   0.31904   0.00000  Uiso   1.00
O1096  O     0.81059   0.20328   0.70796   0.00000  Uiso   1.00
O1097  O     0.36188   0.15908   0.53564   0.00000  Uiso   1.00
O1098  O     0.00922   0.93449   0.17353   0.00000  Uiso   1.00
N1099  N     0.79756   0.25339   0.60018   0.00000  Uiso   1.00
N1100  N     0.33412   0.07820   0.47740   0.00000  Uiso   1.00
N1101  N     0.08281   0.91817   0.21935   0.00000  Uiso   1.00
N1102  N     0.77567   0.28476   0.68030   0.00000  Uiso   1.00
N1103  N     0.31223   0.10957   0.55752   0.00000  Uiso   1.00
N1104  N     0.06093   0.94954   0.29947   0.00000  Uiso   1.00
