data_job_05219
_audit_creation_date              2018-12-19
_audit_creation_method            'Materials Studio'
_symmetry_space_group_name_H-M    'P1'
_symmetry_Int_Tables_number       1
_symmetry_cell_setting            triclinic
loop_
_symmetry_equiv_pos_as_xyz
  x,y,z
_cell_length_a                    21.0287
_cell_length_b                    21.0287
_cell_length_c                    23.1369
_cell_angle_alpha                 90.0000
_cell_angle_beta                  90.0000
_cell_angle_gamma                 90.0000
loop_
_atom_site_label
_atom_site_type_symbol
_atom_site_fract_x
_atom_site_fract_y
_atom_site_fract_z
_atom_site_U_iso_or_equiv
_atom_site_adp_type
_atom_site_occupancy
C1     C     0.24926   0.55150   0.65100   0.00000  Uiso   1.00
C2     C     0.21489   0.54594   0.70881   0.00000  Uiso   1.00
C3     C     0.15903   0.57698   0.72379   0.00000  Uiso   1.00
C4     C     0.13515   0.56560   0.77877   0.00000  Uiso   1.00
C5     C     0.07710   0.56322   0.86268   0.00000  Uiso   1.00
C6     C     0.31675   0.57300   0.66510   0.00000  Uiso   1.00
C7     C     0.34654   0.62680   0.64331   0.00000  Uiso   1.00
C8     C     0.40842   0.63820   0.66149   0.00000  Uiso   1.00
C9     C     0.50853   0.67781   0.67751   0.00000  Uiso   1.00
C10    C     0.25515   0.48390   0.62776   0.00000  Uiso   1.00
C11    C     0.23316   0.46278   0.57456   0.00000  Uiso   1.00
C12    C     0.24319   0.39917   0.56129   0.00000  Uiso   1.00
C13    C     0.24766   0.30044   0.51932   0.00000  Uiso   1.00
C14    C     0.30619   0.47611   0.72202   0.00000  Uiso   1.00
C15    C     0.24581   0.50498   0.74739   0.00000  Uiso   1.00
C16    C     0.22202   0.49356   0.80237   0.00000  Uiso   1.00
C17    C     0.16613   0.52458   0.81742   0.00000  Uiso   1.00
C18    C     0.34768   0.53205   0.70368   0.00000  Uiso   1.00
C19    C     0.40953   0.54338   0.72189   0.00000  Uiso   1.00
C20    C     0.43940   0.59718   0.70014   0.00000  Uiso   1.00
C21    C     0.28607   0.44295   0.66633   0.00000  Uiso   1.00
C22    C     0.29615   0.37936   0.65314   0.00000  Uiso   1.00
C23    C     0.27417   0.35815   0.59994   0.00000  Uiso   1.00
H24    H     0.22518   0.58339   0.62096   0.00000  Uiso   1.00
H25    H     0.13511   0.60867   0.69392   0.00000  Uiso   1.00
H26    H     0.32260   0.65848   0.61346   0.00000  Uiso   1.00
H27    H     0.20923   0.49449   0.54472   0.00000  Uiso   1.00
H28    H     0.04890   0.61866   0.79183   0.00000  Uiso   1.00
H29    H     0.44423   0.72367   0.62215   0.00000  Uiso   1.00
H30    H     0.20518   0.37786   0.47719   0.00000  Uiso   1.00
H31    H     0.33027   0.44422   0.75206   0.00000  Uiso   1.00
H32    H     0.24596   0.46186   0.83221   0.00000  Uiso   1.00
H33    H     0.43344   0.51167   0.75175   0.00000  Uiso   1.00
H34    H     0.32008   0.34769   0.68301   0.00000  Uiso   1.00
H35    H     0.13887   0.49951   0.90407   0.00000  Uiso   1.00
H36    H     0.53420   0.60452   0.73439   0.00000  Uiso   1.00
H37    H     0.29515   0.25872   0.58944   0.00000  Uiso   1.00
O38    O     0.03654   0.57322   0.89831   0.00000  Uiso   1.00
O39    O     0.55520   0.71098   0.67569   0.00000  Uiso   1.00
O40    O     0.24157   0.25730   0.48552   0.00000  Uiso   1.00
N41    N     0.08164   0.58818   0.80724   0.00000  Uiso   1.00
N42    N     0.45124   0.68637   0.64860   0.00000  Uiso   1.00
N43    N     0.22777   0.36308   0.51308   0.00000  Uiso   1.00
N44    N     0.13005   0.52407   0.86764   0.00000  Uiso   1.00
N45    N     0.49965   0.62225   0.70900   0.00000  Uiso   1.00
N46    N     0.27618   0.29896   0.57348   0.00000  Uiso   1.00
C47    C     0.74926   0.05150   0.15100   0.00000  Uiso   1.00
C48    C     0.71489   0.04594   0.20881   0.00000  Uiso   1.00
C49    C     0.65903   0.07698   0.22379   0.00000  Uiso   1.00
C50    C     0.63515   0.06560   0.27877   0.00000  Uiso   1.00
C51    C     0.57710   0.06322   0.36268   0.00000  Uiso   1.00
C52    C     0.81675   0.07300   0.16510   0.00000  Uiso   1.00
C53    C     0.84654   0.12680   0.14331   0.00000  Uiso   1.00
C54    C     0.90842   0.13820   0.16149   0.00000  Uiso   1.00
C55    C     0.00853   0.17781   0.17751   0.00000  Uiso   1.00
C56    C     0.75515   0.98390   0.12776   0.00000  Uiso   1.00
C57    C     0.73316   0.96278   0.07456   0.00000  Uiso   1.00
C58    C     0.74319   0.89917   0.06129   0.00000  Uiso   1.00
C59    C     0.74766   0.80044   0.01932   0.00000  Uiso   1.00
C60    C     0.80619   0.97611   0.22202   0.00000  Uiso   1.00
C61    C     0.74581   0.00498   0.24739   0.00000  Uiso   1.00
C62    C     0.72202   0.99356   0.30237   0.00000  Uiso   1.00
C63    C     0.66613   0.02458   0.31742   0.00000  Uiso   1.00
C64    C     0.84768   0.03205   0.20368   0.00000  Uiso   1.00
C65    C     0.90953   0.04338   0.22189   0.00000  Uiso   1.00
C66    C     0.93940   0.09718   0.20014   0.00000  Uiso   1.00
C67    C     0.78607   0.94295   0.16633   0.00000  Uiso   1.00
C68    C     0.79615   0.87936   0.15314   0.00000  Uiso   1.00
C69    C     0.77417   0.85815   0.09994   0.00000  Uiso   1.00
H70    H     0.72518   0.08339   0.12096   0.00000  Uiso   1.00
H71    H     0.63511   0.10867   0.19392   0.00000  Uiso   1.00
H72    H     0.82260   0.15848   0.11346   0.00000  Uiso   1.00
H73    H     0.70923   0.99449   0.04472   0.00000  Uiso   1.00
H74    H     0.54890   0.11866   0.29183   0.00000  Uiso   1.00
H75    H     0.94423   0.22367   0.12215   0.00000  Uiso   1.00
H76    H     0.70518   0.87786   0.97719   0.00000  Uiso   1.00
H77    H     0.83027   0.94422   0.25206   0.00000  Uiso   1.00
H78    H     0.74596   0.96186   0.33221   0.00000  Uiso   1.00
H79    H     0.93344   0.01167   0.25175   0.00000  Uiso   1.00
H80    H     0.82008   0.84769   0.18301   0.00000  Uiso   1.00
H81    H     0.63887   0.99951   0.40407   0.00000  Uiso   1.00
H82    H     0.03420   0.10452   0.23439   0.00000  Uiso   1.00
H83    H     0.79515   0.75872   0.08944   0.00000  Uiso   1.00
O84    O     0.53654   0.07322   0.39831   0.00000  Uiso   1.00
O85    O     0.05520   0.21098   0.17569   0.00000  Uiso   1.00
O86    O     0.74157   0.75730   0.98552   0.00000  Uiso   1.00
N87    N     0.58164   0.08818   0.30724   0.00000  Uiso   1.00
N88    N     0.95124   0.18637   0.14860   0.00000  Uiso   1.00
N89    N     0.72777   0.86308   0.01308   0.00000  Uiso   1.00
N90    N     0.63005   0.02407   0.36764   0.00000  Uiso   1.00
N91    N     0.99965   0.12225   0.20900   0.00000  Uiso   1.00
N92    N     0.77618   0.79896   0.07348   0.00000  Uiso   1.00
C93    C     0.25074   0.94850   0.15100   0.00000  Uiso   1.00
C94    C     0.28511   0.95406   0.20881   0.00000  Uiso   1.00
C95    C     0.34097   0.92302   0.22379   0.00000  Uiso   1.00
C96    C     0.36485   0.93440   0.27877   0.00000  Uiso   1.00
C97    C     0.42290   0.93678   0.36268   0.00000  Uiso   1.00
C98    C     0.18325   0.92700   0.16510   0.00000  Uiso   1.00
C99    C     0.15346   0.87320   0.14331   0.00000  Uiso   1.00
C100   C     0.09158   0.86180   0.16149   0.00000  Uiso   1.00
C101   C     0.99147   0.82219   0.17751   0.00000  Uiso   1.00
C102   C     0.24485   0.01610   0.12776   0.00000  Uiso   1.00
C103   C     0.26684   0.03722   0.07456   0.00000  Uiso   1.00
C104   C     0.25681   0.10083   0.06129   0.00000  Uiso   1.00
C105   C     0.25234   0.19956   0.01932   0.00000  Uiso   1.00
C106   C     0.19381   0.02389   0.22202   0.00000  Uiso   1.00
C107   C     0.25419   0.99502   0.24739   0.00000  Uiso   1.00
C108   C     0.27798   0.00644   0.30237   0.00000  Uiso   1.00
C109   C     0.33387   0.97542   0.31742   0.00000  Uiso   1.00
C110   C     0.15232   0.96795   0.20368   0.00000  Uiso   1.00
C111   C     0.09047   0.95662   0.22189   0.00000  Uiso   1.00
C112   C     0.06060   0.90282   0.20014   0.00000  Uiso   1.00
C113   C     0.21393   0.05705   0.16633   0.00000  Uiso   1.00
C114   C     0.20385   0.12064   0.15314   0.00000  Uiso   1.00
C115   C     0.22583   0.14185   0.09994   0.00000  Uiso   1.00
H116   H     0.27482   0.91661   0.12096   0.00000  Uiso   1.00
H117   H     0.36489   0.89133   0.19392   0.00000  Uiso   1.00
H118   H     0.17740   0.84152   0.11346   0.00000  Uiso   1.00
H119   H     0.29077   0.00551   0.04472   0.00000  Uiso   1.00
H120   H     0.45110   0.88134   0.29183   0.00000  Uiso   1.00
H121   H     0.05577   0.77633   0.12215   0.00000  Uiso   1.00
H122   H     0.29482   0.12214   0.97719   0.00000  Uiso   1.00
H123   H     0.16973   0.05578   0.25206   0.00000  Uiso   1.00
H124   H     0.25404   0.03814   0.33221   0.00000  Uiso   1.00
H125   H     0.06656   0.98833   0.25175   0.00000  Uiso   1.00
H126   H     0.17992   0.15231   0.18301   0.00000  Uiso   1.00
H127   H     0.36113   0.00049   0.40407   0.00000  Uiso   1.00
H128   H     0.96580   0.89548   0.23439   0.00000  Uiso   1.00
H129   H     0.20485   0.24128   0.08944   0.00000  Uiso   1.00
O130   O     0.46346   0.92678   0.39831   0.00000  Uiso   1.00
O131   O     0.94480   0.78902   0.17569   0.00000  Uiso   1.00
O132   O     0.25843   0.24270   0.98552   0.00000  Uiso   1.00
N133   N     0.41836   0.91182   0.30724   0.00000  Uiso   1.00
N134   N     0.04876   0.81363   0.14860   0.00000  Uiso   1.00
N135   N     0.27223   0.13692   0.01308   0.00000  Uiso   1.00
N136   N     0.36995   0.97593   0.36764   0.00000  Uiso   1.00
N137   N     0.00035   0.87775   0.20900   0.00000  Uiso   1.00
N138   N     0.22382   0.20104   0.07348   0.00000  Uiso   1.00
C139   C     0.75074   0.44850   0.65100   0.00000  Uiso   1.00
C140   C     0.78511   0.45406   0.70881   0.00000  Uiso   1.00
C141   C     0.84097   0.42302   0.72379   0.00000  Uiso   1.00
C142   C     0.86485   0.43440   0.77877   0.00000  Uiso   1.00
C143   C     0.92290   0.43678   0.86268   0.00000  Uiso   1.00
C144   C     0.68325   0.42700   0.66510   0.00000  Uiso   1.00
C145   C     0.65346   0.37320   0.64331   0.00000  Uiso   1.00
C146   C     0.59158   0.36180   0.66149   0.00000  Uiso   1.00
C147   C     0.49147   0.32219   0.67751   0.00000  Uiso   1.00
C148   C     0.74485   0.51610   0.62776   0.00000  Uiso   1.00
C149   C     0.76684   0.53722   0.57456   0.00000  Uiso   1.00
C150   C     0.75681   0.60083   0.56129   0.00000  Uiso   1.00
C151   C     0.75234   0.69956   0.51932   0.00000  Uiso   1.00
C152   C     0.69381   0.52389   0.72202   0.00000  Uiso   1.00
C153   C     0.75419   0.49502   0.74739   0.00000  Uiso   1.00
C154   C     0.77798   0.50644   0.80237   0.00000  Uiso   1.00
C155   C     0.83387   0.47542   0.81742   0.00000  Uiso   1.00
C156   C     0.65232   0.46795   0.70368   0.00000  Uiso   1.00
C157   C     0.59047   0.45662   0.72189   0.00000  Uiso   1.00
C158   C     0.56060   0.40282   0.70014   0.00000  Uiso   1.00
C159   C     0.71393   0.55705   0.66633   0.00000  Uiso   1.00
C160   C     0.70385   0.62064   0.65314   0.00000  Uiso   1.00
C161   C     0.72583   0.64185   0.59994   0.00000  Uiso   1.00
H162   H     0.77482   0.41661   0.62096   0.00000  Uiso   1.00
H163   H     0.86489   0.39133   0.69392   0.00000  Uiso   1.00
H164   H     0.67740   0.34152   0.61346   0.00000  Uiso   1.00
H165   H     0.79077   0.50551   0.54472   0.00000  Uiso   1.00
H166   H     0.95110   0.38134   0.79183   0.00000  Uiso   1.00
H167   H     0.55577   0.27633   0.62215   0.00000  Uiso   1.00
H168   H     0.79482   0.62214   0.47719   0.00000  Uiso   1.00
H169   H     0.66973   0.55578   0.75206   0.00000  Uiso   1.00
H170   H     0.75404   0.53814   0.83221   0.00000  Uiso   1.00
H171   H     0.56656   0.48833   0.75175   0.00000  Uiso   1.00
H172   H     0.67992   0.65231   0.68301   0.00000  Uiso   1.00
H173   H     0.86113   0.50049   0.90407   0.00000  Uiso   1.00
H174   H     0.46580   0.39548   0.73439   0.00000  Uiso   1.00
H175   H     0.70485   0.74128   0.58944   0.00000  Uiso   1.00
O176   O     0.96346   0.42678   0.89831   0.00000  Uiso   1.00
O177   O     0.44480   0.28902   0.67569   0.00000  Uiso   1.00
O178   O     0.75843   0.74270   0.48552   0.00000  Uiso   1.00
N179   N     0.91836   0.41182   0.80724   0.00000  Uiso   1.00
N180   N     0.54876   0.31363   0.64860   0.00000  Uiso   1.00
N181   N     0.77223   0.63692   0.51308   0.00000  Uiso   1.00
N182   N     0.86995   0.47593   0.86764   0.00000  Uiso   1.00
N183   N     0.50035   0.37775   0.70900   0.00000  Uiso   1.00
N184   N     0.72382   0.70104   0.57348   0.00000  Uiso   1.00
C185   C     0.44850   0.74926   0.90100   0.00000  Uiso   1.00
C186   C     0.45406   0.71489   0.95881   0.00000  Uiso   1.00
C187   C     0.42302   0.65903   0.97379   0.00000  Uiso   1.00
C188   C     0.43440   0.63515   0.02877   0.00000  Uiso   1.00
C189   C     0.43678   0.57710   0.11268   0.00000  Uiso   1.00
C190   C     0.42700   0.81675   0.91510   0.00000  Uiso   1.00
C191   C     0.37320   0.84654   0.89331   0.00000  Uiso   1.00
C192   C     0.36180   0.90842   0.91149   0.00000  Uiso   1.00
C193   C     0.32219   0.00853   0.92751   0.00000  Uiso   1.00
C194   C     0.51610   0.75515   0.87776   0.00000  Uiso   1.00
C195   C     0.53722   0.73316   0.82456   0.00000  Uiso   1.00
C196   C     0.60083   0.74319   0.81129   0.00000  Uiso   1.00
C197   C     0.69956   0.74766   0.76932   0.00000  Uiso   1.00
C198   C     0.52389   0.80619   0.97202   0.00000  Uiso   1.00
C199   C     0.49502   0.74581   0.99739   0.00000  Uiso   1.00
C200   C     0.50644   0.72202   0.05237   0.00000  Uiso   1.00
C201   C     0.47542   0.66613   0.06742   0.00000  Uiso   1.00
C202   C     0.46795   0.84768   0.95368   0.00000  Uiso   1.00
C203   C     0.45662   0.90953   0.97189   0.00000  Uiso   1.00
C204   C     0.40282   0.93940   0.95014   0.00000  Uiso   1.00
C205   C     0.55705   0.78607   0.91633   0.00000  Uiso   1.00
C206   C     0.62064   0.79615   0.90314   0.00000  Uiso   1.00
C207   C     0.64185   0.77417   0.84994   0.00000  Uiso   1.00
H208   H     0.41661   0.72518   0.87096   0.00000  Uiso   1.00
H209   H     0.39133   0.63511   0.94392   0.00000  Uiso   1.00
H210   H     0.34152   0.82260   0.86346   0.00000  Uiso   1.00
H211   H     0.50551   0.70923   0.79472   0.00000  Uiso   1.00
H212   H     0.38134   0.54890   0.04183   0.00000  Uiso   1.00
H213   H     0.27633   0.94423   0.87215   0.00000  Uiso   1.00
H214   H     0.62214   0.70518   0.72719   0.00000  Uiso   1.00
H215   H     0.55578   0.83027   0.00206   0.00000  Uiso   1.00
H216   H     0.53814   0.74596   0.08221   0.00000  Uiso   1.00
H217   H     0.48833   0.93344   0.00175   0.00000  Uiso   1.00
H218   H     0.65231   0.82008   0.93301   0.00000  Uiso   1.00
H219   H     0.50049   0.63887   0.15407   0.00000  Uiso   1.00
H220   H     0.39548   0.03420   0.98439   0.00000  Uiso   1.00
H221   H     0.74128   0.79515   0.83944   0.00000  Uiso   1.00
O222   O     0.42678   0.53654   0.14831   0.00000  Uiso   1.00
O223   O     0.28902   0.05520   0.92569   0.00000  Uiso   1.00
O224   O     0.74270   0.74157   0.73552   0.00000  Uiso   1.00
N225   N     0.41182   0.58164   0.05724   0.00000  Uiso   1.00
N226   N     0.31363   0.95124   0.89860   0.00000  Uiso   1.00
N227   N     0.63692   0.72777   0.76308   0.00000  Uiso   1.00
N228   N     0.47593   0.63005   0.11764   0.00000  Uiso   1.00
N229   N     0.37775   0.99965   0.95900   0.00000  Uiso   1.00
N230   N     0.70104   0.77618   0.82348   0.00000  Uiso   1.00
C231   C     0.94850   0.24926   0.40100   0.00000  Uiso   1.00
C232   C     0.95406   0.21489   0.45881   0.00000  Uiso   1.00
C233   C     0.92302   0.15903   0.47379   0.00000  Uiso   1.00
C234   C     0.93440   0.13515   0.52877   0.00000  Uiso   1.00
C235   C     0.93678   0.07710   0.61268   0.00000  Uiso   1.00
C236   C     0.92700   0.31675   0.41510   0.00000  Uiso   1.00
C237   C     0.87320   0.34654   0.39331   0.00000  Uiso   1.00
C238   C     0.86180   0.40842   0.41149   0.00000  Uiso   1.00
C239   C     0.82219   0.50853   0.42751   0.00000  Uiso   1.00
C240   C     0.01610   0.25515   0.37776   0.00000  Uiso   1.00
C241   C     0.03722   0.23316   0.32456   0.00000  Uiso   1.00
C242   C     0.10083   0.24319   0.31129   0.00000  Uiso   1.00
C243   C     0.19956   0.24766   0.26932   0.00000  Uiso   1.00
C244   C     0.02389   0.30619   0.47202   0.00000  Uiso   1.00
C245   C     0.99502   0.24581   0.49739   0.00000  Uiso   1.00
C246   C     0.00644   0.22202   0.55237   0.00000  Uiso   1.00
C247   C     0.97542   0.16613   0.56742   0.00000  Uiso   1.00
C248   C     0.96795   0.34768   0.45368   0.00000  Uiso   1.00
C249   C     0.95662   0.40953   0.47189   0.00000  Uiso   1.00
C250   C     0.90282   0.43940   0.45014   0.00000  Uiso   1.00
C251   C     0.05705   0.28607   0.41633   0.00000  Uiso   1.00
C252   C     0.12064   0.29615   0.40314   0.00000  Uiso   1.00
C253   C     0.14185   0.27417   0.34994   0.00000  Uiso   1.00
H254   H     0.91661   0.22518   0.37096   0.00000  Uiso   1.00
H255   H     0.89133   0.13511   0.44392   0.00000  Uiso   1.00
H256   H     0.84152   0.32260   0.36346   0.00000  Uiso   1.00
H257   H     0.00551   0.20923   0.29472   0.00000  Uiso   1.00
H258   H     0.88134   0.04890   0.54183   0.00000  Uiso   1.00
H259   H     0.77633   0.44423   0.37215   0.00000  Uiso   1.00
H260   H     0.12214   0.20518   0.22719   0.00000  Uiso   1.00
H261   H     0.05578   0.33027   0.50206   0.00000  Uiso   1.00
H262   H     0.03814   0.24596   0.58221   0.00000  Uiso   1.00
H263   H     0.98833   0.43344   0.50175   0.00000  Uiso   1.00
H264   H     0.15231   0.32008   0.43301   0.00000  Uiso   1.00
H265   H     0.00049   0.13887   0.65407   0.00000  Uiso   1.00
H266   H     0.89548   0.53420   0.48439   0.00000  Uiso   1.00
H267   H     0.24128   0.29515   0.33944   0.00000  Uiso   1.00
O268   O     0.92678   0.03654   0.64831   0.00000  Uiso   1.00
O269   O     0.78902   0.55520   0.42569   0.00000  Uiso   1.00
O270   O     0.24270   0.24157   0.23552   0.00000  Uiso   1.00
N271   N     0.91182   0.08164   0.55724   0.00000  Uiso   1.00
N272   N     0.81363   0.45124   0.39860   0.00000  Uiso   1.00
N273   N     0.13692   0.22777   0.26308   0.00000  Uiso   1.00
N274   N     0.97593   0.13005   0.61764   0.00000  Uiso   1.00
N275   N     0.87775   0.49965   0.45900   0.00000  Uiso   1.00
N276   N     0.20104   0.27618   0.32348   0.00000  Uiso   1.00
C277   C     0.05150   0.75074   0.40100   0.00000  Uiso   1.00
C278   C     0.04594   0.78511   0.45881   0.00000  Uiso   1.00
C279   C     0.07698   0.84097   0.47379   0.00000  Uiso   1.00
C280   C     0.06560   0.86485   0.52877   0.00000  Uiso   1.00
C281   C     0.06322   0.92290   0.61268   0.00000  Uiso   1.00
C282   C     0.07300   0.68325   0.41510   0.00000  Uiso   1.00
C283   C     0.12680   0.65346   0.39331   0.00000  Uiso   1.00
C284   C     0.13820   0.59158   0.41149   0.00000  Uiso   1.00
C285   C     0.17781   0.49147   0.42751   0.00000  Uiso   1.00
C286   C     0.98390   0.74485   0.37776   0.00000  Uiso   1.00
C287   C     0.96278   0.76684   0.32456   0.00000  Uiso   1.00
C288   C     0.89917   0.75681   0.31129   0.00000  Uiso   1.00
C289   C     0.80044   0.75234   0.26932   0.00000  Uiso   1.00
C290   C     0.97611   0.69381   0.47202   0.00000  Uiso   1.00
C291   C     0.00498   0.75419   0.49739   0.00000  Uiso   1.00
C292   C     0.99356   0.77798   0.55237   0.00000  Uiso   1.00
C293   C     0.02458   0.83387   0.56742   0.00000  Uiso   1.00
C294   C     0.03205   0.65232   0.45368   0.00000  Uiso   1.00
C295   C     0.04338   0.59047   0.47189   0.00000  Uiso   1.00
C296   C     0.09718   0.56060   0.45014   0.00000  Uiso   1.00
C297   C     0.94295   0.71393   0.41633   0.00000  Uiso   1.00
C298   C     0.87936   0.70385   0.40314   0.00000  Uiso   1.00
C299   C     0.85815   0.72583   0.34994   0.00000  Uiso   1.00
H300   H     0.08339   0.77482   0.37096   0.00000  Uiso   1.00
H301   H     0.10867   0.86489   0.44392   0.00000  Uiso   1.00
H302   H     0.15848   0.67740   0.36346   0.00000  Uiso   1.00
H303   H     0.99449   0.79077   0.29472   0.00000  Uiso   1.00
H304   H     0.11866   0.95110   0.54183   0.00000  Uiso   1.00
H305   H     0.22367   0.55577   0.37215   0.00000  Uiso   1.00
H306   H     0.87786   0.79482   0.22719   0.00000  Uiso   1.00
H307   H     0.94422   0.66973   0.50206   0.00000  Uiso   1.00
H308   H     0.96186   0.75404   0.58221   0.00000  Uiso   1.00
H309   H     0.01167   0.56656   0.50175   0.00000  Uiso   1.00
H310   H     0.84769   0.67992   0.43301   0.00000  Uiso   1.00
H311   H     0.99951   0.86113   0.65407   0.00000  Uiso   1.00
H312   H     0.10452   0.46580   0.48439   0.00000  Uiso   1.00
H313   H     0.75872   0.70485   0.33944   0.00000  Uiso   1.00
O314   O     0.07322   0.96346   0.64831   0.00000  Uiso   1.00
O315   O     0.21098   0.44480   0.42569   0.00000  Uiso   1.00
O316   O     0.75730   0.75843   0.23552   0.00000  Uiso   1.00
N317   N     0.08818   0.91836   0.55724   0.00000  Uiso   1.00
N318   N     0.18637   0.54876   0.39860   0.00000  Uiso   1.00
N319   N     0.86308   0.77223   0.26308   0.00000  Uiso   1.00
N320   N     0.02407   0.86995   0.61764   0.00000  Uiso   1.00
N321   N     0.12225   0.50035   0.45900   0.00000  Uiso   1.00
N322   N     0.79896   0.72382   0.32348   0.00000  Uiso   1.00
C323   C     0.55150   0.25074   0.90100   0.00000  Uiso   1.00
C324   C     0.54594   0.28511   0.95881   0.00000  Uiso   1.00
C325   C     0.57698   0.34097   0.97379   0.00000  Uiso   1.00
C326   C     0.56560   0.36485   0.02877   0.00000  Uiso   1.00
C327   C     0.56322   0.42290   0.11268   0.00000  Uiso   1.00
C328   C     0.57300   0.18325   0.91510   0.00000  Uiso   1.00
C329   C     0.62680   0.15346   0.89331   0.00000  Uiso   1.00
C330   C     0.63820   0.09158   0.91149   0.00000  Uiso   1.00
C331   C     0.67781   0.99147   0.92751   0.00000  Uiso   1.00
C332   C     0.48390   0.24485   0.87776   0.00000  Uiso   1.00
C333   C     0.46278   0.26684   0.82456   0.00000  Uiso   1.00
C334   C     0.39917   0.25681   0.81129   0.00000  Uiso   1.00
C335   C     0.30044   0.25234   0.76932   0.00000  Uiso   1.00
C336   C     0.47611   0.19381   0.97202   0.00000  Uiso   1.00
C337   C     0.50498   0.25419   0.99739   0.00000  Uiso   1.00
C338   C     0.49356   0.27798   0.05237   0.00000  Uiso   1.00
C339   C     0.52458   0.33387   0.06742   0.00000  Uiso   1.00
C340   C     0.53205   0.15232   0.95368   0.00000  Uiso   1.00
C341   C     0.54338   0.09047   0.97189   0.00000  Uiso   1.00
C342   C     0.59718   0.06060   0.95014   0.00000  Uiso   1.00
C343   C     0.44295   0.21393   0.91633   0.00000  Uiso   1.00
C344   C     0.37936   0.20385   0.90314   0.00000  Uiso   1.00
C345   C     0.35815   0.22583   0.84994   0.00000  Uiso   1.00
H346   H     0.58339   0.27482   0.87096   0.00000  Uiso   1.00
H347   H     0.60867   0.36489   0.94392   0.00000  Uiso   1.00
H348   H     0.65848   0.17740   0.86346   0.00000  Uiso   1.00
H349   H     0.49449   0.29077   0.79472   0.00000  Uiso   1.00
H350   H     0.61866   0.45110   0.04183   0.00000  Uiso   1.00
H351   H     0.72367   0.05577   0.87215   0.00000  Uiso   1.00
H352   H     0.37786   0.29482   0.72719   0.00000  Uiso   1.00
H353   H     0.44422   0.16973   0.00206   0.00000  Uiso   1.00
H354   H     0.46186   0.25404   0.08221   0.00000  Uiso   1.00
H355   H     0.51167   0.06656   0.00175   0.00000  Uiso   1.00
H356   H     0.34769   0.17992   0.93301   0.00000  Uiso   1.00
H357   H     0.49951   0.36113   0.15407   0.00000  Uiso   1.00
H358   H     0.60452   0.96580   0.98439   0.00000  Uiso   1.00
H359   H     0.25872   0.20485   0.83944   0.00000  Uiso   1.00
O360   O     0.57322   0.46346   0.14831   0.00000  Uiso   1.00
O361   O     0.71098   0.94480   0.92569   0.00000  Uiso   1.00
O362   O     0.25730   0.25843   0.73552   0.00000  Uiso   1.00
N363   N     0.58818   0.41836   0.05724   0.00000  Uiso   1.00
N364   N     0.68637   0.04876   0.89860   0.00000  Uiso   1.00
N365   N     0.36308   0.27223   0.76308   0.00000  Uiso   1.00
N366   N     0.52407   0.36995   0.11764   0.00000  Uiso   1.00
N367   N     0.62225   0.00035   0.95900   0.00000  Uiso   1.00
N368   N     0.29896   0.22382   0.82348   0.00000  Uiso   1.00
C369   C     0.75074   0.94850   0.59900   0.00000  Uiso   1.00
C370   C     0.78511   0.95406   0.54119   0.00000  Uiso   1.00
C371   C     0.84097   0.92302   0.52621   0.00000  Uiso   1.00
C372   C     0.86485   0.93440   0.47123   0.00000  Uiso   1.00
C373   C     0.92290   0.93678   0.38732   0.00000  Uiso   1.00
C374   C     0.68325   0.92700   0.58490   0.00000  Uiso   1.00
C375   C     0.65346   0.87320   0.60669   0.00000  Uiso   1.00
C376   C     0.59158   0.86180   0.58851   0.00000  Uiso   1.00
C377   C     0.49147   0.82219   0.57249   0.00000  Uiso   1.00
C378   C     0.74485   0.01610   0.62224   0.00000  Uiso   1.00
C379   C     0.76684   0.03722   0.67544   0.00000  Uiso   1.00
C380   C     0.75681   0.10083   0.68871   0.00000  Uiso   1.00
C381   C     0.75234   0.19956   0.73068   0.00000  Uiso   1.00
C382   C     0.69381   0.02389   0.52798   0.00000  Uiso   1.00
C383   C     0.75419   0.99502   0.50261   0.00000  Uiso   1.00
C384   C     0.77798   0.00644   0.44763   0.00000  Uiso   1.00
C385   C     0.83387   0.97542   0.43258   0.00000  Uiso   1.00
C386   C     0.65232   0.96795   0.54632   0.00000  Uiso   1.00
C387   C     0.59047   0.95662   0.52811   0.00000  Uiso   1.00
C388   C     0.56060   0.90282   0.54986   0.00000  Uiso   1.00
C389   C     0.71393   0.05705   0.58367   0.00000  Uiso   1.00
C390   C     0.70385   0.12064   0.59686   0.00000  Uiso   1.00
C391   C     0.72583   0.14185   0.65006   0.00000  Uiso   1.00
H392   H     0.77482   0.91661   0.62904   0.00000  Uiso   1.00
H393   H     0.86489   0.89133   0.55608   0.00000  Uiso   1.00
H394   H     0.67740   0.84152   0.63654   0.00000  Uiso   1.00
H395   H     0.79077   0.00551   0.70528   0.00000  Uiso   1.00
H396   H     0.95110   0.88134   0.45817   0.00000  Uiso   1.00
H397   H     0.55577   0.77633   0.62785   0.00000  Uiso   1.00
H398   H     0.79482   0.12214   0.77281   0.00000  Uiso   1.00
H399   H     0.66973   0.05578   0.49794   0.00000  Uiso   1.00
H400   H     0.75404   0.03814   0.41779   0.00000  Uiso   1.00
H401   H     0.56656   0.98833   0.49825   0.00000  Uiso   1.00
H402   H     0.67992   0.15231   0.56699   0.00000  Uiso   1.00
H403   H     0.86113   0.00049   0.34593   0.00000  Uiso   1.00
H404   H     0.46580   0.89548   0.51561   0.00000  Uiso   1.00
H405   H     0.70485   0.24128   0.66056   0.00000  Uiso   1.00
O406   O     0.96346   0.92678   0.35169   0.00000  Uiso   1.00
O407   O     0.44480   0.78902   0.57431   0.00000  Uiso   1.00
O408   O     0.75843   0.24270   0.76448   0.00000  Uiso   1.00
N409   N     0.91836   0.91182   0.44276   0.00000  Uiso   1.00
N410   N     0.54876   0.81363   0.60140   0.00000  Uiso   1.00
N411   N     0.77223   0.13692   0.73692   0.00000  Uiso   1.00
N412   N     0.86995   0.97593   0.38236   0.00000  Uiso   1.00
N413   N     0.50035   0.87775   0.54100   0.00000  Uiso   1.00
N414   N     0.72382   0.20104   0.67652   0.00000  Uiso   1.00
C415   C     0.25074   0.44850   0.09900   0.00000  Uiso   1.00
C416   C     0.28511   0.45406   0.04119   0.00000  Uiso   1.00
C417   C     0.34097   0.42302   0.02621   0.00000  Uiso   1.00
C418   C     0.36485   0.43440   0.97123   0.00000  Uiso   1.00
C419   C     0.42290   0.43678   0.88732   0.00000  Uiso   1.00
C420   C     0.18325   0.42700   0.08490   0.00000  Uiso   1.00
C421   C     0.15346   0.37320   0.10669   0.00000  Uiso   1.00
C422   C     0.09158   0.36180   0.08851   0.00000  Uiso   1.00
C423   C     0.99147   0.32219   0.07249   0.00000  Uiso   1.00
C424   C     0.24485   0.51610   0.12224   0.00000  Uiso   1.00
C425   C     0.26684   0.53722   0.17544   0.00000  Uiso   1.00
C426   C     0.25681   0.60083   0.18871   0.00000  Uiso   1.00
C427   C     0.25234   0.69956   0.23068   0.00000  Uiso   1.00
C428   C     0.19381   0.52389   0.02798   0.00000  Uiso   1.00
C429   C     0.25419   0.49502   0.00261   0.00000  Uiso   1.00
C430   C     0.27798   0.50644   0.94763   0.00000  Uiso   1.00
C431   C     0.33387   0.47542   0.93258   0.00000  Uiso   1.00
C432   C     0.15232   0.46795   0.04632   0.00000  Uiso   1.00
C433   C     0.09047   0.45662   0.02811   0.00000  Uiso   1.00
C434   C     0.06060   0.40282   0.04986   0.00000  Uiso   1.00
C435   C     0.21393   0.55705   0.08367   0.00000  Uiso   1.00
C436   C     0.20385   0.62064   0.09686   0.00000  Uiso   1.00
C437   C     0.22583   0.64185   0.15006   0.00000  Uiso   1.00
H438   H     0.27482   0.41661   0.12904   0.00000  Uiso   1.00
H439   H     0.36489   0.39133   0.05608   0.00000  Uiso   1.00
H440   H     0.17740   0.34152   0.13654   0.00000  Uiso   1.00
H441   H     0.29077   0.50551   0.20528   0.00000  Uiso   1.00
H442   H     0.45110   0.38134   0.95817   0.00000  Uiso   1.00
H443   H     0.05577   0.27633   0.12785   0.00000  Uiso   1.00
H444   H     0.29482   0.62214   0.27281   0.00000  Uiso   1.00
H445   H     0.16973   0.55578   0.99794   0.00000  Uiso   1.00
H446   H     0.25404   0.53814   0.91779   0.00000  Uiso   1.00
H447   H     0.06656   0.48833   0.99825   0.00000  Uiso   1.00
H448   H     0.17992   0.65231   0.06699   0.00000  Uiso   1.00
H449   H     0.36113   0.50049   0.84593   0.00000  Uiso   1.00
H450   H     0.96580   0.39548   0.01561   0.00000  Uiso   1.00
H451   H     0.20485   0.74128   0.16056   0.00000  Uiso   1.00
O452   O     0.46346   0.42678   0.85169   0.00000  Uiso   1.00
O453   O     0.94480   0.28902   0.07431   0.00000  Uiso   1.00
O454   O     0.25843   0.74270   0.26448   0.00000  Uiso   1.00
N455   N     0.41836   0.41182   0.94276   0.00000  Uiso   1.00
N456   N     0.04876   0.31363   0.10140   0.00000  Uiso   1.00
N457   N     0.27223   0.63692   0.23692   0.00000  Uiso   1.00
N458   N     0.36995   0.47593   0.88236   0.00000  Uiso   1.00
N459   N     0.00035   0.37775   0.04100   0.00000  Uiso   1.00
N460   N     0.22382   0.70104   0.17652   0.00000  Uiso   1.00
C461   C     0.74926   0.55150   0.09900   0.00000  Uiso   1.00
C462   C     0.71489   0.54594   0.04119   0.00000  Uiso   1.00
C463   C     0.65903   0.57698   0.02621   0.00000  Uiso   1.00
C464   C     0.63515   0.56560   0.97123   0.00000  Uiso   1.00
C465   C     0.57710   0.56322   0.88732   0.00000  Uiso   1.00
C466   C     0.81675   0.57300   0.08490   0.00000  Uiso   1.00
C467   C     0.84654   0.62680   0.10669   0.00000  Uiso   1.00
C468   C     0.90842   0.63820   0.08851   0.00000  Uiso   1.00
C469   C     0.00853   0.67781   0.07249   0.00000  Uiso   1.00
C470   C     0.75515   0.48390   0.12224   0.00000  Uiso   1.00
C471   C     0.73316   0.46278   0.17544   0.00000  Uiso   1.00
C472   C     0.74319   0.39917   0.18871   0.00000  Uiso   1.00
C473   C     0.74766   0.30044   0.23068   0.00000  Uiso   1.00
C474   C     0.80619   0.47611   0.02798   0.00000  Uiso   1.00
C475   C     0.74581   0.50498   0.00261   0.00000  Uiso   1.00
C476   C     0.72202   0.49356   0.94763   0.00000  Uiso   1.00
C477   C     0.66613   0.52458   0.93258   0.00000  Uiso   1.00
C478   C     0.84768   0.53205   0.04632   0.00000  Uiso   1.00
C479   C     0.90953   0.54338   0.02811   0.00000  Uiso   1.00
C480   C     0.93940   0.59718   0.04986   0.00000  Uiso   1.00
C481   C     0.78607   0.44295   0.08367   0.00000  Uiso   1.00
C482   C     0.79615   0.37936   0.09686   0.00000  Uiso   1.00
C483   C     0.77417   0.35815   0.15006   0.00000  Uiso   1.00
H484   H     0.72518   0.58339   0.12904   0.00000  Uiso   1.00
H485   H     0.63511   0.60867   0.05608   0.00000  Uiso   1.00
H486   H     0.82260   0.65848   0.13654   0.00000  Uiso   1.00
H487   H     0.70923   0.49449   0.20528   0.00000  Uiso   1.00
H488   H     0.54890   0.61866   0.95817   0.00000  Uiso   1.00
H489   H     0.94423   0.72367   0.12785   0.00000  Uiso   1.00
H490   H     0.70518   0.37786   0.27281   0.00000  Uiso   1.00
H491   H     0.83027   0.44422   0.99794   0.00000  Uiso   1.00
H492   H     0.74596   0.46186   0.91779   0.00000  Uiso   1.00
H493   H     0.93344   0.51167   0.99825   0.00000  Uiso   1.00
H494   H     0.82008   0.34769   0.06699   0.00000  Uiso   1.00
H495   H     0.63887   0.49951   0.84593   0.00000  Uiso   1.00
H496   H     0.03420   0.60452   0.01561   0.00000  Uiso   1.00
H497   H     0.79515   0.25872   0.16056   0.00000  Uiso   1.00
O498   O     0.53654   0.57322   0.85169   0.00000  Uiso   1.00
O499   O     0.05520   0.71098   0.07431   0.00000  Uiso   1.00
O500   O     0.74157   0.25730   0.26448   0.00000  Uiso   1.00
N501   N     0.58164   0.58818   0.94276   0.00000  Uiso   1.00
N502   N     0.95124   0.68637   0.10140   0.00000  Uiso   1.00
N503   N     0.72777   0.36308   0.23692   0.00000  Uiso   1.00
N504   N     0.63005   0.52407   0.88236   0.00000  Uiso   1.00
N505   N     0.99965   0.62225   0.04100   0.00000  Uiso   1.00
N506   N     0.77618   0.29896   0.17652   0.00000  Uiso   1.00
C507   C     0.24926   0.05150   0.59900   0.00000  Uiso   1.00
C508   C     0.21489   0.04594   0.54119   0.00000  Uiso   1.00
C509   C     0.15903   0.07698   0.52621   0.00000  Uiso   1.00
C510   C     0.13515   0.06560   0.47123   0.00000  Uiso   1.00
C511   C     0.07710   0.06322   0.38732   0.00000  Uiso   1.00
C512   C     0.31675   0.07300   0.58490   0.00000  Uiso   1.00
C513   C     0.34654   0.12680   0.60669   0.00000  Uiso   1.00
C514   C     0.40842   0.13820   0.58851   0.00000  Uiso   1.00
C515   C     0.50853   0.17781   0.57249   0.00000  Uiso   1.00
C516   C     0.25515   0.98390   0.62224   0.00000  Uiso   1.00
C517   C     0.23316   0.96278   0.67544   0.00000  Uiso   1.00
C518   C     0.24319   0.89917   0.68871   0.00000  Uiso   1.00
C519   C     0.24766   0.80044   0.73068   0.00000  Uiso   1.00
C520   C     0.30619   0.97611   0.52798   0.00000  Uiso   1.00
C521   C     0.24581   0.00498   0.50261   0.00000  Uiso   1.00
C522   C     0.22202   0.99356   0.44763   0.00000  Uiso   1.00
C523   C     0.16613   0.02458   0.43258   0.00000  Uiso   1.00
C524   C     0.34768   0.03205   0.54632   0.00000  Uiso   1.00
C525   C     0.40953   0.04338   0.52811   0.00000  Uiso   1.00
C526   C     0.43940   0.09718   0.54986   0.00000  Uiso   1.00
C527   C     0.28607   0.94295   0.58367   0.00000  Uiso   1.00
C528   C     0.29615   0.87936   0.59686   0.00000  Uiso   1.00
C529   C     0.27417   0.85815   0.65006   0.00000  Uiso   1.00
H530   H     0.22518   0.08339   0.62904   0.00000  Uiso   1.00
H531   H     0.13511   0.10867   0.55608   0.00000  Uiso   1.00
H532   H     0.32260   0.15848   0.63654   0.00000  Uiso   1.00
H533   H     0.20923   0.99449   0.70528   0.00000  Uiso   1.00
H534   H     0.04890   0.11866   0.45817   0.00000  Uiso   1.00
H535   H     0.44423   0.22367   0.62785   0.00000  Uiso   1.00
H536   H     0.20518   0.87786   0.77281   0.00000  Uiso   1.00
H537   H     0.33027   0.94422   0.49794   0.00000  Uiso   1.00
H538   H     0.24596   0.96186   0.41779   0.00000  Uiso   1.00
H539   H     0.43344   0.01167   0.49825   0.00000  Uiso   1.00
H540   H     0.32008   0.84769   0.56699   0.00000  Uiso   1.00
H541   H     0.13887   0.99951   0.34593   0.00000  Uiso   1.00
H542   H     0.53420   0.10452   0.51561   0.00000  Uiso   1.00
H543   H     0.29515   0.75872   0.66056   0.00000  Uiso   1.00
O544   O     0.03654   0.07322   0.35169   0.00000  Uiso   1.00
O545   O     0.55520   0.21098   0.57431   0.00000  Uiso   1.00
O546   O     0.24157   0.75730   0.76448   0.00000  Uiso   1.00
N547   N     0.08164   0.08818   0.44276   0.00000  Uiso   1.00
N548   N     0.45124   0.18637   0.60140   0.00000  Uiso   1.00
N549   N     0.22777   0.86308   0.73692   0.00000  Uiso   1.00
N550   N     0.13005   0.02407   0.38236   0.00000  Uiso   1.00
N551   N     0.49965   0.12225   0.54100   0.00000  Uiso   1.00
N552   N     0.27618   0.79896   0.67652   0.00000  Uiso   1.00
C553   C     0.55150   0.75074   0.34900   0.00000  Uiso   1.00
C554   C     0.54594   0.78511   0.29119   0.00000  Uiso   1.00
C555   C     0.57698   0.84097   0.27621   0.00000  Uiso   1.00
C556   C     0.56560   0.86485   0.22123   0.00000  Uiso   1.00
C557   C     0.56322   0.92290   0.13732   0.00000  Uiso   1.00
C558   C     0.57300   0.68325   0.33490   0.00000  Uiso   1.00
C559   C     0.62680   0.65346   0.35669   0.00000  Uiso   1.00
C560   C     0.63820   0.59158   0.33851   0.00000  Uiso   1.00
C561   C     0.67781   0.49147   0.32249   0.00000  Uiso   1.00
C562   C     0.48390   0.74485   0.37224   0.00000  Uiso   1.00
C563   C     0.46278   0.76684   0.42544   0.00000  Uiso   1.00
C564   C     0.39917   0.75681   0.43871   0.00000  Uiso   1.00
C565   C     0.30044   0.75234   0.48068   0.00000  Uiso   1.00
C566   C     0.47611   0.69381   0.27798   0.00000  Uiso   1.00
C567   C     0.50498   0.75419   0.25261   0.00000  Uiso   1.00
C568   C     0.49356   0.77798   0.19763   0.00000  Uiso   1.00
C569   C     0.52458   0.83387   0.18258   0.00000  Uiso   1.00
C570   C     0.53205   0.65232   0.29632   0.00000  Uiso   1.00
C571   C     0.54338   0.59047   0.27811   0.00000  Uiso   1.00
C572   C     0.59718   0.56060   0.29986   0.00000  Uiso   1.00
C573   C     0.44295   0.71393   0.33367   0.00000  Uiso   1.00
C574   C     0.37936   0.70385   0.34686   0.00000  Uiso   1.00
C575   C     0.35815   0.72583   0.40006   0.00000  Uiso   1.00
H576   H     0.58339   0.77482   0.37904   0.00000  Uiso   1.00
H577   H     0.60867   0.86489   0.30608   0.00000  Uiso   1.00
H578   H     0.65848   0.67740   0.38654   0.00000  Uiso   1.00
H579   H     0.49449   0.79077   0.45528   0.00000  Uiso   1.00
H580   H     0.61866   0.95110   0.20817   0.00000  Uiso   1.00
H581   H     0.72367   0.55577   0.37785   0.00000  Uiso   1.00
H582   H     0.37786   0.79482   0.52281   0.00000  Uiso   1.00
H583   H     0.44422   0.66973   0.24794   0.00000  Uiso   1.00
H584   H     0.46186   0.75404   0.16779   0.00000  Uiso   1.00
H585   H     0.51167   0.56656   0.24825   0.00000  Uiso   1.00
H586   H     0.34769   0.67992   0.31699   0.00000  Uiso   1.00
H587   H     0.49951   0.86113   0.09593   0.00000  Uiso   1.00
H588   H     0.60452   0.46580   0.26561   0.00000  Uiso   1.00
H589   H     0.25872   0.70485   0.41056   0.00000  Uiso   1.00
O590   O     0.57322   0.96346   0.10169   0.00000  Uiso   1.00
O591   O     0.71098   0.44480   0.32431   0.00000  Uiso   1.00
O592   O     0.25730   0.75843   0.51448   0.00000  Uiso   1.00
N593   N     0.58818   0.91836   0.19276   0.00000  Uiso   1.00
N594   N     0.68637   0.54876   0.35140   0.00000  Uiso   1.00
N595   N     0.36308   0.77223   0.48692   0.00000  Uiso   1.00
N596   N     0.52407   0.86995   0.13236   0.00000  Uiso   1.00
N597   N     0.62225   0.50035   0.29100   0.00000  Uiso   1.00
N598   N     0.29896   0.72382   0.42652   0.00000  Uiso   1.00
C599   C     0.05150   0.25074   0.84900   0.00000  Uiso   1.00
C600   C     0.04594   0.28511   0.79119   0.00000  Uiso   1.00
C601   C     0.07698   0.34097   0.77621   0.00000  Uiso   1.00
C602   C     0.06560   0.36485   0.72123   0.00000  Uiso   1.00
C603   C     0.06322   0.42290   0.63732   0.00000  Uiso   1.00
C604   C     0.07300   0.18325   0.83490   0.00000  Uiso   1.00
C605   C     0.12680   0.15346   0.85669   0.00000  Uiso   1.00
C606   C     0.13820   0.09158   0.83851   0.00000  Uiso   1.00
C607   C     0.17781   0.99147   0.82249   0.00000  Uiso   1.00
C608   C     0.98390   0.24485   0.87224   0.00000  Uiso   1.00
C609   C     0.96278   0.26684   0.92544   0.00000  Uiso   1.00
C610   C     0.89917   0.25681   0.93871   0.00000  Uiso   1.00
C611   C     0.80044   0.25234   0.98068   0.00000  Uiso   1.00
C612   C     0.97611   0.19381   0.77798   0.00000  Uiso   1.00
C613   C     0.00498   0.25419   0.75261   0.00000  Uiso   1.00
C614   C     0.99356   0.27798   0.69763   0.00000  Uiso   1.00
C615   C     0.02458   0.33387   0.68258   0.00000  Uiso   1.00
C616   C     0.03205   0.15232   0.79632   0.00000  Uiso   1.00
C617   C     0.04338   0.09047   0.77811   0.00000  Uiso   1.00
C618   C     0.09718   0.06060   0.79986   0.00000  Uiso   1.00
C619   C     0.94295   0.21393   0.83367   0.00000  Uiso   1.00
C620   C     0.87936   0.20385   0.84686   0.00000  Uiso   1.00
C621   C     0.85815   0.22583   0.90006   0.00000  Uiso   1.00
H622   H     0.08339   0.27482   0.87904   0.00000  Uiso   1.00
H623   H     0.10867   0.36489   0.80608   0.00000  Uiso   1.00
H624   H     0.15848   0.17740   0.88654   0.00000  Uiso   1.00
H625   H     0.99449   0.29077   0.95528   0.00000  Uiso   1.00
H626   H     0.11866   0.45110   0.70817   0.00000  Uiso   1.00
H627   H     0.22367   0.05577   0.87785   0.00000  Uiso   1.00
H628   H     0.87786   0.29482   0.02281   0.00000  Uiso   1.00
H629   H     0.94422   0.16973   0.74794   0.00000  Uiso   1.00
H630   H     0.96186   0.25404   0.66779   0.00000  Uiso   1.00
H631   H     0.01167   0.06656   0.74825   0.00000  Uiso   1.00
H632   H     0.84769   0.17992   0.81699   0.00000  Uiso   1.00
H633   H     0.99951   0.36113   0.59593   0.00000  Uiso   1.00
H634   H     0.10452   0.96580   0.76561   0.00000  Uiso   1.00
H635   H     0.75872   0.20485   0.91056   0.00000  Uiso   1.00
O636   O     0.07322   0.46346   0.60169   0.00000  Uiso   1.00
O637   O     0.21098   0.94480   0.82431   0.00000  Uiso   1.00
O638   O     0.75730   0.25843   0.01448   0.00000  Uiso   1.00
N639   N     0.08818   0.41836   0.69276   0.00000  Uiso   1.00
N640   N     0.18637   0.04876   0.85140   0.00000  Uiso   1.00
N641   N     0.86308   0.27223   0.98692   0.00000  Uiso   1.00
N642   N     0.02407   0.36995   0.63236   0.00000  Uiso   1.00
N643   N     0.12225   0.00035   0.79100   0.00000  Uiso   1.00
N644   N     0.79896   0.22382   0.92652   0.00000  Uiso   1.00
C645   C     0.94850   0.74926   0.84900   0.00000  Uiso   1.00
C646   C     0.95406   0.71489   0.79119   0.00000  Uiso   1.00
C647   C     0.92302   0.65903   0.77621   0.00000  Uiso   1.00
C648   C     0.93440   0.63515   0.72123   0.00000  Uiso   1.00
C649   C     0.93678   0.57710   0.63732   0.00000  Uiso   1.00
C650   C     0.92700   0.81675   0.83490   0.00000  Uiso   1.00
C651   C     0.87320   0.84654   0.85669   0.00000  Uiso   1.00
C652   C     0.86180   0.90842   0.83851   0.00000  Uiso   1.00
C653   C     0.82219   0.00853   0.82249   0.00000  Uiso   1.00
C654   C     0.01610   0.75515   0.87224   0.00000  Uiso   1.00
C655   C     0.03722   0.73316   0.92544   0.00000  Uiso   1.00
C656   C     0.10083   0.74319   0.93871   0.00000  Uiso   1.00
C657   C     0.19956   0.74766   0.98068   0.00000  Uiso   1.00
C658   C     0.02389   0.80619   0.77798   0.00000  Uiso   1.00
C659   C     0.99502   0.74581   0.75261   0.00000  Uiso   1.00
C660   C     0.00644   0.72202   0.69763   0.00000  Uiso   1.00
C661   C     0.97542   0.66613   0.68258   0.00000  Uiso   1.00
C662   C     0.96795   0.84768   0.79632   0.00000  Uiso   1.00
C663   C     0.95662   0.90953   0.77811   0.00000  Uiso   1.00
C664   C     0.90282   0.93940   0.79986   0.00000  Uiso   1.00
C665   C     0.05705   0.78607   0.83367   0.00000  Uiso   1.00
C666   C     0.12064   0.79615   0.84686   0.00000  Uiso   1.00
C667   C     0.14185   0.77417   0.90006   0.00000  Uiso   1.00
H668   H     0.91661   0.72518   0.87904   0.00000  Uiso   1.00
H669   H     0.89133   0.63511   0.80608   0.00000  Uiso   1.00
H670   H     0.84152   0.82260   0.88654   0.00000  Uiso   1.00
H671   H     0.00551   0.70923   0.95528   0.00000  Uiso   1.00
H672   H     0.88134   0.54890   0.70817   0.00000  Uiso   1.00
H673   H     0.77633   0.94423   0.87785   0.00000  Uiso   1.00
H674   H     0.12214   0.70518   0.02281   0.00000  Uiso   1.00
H675   H     0.05578   0.83027   0.74794   0.00000  Uiso   1.00
H676   H     0.03814   0.74596   0.66779   0.00000  Uiso   1.00
H677   H     0.98833   0.93344   0.74825   0.00000  Uiso   1.00
H678   H     0.15231   0.82008   0.81699   0.00000  Uiso   1.00
H679   H     0.00049   0.63887   0.59593   0.00000  Uiso   1.00
H680   H     0.89548   0.03420   0.76561   0.00000  Uiso   1.00
H681   H     0.24128   0.79515   0.91056   0.00000  Uiso   1.00
O682   O     0.92678   0.53654   0.60169   0.00000  Uiso   1.00
O683   O     0.78902   0.05520   0.82431   0.00000  Uiso   1.00
O684   O     0.24270   0.74157   0.01448   0.00000  Uiso   1.00
N685   N     0.91182   0.58164   0.69276   0.00000  Uiso   1.00
N686   N     0.81363   0.95124   0.85140   0.00000  Uiso   1.00
N687   N     0.13692   0.72777   0.98692   0.00000  Uiso   1.00
N688   N     0.97593   0.63005   0.63236   0.00000  Uiso   1.00
N689   N     0.87775   0.99965   0.79100   0.00000  Uiso   1.00
N690   N     0.20104   0.77618   0.92652   0.00000  Uiso   1.00
C691   C     0.44850   0.24926   0.34900   0.00000  Uiso   1.00
C692   C     0.45406   0.21489   0.29119   0.00000  Uiso   1.00
C693   C     0.42302   0.15903   0.27621   0.00000  Uiso   1.00
C694   C     0.43440   0.13515   0.22123   0.00000  Uiso   1.00
C695   C     0.43678   0.07710   0.13732   0.00000  Uiso   1.00
C696   C     0.42700   0.31675   0.33490   0.00000  Uiso   1.00
C697   C     0.37320   0.34654   0.35669   0.00000  Uiso   1.00
C698   C     0.36180   0.40842   0.33851   0.00000  Uiso   1.00
C699   C     0.32219   0.50853   0.32249   0.00000  Uiso   1.00
C700   C     0.51610   0.25515   0.37224   0.00000  Uiso   1.00
C701   C     0.53722   0.23316   0.42544   0.00000  Uiso   1.00
C702   C     0.60083   0.24319   0.43871   0.00000  Uiso   1.00
C703   C     0.69956   0.24766   0.48068   0.00000  Uiso   1.00
C704   C     0.52389   0.30619   0.27798   0.00000  Uiso   1.00
C705   C     0.49502   0.24581   0.25261   0.00000  Uiso   1.00
C706   C     0.50644   0.22202   0.19763   0.00000  Uiso   1.00
C707   C     0.47542   0.16613   0.18258   0.00000  Uiso   1.00
C708   C     0.46795   0.34768   0.29632   0.00000  Uiso   1.00
C709   C     0.45662   0.40953   0.27811   0.00000  Uiso   1.00
C710   C     0.40282   0.43940   0.29986   0.00000  Uiso   1.00
C711   C     0.55705   0.28607   0.33367   0.00000  Uiso   1.00
C712   C     0.62064   0.29615   0.34686   0.00000  Uiso   1.00
C713   C     0.64185   0.27417   0.40006   0.00000  Uiso   1.00
H714   H     0.41661   0.22518   0.37904   0.00000  Uiso   1.00
H715   H     0.39133   0.13511   0.30608   0.00000  Uiso   1.00
H716   H     0.34152   0.32260   0.38654   0.00000  Uiso   1.00
H717   H     0.50551   0.20923   0.45528   0.00000  Uiso   1.00
H718   H     0.38134   0.04890   0.20817   0.00000  Uiso   1.00
H719   H     0.27633   0.44423   0.37785   0.00000  Uiso   1.00
H720   H     0.62214   0.20518   0.52281   0.00000  Uiso   1.00
H721   H     0.55578   0.33027   0.24794   0.00000  Uiso   1.00
H722   H     0.53814   0.24596   0.16779   0.00000  Uiso   1.00
H723   H     0.48833   0.43344   0.24825   0.00000  Uiso   1.00
H724   H     0.65231   0.32008   0.31699   0.00000  Uiso   1.00
H725   H     0.50049   0.13887   0.09593   0.00000  Uiso   1.00
H726   H     0.39548   0.53420   0.26561   0.00000  Uiso   1.00
H727   H     0.74128   0.29515   0.41056   0.00000  Uiso   1.00
O728   O     0.42678   0.03654   0.10169   0.00000  Uiso   1.00
O729   O     0.28902   0.55520   0.32431   0.00000  Uiso   1.00
O730   O     0.74270   0.24157   0.51448   0.00000  Uiso   1.00
N731   N     0.41182   0.08164   0.19276   0.00000  Uiso   1.00
N732   N     0.31363   0.45124   0.35140   0.00000  Uiso   1.00
N733   N     0.63692   0.22777   0.48692   0.00000  Uiso   1.00
N734   N     0.47593   0.13005   0.13236   0.00000  Uiso   1.00
N735   N     0.37775   0.49965   0.29100   0.00000  Uiso   1.00
N736   N     0.70104   0.27618   0.42652   0.00000  Uiso   1.00
