data_job_02072
_audit_creation_date              2018-12-19
_audit_creation_method            'Materials Studio'
_symmetry_space_group_name_H-M    'P1'
_symmetry_Int_Tables_number       1
_symmetry_cell_setting            triclinic
loop_
_symmetry_equiv_pos_as_xyz
  x,y,z
_cell_length_a                    33.8369
_cell_length_b                    33.8369
_cell_length_c                    13.3394
_cell_angle_alpha                 90.0000
_cell_angle_beta                  90.0000
_cell_angle_gamma                 90.0000
loop_
_atom_site_label
_atom_site_type_symbol
_atom_site_fract_x
_atom_site_fract_y
_atom_site_fract_z
_atom_site_U_iso_or_equiv
_atom_site_adp_type
_atom_site_occupancy
C1     C     0.87158   0.79912   0.26296   0.00000  Uiso   1.00
C2     C     0.82748   0.79708   0.28604   0.00000  Uiso   1.00
C3     C     0.80374   0.82877   0.31315   0.00000  Uiso   1.00
C4     C     0.76412   0.82078   0.33115   0.00000  Uiso   1.00
C5     C     0.69798   0.82344   0.36837   0.00000  Uiso   1.00
C6     C     0.89142   0.76986   0.33385   0.00000  Uiso   1.00
C7     C     0.92143   0.77866   0.40115   0.00000  Uiso   1.00
C8     C     0.93564   0.74776   0.45939   0.00000  Uiso   1.00
C9     C     0.96879   0.70814   0.57078   0.00000  Uiso   1.00
C10    C     0.87655   0.78210   0.15788   0.00000  Uiso   1.00
C11    C     0.89407   0.80119   0.07722   0.00000  Uiso   1.00
C12    C     0.89576   0.78059   0.98730   0.00000  Uiso   1.00
C13    C     0.90581   0.75998   0.82547   0.00000  Uiso   1.00
C14    C     0.84344   0.72860   0.24670   0.00000  Uiso   1.00
C15    C     0.81220   0.75878   0.27721   0.00000  Uiso   1.00
C16    C     0.77261   0.75074   0.29516   0.00000  Uiso   1.00
C17    C     0.74881   0.78241   0.32230   0.00000  Uiso   1.00
C18    C     0.87614   0.73156   0.32502   0.00000  Uiso   1.00
C19    C     0.89031   0.70063   0.38316   0.00000  Uiso   1.00
C20    C     0.92033   0.70938   0.45054   0.00000  Uiso   1.00
C21    C     0.86126   0.74380   0.14904   0.00000  Uiso   1.00
C22    C     0.86294   0.72316   0.05923   0.00000  Uiso   1.00
C23    C     0.88045   0.74221   0.97845   0.00000  Uiso   1.00
H24    H     0.88347   0.82894   0.26984   0.00000  Uiso   1.00
H25    H     0.81558   0.85841   0.31999   0.00000  Uiso   1.00
H26    H     0.93326   0.80830   0.40796   0.00000  Uiso   1.00
H27    H     0.90589   0.83083   0.08408   0.00000  Uiso   1.00
H28    H     0.73356   0.87417   0.37172   0.00000  Uiso   1.00
H29    H     0.98170   0.76853   0.55720   0.00000  Uiso   1.00
H30    H     0.92400   0.81603   0.87423   0.00000  Uiso   1.00
H31    H     0.83155   0.69878   0.23983   0.00000  Uiso   1.00
H32    H     0.76079   0.72110   0.28832   0.00000  Uiso   1.00
H33    H     0.87848   0.67099   0.37630   0.00000  Uiso   1.00
H34    H     0.85111   0.69352   0.05242   0.00000  Uiso   1.00
H35    H     0.68910   0.76273   0.34603   0.00000  Uiso   1.00
H36    H     0.93724   0.65708   0.53150   0.00000  Uiso   1.00
H37    H     0.87954   0.70458   0.84854   0.00000  Uiso   1.00
O38    O     0.66573   0.83548   0.39135   0.00000  Uiso   1.00
O39    O     0.99129   0.69688   0.63467   0.00000  Uiso   1.00
O40    O     0.91557   0.75919   0.73864   0.00000  Uiso   1.00
N41    N     0.73281   0.84488   0.35900   0.00000  Uiso   1.00
N42    N     0.96480   0.74611   0.53242   0.00000  Uiso   1.00
N43    N     0.91086   0.79052   0.89391   0.00000  Uiso   1.00
N44    N     0.70888   0.78492   0.34517   0.00000  Uiso   1.00
N45    N     0.94088   0.68615   0.51859   0.00000  Uiso   1.00
N46    N     0.88693   0.73055   0.88008   0.00000  Uiso   1.00
C47    C     0.37158   0.29912   0.76296   0.00000  Uiso   1.00
C48    C     0.32748   0.29708   0.78604   0.00000  Uiso   1.00
C49    C     0.30374   0.32877   0.81315   0.00000  Uiso   1.00
C50    C     0.26412   0.32078   0.83115   0.00000  Uiso   1.00
C51    C     0.19798   0.32344   0.86837   0.00000  Uiso   1.00
C52    C     0.39142   0.26986   0.83385   0.00000  Uiso   1.00
C53    C     0.42143   0.27866   0.90115   0.00000  Uiso   1.00
C54    C     0.43564   0.24776   0.95939   0.00000  Uiso   1.00
C55    C     0.46879   0.20814   0.07078   0.00000  Uiso   1.00
C56    C     0.37655   0.28210   0.65788   0.00000  Uiso   1.00
C57    C     0.39407   0.30119   0.57722   0.00000  Uiso   1.00
C58    C     0.39576   0.28059   0.48730   0.00000  Uiso   1.00
C59    C     0.40581   0.25998   0.32547   0.00000  Uiso   1.00
C60    C     0.34344   0.22860   0.74670   0.00000  Uiso   1.00
C61    C     0.31220   0.25878   0.77721   0.00000  Uiso   1.00
C62    C     0.27261   0.25074   0.79516   0.00000  Uiso   1.00
C63    C     0.24881   0.28241   0.82230   0.00000  Uiso   1.00
C64    C     0.37614   0.23156   0.82502   0.00000  Uiso   1.00
C65    C     0.39031   0.20063   0.88316   0.00000  Uiso   1.00
C66    C     0.42033   0.20938   0.95054   0.00000  Uiso   1.00
C67    C     0.36126   0.24380   0.64904   0.00000  Uiso   1.00
C68    C     0.36294   0.22316   0.55923   0.00000  Uiso   1.00
C69    C     0.38045   0.24221   0.47845   0.00000  Uiso   1.00
H70    H     0.38347   0.32894   0.76984   0.00000  Uiso   1.00
H71    H     0.31558   0.35841   0.81999   0.00000  Uiso   1.00
H72    H     0.43326   0.30830   0.90796   0.00000  Uiso   1.00
H73    H     0.40589   0.33083   0.58408   0.00000  Uiso   1.00
H74    H     0.23356   0.37417   0.87172   0.00000  Uiso   1.00
H75    H     0.48170   0.26853   0.05720   0.00000  Uiso   1.00
H76    H     0.42400   0.31603   0.37423   0.00000  Uiso   1.00
H77    H     0.33155   0.19878   0.73983   0.00000  Uiso   1.00
H78    H     0.26079   0.22110   0.78832   0.00000  Uiso   1.00
H79    H     0.37848   0.17099   0.87630   0.00000  Uiso   1.00
H80    H     0.35111   0.19352   0.55242   0.00000  Uiso   1.00
H81    H     0.18910   0.26273   0.84603   0.00000  Uiso   1.00
H82    H     0.43724   0.15708   0.03150   0.00000  Uiso   1.00
H83    H     0.37954   0.20458   0.34854   0.00000  Uiso   1.00
O84    O     0.16573   0.33548   0.89135   0.00000  Uiso   1.00
O85    O     0.49129   0.19688   0.13467   0.00000  Uiso   1.00
O86    O     0.41557   0.25919   0.23864   0.00000  Uiso   1.00
N87    N     0.23281   0.34488   0.85900   0.00000  Uiso   1.00
N88    N     0.46480   0.24611   0.03242   0.00000  Uiso   1.00
N89    N     0.41086   0.29052   0.39391   0.00000  Uiso   1.00
N90    N     0.20888   0.28492   0.84517   0.00000  Uiso   1.00
N91    N     0.44088   0.18615   0.01859   0.00000  Uiso   1.00
N92    N     0.38693   0.23055   0.38008   0.00000  Uiso   1.00
C93    C     0.62842   0.70088   0.76296   0.00000  Uiso   1.00
C94    C     0.67252   0.70292   0.78604   0.00000  Uiso   1.00
C95    C     0.69626   0.67123   0.81315   0.00000  Uiso   1.00
C96    C     0.73588   0.67922   0.83115   0.00000  Uiso   1.00
C97    C     0.80202   0.67656   0.86837   0.00000  Uiso   1.00
C98    C     0.60858   0.73014   0.83385   0.00000  Uiso   1.00
C99    C     0.57857   0.72134   0.90115   0.00000  Uiso   1.00
C100   C     0.56436   0.75224   0.95939   0.00000  Uiso   1.00
C101   C     0.53121   0.79186   0.07078   0.00000  Uiso   1.00
C102   C     0.62345   0.71790   0.65788   0.00000  Uiso   1.00
C103   C     0.60593   0.69881   0.57722   0.00000  Uiso   1.00
C104   C     0.60424   0.71941   0.48730   0.00000  Uiso   1.00
C105   C     0.59419   0.74002   0.32547   0.00000  Uiso   1.00
C106   C     0.65656   0.77140   0.74670   0.00000  Uiso   1.00
C107   C     0.68780   0.74122   0.77721   0.00000  Uiso   1.00
C108   C     0.72739   0.74926   0.79516   0.00000  Uiso   1.00
C109   C     0.75119   0.71759   0.82230   0.00000  Uiso   1.00
C110   C     0.62386   0.76844   0.82502   0.00000  Uiso   1.00
C111   C     0.60969   0.79937   0.88316   0.00000  Uiso   1.00
C112   C     0.57967   0.79062   0.95054   0.00000  Uiso   1.00
C113   C     0.63874   0.75620   0.64904   0.00000  Uiso   1.00
C114   C     0.63706   0.77684   0.55923   0.00000  Uiso   1.00
C115   C     0.61955   0.75779   0.47845   0.00000  Uiso   1.00
H116   H     0.61653   0.67106   0.76984   0.00000  Uiso   1.00
H117   H     0.68442   0.64159   0.81999   0.00000  Uiso   1.00
H118   H     0.56674   0.69170   0.90796   0.00000  Uiso   1.00
H119   H     0.59411   0.66917   0.58408   0.00000  Uiso   1.00
H120   H     0.76644   0.62583   0.87172   0.00000  Uiso   1.00
H121   H     0.51830   0.73147   0.05720   0.00000  Uiso   1.00
H122   H     0.57600   0.68397   0.37423   0.00000  Uiso   1.00
H123   H     0.66845   0.80122   0.73983   0.00000  Uiso   1.00
H124   H     0.73921   0.77890   0.78832   0.00000  Uiso   1.00
H125   H     0.62152   0.82901   0.87630   0.00000  Uiso   1.00
H126   H     0.64889   0.80648   0.55242   0.00000  Uiso   1.00
H127   H     0.81090   0.73727   0.84603   0.00000  Uiso   1.00
H128   H     0.56276   0.84292   0.03150   0.00000  Uiso   1.00
H129   H     0.62046   0.79542   0.34854   0.00000  Uiso   1.00
O130   O     0.83427   0.66452   0.89135   0.00000  Uiso   1.00
O131   O     0.50871   0.80312   0.13467   0.00000  Uiso   1.00
O132   O     0.58443   0.74081   0.23864   0.00000  Uiso   1.00
N133   N     0.76719   0.65512   0.85900   0.00000  Uiso   1.00
N134   N     0.53520   0.75389   0.03242   0.00000  Uiso   1.00
N135   N     0.58914   0.70948   0.39391   0.00000  Uiso   1.00
N136   N     0.79112   0.71508   0.84517   0.00000  Uiso   1.00
N137   N     0.55912   0.81385   0.01859   0.00000  Uiso   1.00
N138   N     0.61307   0.76945   0.38008   0.00000  Uiso   1.00
C139   C     0.12842   0.20088   0.26296   0.00000  Uiso   1.00
C140   C     0.17252   0.20292   0.28604   0.00000  Uiso   1.00
C141   C     0.19626   0.17123   0.31315   0.00000  Uiso   1.00
C142   C     0.23588   0.17922   0.33115   0.00000  Uiso   1.00
C143   C     0.30202   0.17656   0.36837   0.00000  Uiso   1.00
C144   C     0.10858   0.23014   0.33385   0.00000  Uiso   1.00
C145   C     0.07857   0.22134   0.40115   0.00000  Uiso   1.00
C146   C     0.06436   0.25224   0.45939   0.00000  Uiso   1.00
C147   C     0.03121   0.29186   0.57078   0.00000  Uiso   1.00
C148   C     0.12345   0.21790   0.15788   0.00000  Uiso   1.00
C149   C     0.10593   0.19881   0.07722   0.00000  Uiso   1.00
C150   C     0.10424   0.21941   0.98730   0.00000  Uiso   1.00
C151   C     0.09419   0.24002   0.82547   0.00000  Uiso   1.00
C152   C     0.15656   0.27140   0.24670   0.00000  Uiso   1.00
C153   C     0.18780   0.24122   0.27721   0.00000  Uiso   1.00
C154   C     0.22739   0.24926   0.29516   0.00000  Uiso   1.00
C155   C     0.25119   0.21759   0.32230   0.00000  Uiso   1.00
C156   C     0.12386   0.26844   0.32502   0.00000  Uiso   1.00
C157   C     0.10969   0.29937   0.38316   0.00000  Uiso   1.00
C158   C     0.07967   0.29062   0.45054   0.00000  Uiso   1.00
C159   C     0.13874   0.25620   0.14904   0.00000  Uiso   1.00
C160   C     0.13706   0.27684   0.05923   0.00000  Uiso   1.00
C161   C     0.11955   0.25779   0.97845   0.00000  Uiso   1.00
H162   H     0.11653   0.17106   0.26984   0.00000  Uiso   1.00
H163   H     0.18442   0.14159   0.31999   0.00000  Uiso   1.00
H164   H     0.06674   0.19170   0.40796   0.00000  Uiso   1.00
H165   H     0.09411   0.16917   0.08408   0.00000  Uiso   1.00
H166   H     0.26644   0.12583   0.37172   0.00000  Uiso   1.00
H167   H     0.01830   0.23147   0.55720   0.00000  Uiso   1.00
H168   H     0.07600   0.18397   0.87423   0.00000  Uiso   1.00
H169   H     0.16845   0.30122   0.23983   0.00000  Uiso   1.00
H170   H     0.23921   0.27890   0.28832   0.00000  Uiso   1.00
H171   H     0.12152   0.32901   0.37630   0.00000  Uiso   1.00
H172   H     0.14889   0.30648   0.05242   0.00000  Uiso   1.00
H173   H     0.31090   0.23727   0.34603   0.00000  Uiso   1.00
H174   H     0.06276   0.34292   0.53150   0.00000  Uiso   1.00
H175   H     0.12046   0.29542   0.84854   0.00000  Uiso   1.00
O176   O     0.33427   0.16452   0.39135   0.00000  Uiso   1.00
O177   O     0.00871   0.30312   0.63467   0.00000  Uiso   1.00
O178   O     0.08443   0.24081   0.73864   0.00000  Uiso   1.00
N179   N     0.26719   0.15512   0.35900   0.00000  Uiso   1.00
N180   N     0.03520   0.25389   0.53242   0.00000  Uiso   1.00
N181   N     0.08914   0.20948   0.89391   0.00000  Uiso   1.00
N182   N     0.29112   0.21508   0.34517   0.00000  Uiso   1.00
N183   N     0.05912   0.31385   0.51859   0.00000  Uiso   1.00
N184   N     0.11307   0.26945   0.88008   0.00000  Uiso   1.00
C185   C     0.20088   0.37158   0.51296   0.00000  Uiso   1.00
C186   C     0.20292   0.32748   0.53604   0.00000  Uiso   1.00
C187   C     0.17123   0.30374   0.56315   0.00000  Uiso   1.00
C188   C     0.17922   0.26412   0.58115   0.00000  Uiso   1.00
C189   C     0.17656   0.19798   0.61837   0.00000  Uiso   1.00
C190   C     0.23014   0.39142   0.58385   0.00000  Uiso   1.00
C191   C     0.22134   0.42143   0.65115   0.00000  Uiso   1.00
C192   C     0.25224   0.43564   0.70939   0.00000  Uiso   1.00
C193   C     0.29186   0.46879   0.82078   0.00000  Uiso   1.00
C194   C     0.21790   0.37655   0.40788   0.00000  Uiso   1.00
C195   C     0.19881   0.39407   0.32722   0.00000  Uiso   1.00
C196   C     0.21941   0.39576   0.23730   0.00000  Uiso   1.00
C197   C     0.24002   0.40581   0.07547   0.00000  Uiso   1.00
C198   C     0.27140   0.34344   0.49670   0.00000  Uiso   1.00
C199   C     0.24122   0.31220   0.52721   0.00000  Uiso   1.00
C200   C     0.24926   0.27261   0.54516   0.00000  Uiso   1.00
C201   C     0.21759   0.24881   0.57230   0.00000  Uiso   1.00
C202   C     0.26844   0.37614   0.57502   0.00000  Uiso   1.00
C203   C     0.29937   0.39031   0.63316   0.00000  Uiso   1.00
C204   C     0.29062   0.42033   0.70054   0.00000  Uiso   1.00
C205   C     0.25620   0.36126   0.39904   0.00000  Uiso   1.00
C206   C     0.27684   0.36294   0.30923   0.00000  Uiso   1.00
C207   C     0.25779   0.38045   0.22845   0.00000  Uiso   1.00
H208   H     0.17106   0.38347   0.51984   0.00000  Uiso   1.00
H209   H     0.14159   0.31558   0.56999   0.00000  Uiso   1.00
H210   H     0.19170   0.43326   0.65796   0.00000  Uiso   1.00
H211   H     0.16917   0.40589   0.33408   0.00000  Uiso   1.00
H212   H     0.12583   0.23356   0.62172   0.00000  Uiso   1.00
H213   H     0.23147   0.48170   0.80720   0.00000  Uiso   1.00
H214   H     0.18397   0.42400   0.12423   0.00000  Uiso   1.00
H215   H     0.30122   0.33155   0.48983   0.00000  Uiso   1.00
H216   H     0.27890   0.26079   0.53832   0.00000  Uiso   1.00
H217   H     0.32901   0.37848   0.62630   0.00000  Uiso   1.00
H218   H     0.30648   0.35111   0.30242   0.00000  Uiso   1.00
H219   H     0.23727   0.18910   0.59603   0.00000  Uiso   1.00
H220   H     0.34292   0.43724   0.78150   0.00000  Uiso   1.00
H221   H     0.29542   0.37954   0.09854   0.00000  Uiso   1.00
O222   O     0.16452   0.16573   0.64135   0.00000  Uiso   1.00
O223   O     0.30312   0.49129   0.88467   0.00000  Uiso   1.00
O224   O     0.24081   0.41557   0.98864   0.00000  Uiso   1.00
N225   N     0.15512   0.23281   0.60900   0.00000  Uiso   1.00
N226   N     0.25389   0.46480   0.78242   0.00000  Uiso   1.00
N227   N     0.20948   0.41086   0.14391   0.00000  Uiso   1.00
N228   N     0.21508   0.20888   0.59517   0.00000  Uiso   1.00
N229   N     0.31385   0.44088   0.76859   0.00000  Uiso   1.00
N230   N     0.26945   0.38693   0.13008   0.00000  Uiso   1.00
C231   C     0.70088   0.87158   0.01296   0.00000  Uiso   1.00
C232   C     0.70292   0.82748   0.03604   0.00000  Uiso   1.00
C233   C     0.67123   0.80374   0.06315   0.00000  Uiso   1.00
C234   C     0.67922   0.76412   0.08115   0.00000  Uiso   1.00
C235   C     0.67656   0.69798   0.11837   0.00000  Uiso   1.00
C236   C     0.73014   0.89142   0.08385   0.00000  Uiso   1.00
C237   C     0.72134   0.92143   0.15115   0.00000  Uiso   1.00
C238   C     0.75224   0.93564   0.20939   0.00000  Uiso   1.00
C239   C     0.79186   0.96879   0.32078   0.00000  Uiso   1.00
C240   C     0.71790   0.87655   0.90788   0.00000  Uiso   1.00
C241   C     0.69881   0.89407   0.82722   0.00000  Uiso   1.00
C242   C     0.71941   0.89576   0.73730   0.00000  Uiso   1.00
C243   C     0.74002   0.90581   0.57547   0.00000  Uiso   1.00
C244   C     0.77140   0.84344   0.99670   0.00000  Uiso   1.00
C245   C     0.74122   0.81220   0.02721   0.00000  Uiso   1.00
C246   C     0.74926   0.77261   0.04516   0.00000  Uiso   1.00
C247   C     0.71759   0.74881   0.07230   0.00000  Uiso   1.00
C248   C     0.76844   0.87614   0.07502   0.00000  Uiso   1.00
C249   C     0.79937   0.89031   0.13316   0.00000  Uiso   1.00
C250   C     0.79062   0.92033   0.20054   0.00000  Uiso   1.00
C251   C     0.75620   0.86126   0.89904   0.00000  Uiso   1.00
C252   C     0.77684   0.86294   0.80923   0.00000  Uiso   1.00
C253   C     0.75779   0.88045   0.72845   0.00000  Uiso   1.00
H254   H     0.67106   0.88347   0.01984   0.00000  Uiso   1.00
H255   H     0.64159   0.81558   0.06999   0.00000  Uiso   1.00
H256   H     0.69170   0.93326   0.15796   0.00000  Uiso   1.00
H257   H     0.66917   0.90589   0.83408   0.00000  Uiso   1.00
H258   H     0.62583   0.73356   0.12172   0.00000  Uiso   1.00
H259   H     0.73147   0.98170   0.30720   0.00000  Uiso   1.00
H260   H     0.68397   0.92400   0.62423   0.00000  Uiso   1.00
H261   H     0.80122   0.83155   0.98983   0.00000  Uiso   1.00
H262   H     0.77890   0.76079   0.03832   0.00000  Uiso   1.00
H263   H     0.82901   0.87848   0.12630   0.00000  Uiso   1.00
H264   H     0.80648   0.85111   0.80242   0.00000  Uiso   1.00
H265   H     0.73727   0.68910   0.09603   0.00000  Uiso   1.00
H266   H     0.84292   0.93724   0.28150   0.00000  Uiso   1.00
H267   H     0.79542   0.87954   0.59854   0.00000  Uiso   1.00
O268   O     0.66452   0.66573   0.14135   0.00000  Uiso   1.00
O269   O     0.80312   0.99129   0.38467   0.00000  Uiso   1.00
O270   O     0.74081   0.91557   0.48864   0.00000  Uiso   1.00
N271   N     0.65512   0.73281   0.10900   0.00000  Uiso   1.00
N272   N     0.75389   0.96480   0.28242   0.00000  Uiso   1.00
N273   N     0.70948   0.91086   0.64391   0.00000  Uiso   1.00
N274   N     0.71508   0.70888   0.09517   0.00000  Uiso   1.00
N275   N     0.81385   0.94088   0.26859   0.00000  Uiso   1.00
N276   N     0.76945   0.88693   0.63008   0.00000  Uiso   1.00
C277   C     0.29912   0.12842   0.01296   0.00000  Uiso   1.00
C278   C     0.29708   0.17252   0.03604   0.00000  Uiso   1.00
C279   C     0.32877   0.19626   0.06315   0.00000  Uiso   1.00
C280   C     0.32078   0.23588   0.08115   0.00000  Uiso   1.00
C281   C     0.32344   0.30202   0.11837   0.00000  Uiso   1.00
C282   C     0.26986   0.10858   0.08385   0.00000  Uiso   1.00
C283   C     0.27866   0.07857   0.15115   0.00000  Uiso   1.00
C284   C     0.24776   0.06436   0.20939   0.00000  Uiso   1.00
C285   C     0.20814   0.03121   0.32078   0.00000  Uiso   1.00
C286   C     0.28210   0.12345   0.90788   0.00000  Uiso   1.00
C287   C     0.30119   0.10593   0.82722   0.00000  Uiso   1.00
C288   C     0.28059   0.10424   0.73730   0.00000  Uiso   1.00
C289   C     0.25998   0.09419   0.57547   0.00000  Uiso   1.00
C290   C     0.22860   0.15656   0.99670   0.00000  Uiso   1.00
C291   C     0.25878   0.18780   0.02721   0.00000  Uiso   1.00
C292   C     0.25074   0.22739   0.04516   0.00000  Uiso   1.00
C293   C     0.28241   0.25119   0.07230   0.00000  Uiso   1.00
C294   C     0.23156   0.12386   0.07502   0.00000  Uiso   1.00
C295   C     0.20063   0.10969   0.13316   0.00000  Uiso   1.00
C296   C     0.20938   0.07967   0.20054   0.00000  Uiso   1.00
C297   C     0.24380   0.13874   0.89904   0.00000  Uiso   1.00
C298   C     0.22316   0.13706   0.80923   0.00000  Uiso   1.00
C299   C     0.24221   0.11955   0.72845   0.00000  Uiso   1.00
H300   H     0.32894   0.11653   0.01984   0.00000  Uiso   1.00
H301   H     0.35841   0.18442   0.06999   0.00000  Uiso   1.00
H302   H     0.30830   0.06674   0.15796   0.00000  Uiso   1.00
H303   H     0.33083   0.09411   0.83408   0.00000  Uiso   1.00
H304   H     0.37417   0.26644   0.12172   0.00000  Uiso   1.00
H305   H     0.26853   0.01830   0.30720   0.00000  Uiso   1.00
H306   H     0.31603   0.07600   0.62423   0.00000  Uiso   1.00
H307   H     0.19878   0.16845   0.98983   0.00000  Uiso   1.00
H308   H     0.22110   0.23921   0.03832   0.00000  Uiso   1.00
H309   H     0.17099   0.12152   0.12630   0.00000  Uiso   1.00
H310   H     0.19352   0.14889   0.80242   0.00000  Uiso   1.00
H311   H     0.26273   0.31090   0.09603   0.00000  Uiso   1.00
H312   H     0.15708   0.06276   0.28150   0.00000  Uiso   1.00
H313   H     0.20458   0.12046   0.59854   0.00000  Uiso   1.00
O314   O     0.33548   0.33427   0.14135   0.00000  Uiso   1.00
O315   O     0.19688   0.00871   0.38467   0.00000  Uiso   1.00
O316   O     0.25919   0.08443   0.48864   0.00000  Uiso   1.00
N317   N     0.34488   0.26719   0.10900   0.00000  Uiso   1.00
N318   N     0.24611   0.03520   0.28242   0.00000  Uiso   1.00
N319   N     0.29052   0.08914   0.64391   0.00000  Uiso   1.00
N320   N     0.28492   0.29112   0.09517   0.00000  Uiso   1.00
N321   N     0.18615   0.05912   0.26859   0.00000  Uiso   1.00
N322   N     0.23055   0.11307   0.63008   0.00000  Uiso   1.00
C323   C     0.79912   0.62842   0.51296   0.00000  Uiso   1.00
C324   C     0.79708   0.67252   0.53604   0.00000  Uiso   1.00
C325   C     0.82877   0.69626   0.56315   0.00000  Uiso   1.00
C326   C     0.82078   0.73588   0.58115   0.00000  Uiso   1.00
C327   C     0.82344   0.80202   0.61837   0.00000  Uiso   1.00
C328   C     0.76986   0.60858   0.58385   0.00000  Uiso   1.00
C329   C     0.77866   0.57857   0.65115   0.00000  Uiso   1.00
C330   C     0.74776   0.56436   0.70939   0.00000  Uiso   1.00
C331   C     0.70814   0.53121   0.82078   0.00000  Uiso   1.00
C332   C     0.78210   0.62345   0.40788   0.00000  Uiso   1.00
C333   C     0.80119   0.60593   0.32722   0.00000  Uiso   1.00
C334   C     0.78059   0.60424   0.23730   0.00000  Uiso   1.00
C335   C     0.75998   0.59419   0.07547   0.00000  Uiso   1.00
C336   C     0.72860   0.65656   0.49670   0.00000  Uiso   1.00
C337   C     0.75878   0.68780   0.52721   0.00000  Uiso   1.00
C338   C     0.75074   0.72739   0.54516   0.00000  Uiso   1.00
C339   C     0.78241   0.75119   0.57230   0.00000  Uiso   1.00
C340   C     0.73156   0.62386   0.57502   0.00000  Uiso   1.00
C341   C     0.70063   0.60969   0.63316   0.00000  Uiso   1.00
C342   C     0.70938   0.57967   0.70054   0.00000  Uiso   1.00
C343   C     0.74380   0.63874   0.39904   0.00000  Uiso   1.00
C344   C     0.72316   0.63706   0.30923   0.00000  Uiso   1.00
C345   C     0.74221   0.61955   0.22845   0.00000  Uiso   1.00
H346   H     0.82894   0.61653   0.51984   0.00000  Uiso   1.00
H347   H     0.85841   0.68442   0.56999   0.00000  Uiso   1.00
H348   H     0.80830   0.56674   0.65796   0.00000  Uiso   1.00
H349   H     0.83083   0.59411   0.33408   0.00000  Uiso   1.00
H350   H     0.87417   0.76644   0.62172   0.00000  Uiso   1.00
H351   H     0.76853   0.51830   0.80720   0.00000  Uiso   1.00
H352   H     0.81603   0.57600   0.12423   0.00000  Uiso   1.00
H353   H     0.69878   0.66845   0.48983   0.00000  Uiso   1.00
H354   H     0.72110   0.73921   0.53832   0.00000  Uiso   1.00
H355   H     0.67099   0.62152   0.62630   0.00000  Uiso   1.00
H356   H     0.69352   0.64889   0.30242   0.00000  Uiso   1.00
H357   H     0.76273   0.81090   0.59603   0.00000  Uiso   1.00
H358   H     0.65708   0.56276   0.78150   0.00000  Uiso   1.00
H359   H     0.70458   0.62046   0.09854   0.00000  Uiso   1.00
O360   O     0.83548   0.83427   0.64135   0.00000  Uiso   1.00
O361   O     0.69688   0.50871   0.88467   0.00000  Uiso   1.00
O362   O     0.75919   0.58443   0.98864   0.00000  Uiso   1.00
N363   N     0.84488   0.76719   0.60900   0.00000  Uiso   1.00
N364   N     0.74611   0.53520   0.78242   0.00000  Uiso   1.00
N365   N     0.79052   0.58914   0.14391   0.00000  Uiso   1.00
N366   N     0.78492   0.79112   0.59517   0.00000  Uiso   1.00
N367   N     0.68615   0.55912   0.76859   0.00000  Uiso   1.00
N368   N     0.73055   0.61307   0.13008   0.00000  Uiso   1.00
C369   C     0.12842   0.70088   0.98704   0.00000  Uiso   1.00
C370   C     0.17252   0.70292   0.96396   0.00000  Uiso   1.00
C371   C     0.19626   0.67123   0.93685   0.00000  Uiso   1.00
C372   C     0.23588   0.67922   0.91885   0.00000  Uiso   1.00
C373   C     0.30202   0.67656   0.88163   0.00000  Uiso   1.00
C374   C     0.10858   0.73014   0.91615   0.00000  Uiso   1.00
C375   C     0.07857   0.72134   0.84885   0.00000  Uiso   1.00
C376   C     0.06436   0.75224   0.79061   0.00000  Uiso   1.00
C377   C     0.03121   0.79186   0.67922   0.00000  Uiso   1.00
C378   C     0.12345   0.71790   0.09212   0.00000  Uiso   1.00
C379   C     0.10593   0.69881   0.17278   0.00000  Uiso   1.00
C380   C     0.10424   0.71941   0.26270   0.00000  Uiso   1.00
C381   C     0.09419   0.74002   0.42453   0.00000  Uiso   1.00
C382   C     0.15656   0.77140   0.00330   0.00000  Uiso   1.00
C383   C     0.18780   0.74122   0.97279   0.00000  Uiso   1.00
C384   C     0.22739   0.74926   0.95484   0.00000  Uiso   1.00
C385   C     0.25119   0.71759   0.92770   0.00000  Uiso   1.00
C386   C     0.12386   0.76844   0.92498   0.00000  Uiso   1.00
C387   C     0.10969   0.79937   0.86684   0.00000  Uiso   1.00
C388   C     0.07967   0.79062   0.79946   0.00000  Uiso   1.00
C389   C     0.13874   0.75620   0.10096   0.00000  Uiso   1.00
C390   C     0.13706   0.77684   0.19077   0.00000  Uiso   1.00
C391   C     0.11955   0.75779   0.27155   0.00000  Uiso   1.00
H392   H     0.11653   0.67106   0.98016   0.00000  Uiso   1.00
H393   H     0.18442   0.64159   0.93001   0.00000  Uiso   1.00
H394   H     0.06674   0.69170   0.84204   0.00000  Uiso   1.00
H395   H     0.09411   0.66917   0.16592   0.00000  Uiso   1.00
H396   H     0.26644   0.62583   0.87828   0.00000  Uiso   1.00
H397   H     0.01830   0.73147   0.69280   0.00000  Uiso   1.00
H398   H     0.07600   0.68397   0.37577   0.00000  Uiso   1.00
H399   H     0.16845   0.80122   0.01017   0.00000  Uiso   1.00
H400   H     0.23921   0.77890   0.96168   0.00000  Uiso   1.00
H401   H     0.12152   0.82901   0.87370   0.00000  Uiso   1.00
H402   H     0.14889   0.80648   0.19758   0.00000  Uiso   1.00
H403   H     0.31090   0.73727   0.90397   0.00000  Uiso   1.00
H404   H     0.06276   0.84292   0.71850   0.00000  Uiso   1.00
H405   H     0.12046   0.79542   0.40146   0.00000  Uiso   1.00
O406   O     0.33427   0.66452   0.85865   0.00000  Uiso   1.00
O407   O     0.00871   0.80312   0.61533   0.00000  Uiso   1.00
O408   O     0.08443   0.74081   0.51136   0.00000  Uiso   1.00
N409   N     0.26719   0.65512   0.89100   0.00000  Uiso   1.00
N410   N     0.03520   0.75389   0.71758   0.00000  Uiso   1.00
N411   N     0.08914   0.70948   0.35609   0.00000  Uiso   1.00
N412   N     0.29112   0.71508   0.90483   0.00000  Uiso   1.00
N413   N     0.05912   0.81385   0.73141   0.00000  Uiso   1.00
N414   N     0.11307   0.76945   0.36992   0.00000  Uiso   1.00
C415   C     0.62842   0.20088   0.48704   0.00000  Uiso   1.00
C416   C     0.67252   0.20292   0.46396   0.00000  Uiso   1.00
C417   C     0.69626   0.17123   0.43685   0.00000  Uiso   1.00
C418   C     0.73588   0.17922   0.41885   0.00000  Uiso   1.00
C419   C     0.80202   0.17656   0.38163   0.00000  Uiso   1.00
C420   C     0.60858   0.23014   0.41615   0.00000  Uiso   1.00
C421   C     0.57857   0.22134   0.34885   0.00000  Uiso   1.00
C422   C     0.56436   0.25224   0.29061   0.00000  Uiso   1.00
C423   C     0.53121   0.29186   0.17922   0.00000  Uiso   1.00
C424   C     0.62345   0.21790   0.59212   0.00000  Uiso   1.00
C425   C     0.60593   0.19881   0.67278   0.00000  Uiso   1.00
C426   C     0.60424   0.21941   0.76270   0.00000  Uiso   1.00
C427   C     0.59419   0.24002   0.92453   0.00000  Uiso   1.00
C428   C     0.65656   0.27140   0.50330   0.00000  Uiso   1.00
C429   C     0.68780   0.24122   0.47279   0.00000  Uiso   1.00
C430   C     0.72739   0.24926   0.45484   0.00000  Uiso   1.00
C431   C     0.75119   0.21759   0.42770   0.00000  Uiso   1.00
C432   C     0.62386   0.26844   0.42498   0.00000  Uiso   1.00
C433   C     0.60969   0.29937   0.36684   0.00000  Uiso   1.00
C434   C     0.57967   0.29062   0.29946   0.00000  Uiso   1.00
C435   C     0.63874   0.25620   0.60096   0.00000  Uiso   1.00
C436   C     0.63706   0.27684   0.69077   0.00000  Uiso   1.00
C437   C     0.61955   0.25779   0.77155   0.00000  Uiso   1.00
H438   H     0.61653   0.17106   0.48016   0.00000  Uiso   1.00
H439   H     0.68442   0.14159   0.43001   0.00000  Uiso   1.00
H440   H     0.56674   0.19170   0.34204   0.00000  Uiso   1.00
H441   H     0.59411   0.16917   0.66592   0.00000  Uiso   1.00
H442   H     0.76644   0.12583   0.37828   0.00000  Uiso   1.00
H443   H     0.51830   0.23147   0.19280   0.00000  Uiso   1.00
H444   H     0.57600   0.18397   0.87577   0.00000  Uiso   1.00
H445   H     0.66845   0.30122   0.51017   0.00000  Uiso   1.00
H446   H     0.73921   0.27890   0.46168   0.00000  Uiso   1.00
H447   H     0.62152   0.32901   0.37370   0.00000  Uiso   1.00
H448   H     0.64889   0.30648   0.69758   0.00000  Uiso   1.00
H449   H     0.81090   0.23727   0.40397   0.00000  Uiso   1.00
H450   H     0.56276   0.34292   0.21850   0.00000  Uiso   1.00
H451   H     0.62046   0.29542   0.90146   0.00000  Uiso   1.00
O452   O     0.83427   0.16452   0.35865   0.00000  Uiso   1.00
O453   O     0.50871   0.30312   0.11533   0.00000  Uiso   1.00
O454   O     0.58443   0.24081   0.01136   0.00000  Uiso   1.00
N455   N     0.76719   0.15512   0.39100   0.00000  Uiso   1.00
N456   N     0.53520   0.25389   0.21758   0.00000  Uiso   1.00
N457   N     0.58914   0.20948   0.85609   0.00000  Uiso   1.00
N458   N     0.79112   0.21508   0.40483   0.00000  Uiso   1.00
N459   N     0.55912   0.31385   0.23141   0.00000  Uiso   1.00
N460   N     0.61307   0.26945   0.86992   0.00000  Uiso   1.00
C461   C     0.37158   0.79912   0.48704   0.00000  Uiso   1.00
C462   C     0.32748   0.79708   0.46396   0.00000  Uiso   1.00
C463   C     0.30374   0.82877   0.43685   0.00000  Uiso   1.00
C464   C     0.26412   0.82078   0.41885   0.00000  Uiso   1.00
C465   C     0.19798   0.82344   0.38163   0.00000  Uiso   1.00
C466   C     0.39142   0.76986   0.41615   0.00000  Uiso   1.00
C467   C     0.42143   0.77866   0.34885   0.00000  Uiso   1.00
C468   C     0.43564   0.74776   0.29061   0.00000  Uiso   1.00
C469   C     0.46879   0.70814   0.17922   0.00000  Uiso   1.00
C470   C     0.37655   0.78210   0.59212   0.00000  Uiso   1.00
C471   C     0.39407   0.80119   0.67278   0.00000  Uiso   1.00
C472   C     0.39576   0.78059   0.76270   0.00000  Uiso   1.00
C473   C     0.40581   0.75998   0.92453   0.00000  Uiso   1.00
C474   C     0.34344   0.72860   0.50330   0.00000  Uiso   1.00
C475   C     0.31220   0.75878   0.47279   0.00000  Uiso   1.00
C476   C     0.27261   0.75074   0.45484   0.00000  Uiso   1.00
C477   C     0.24881   0.78241   0.42770   0.00000  Uiso   1.00
C478   C     0.37614   0.73156   0.42498   0.00000  Uiso   1.00
C479   C     0.39031   0.70063   0.36684   0.00000  Uiso   1.00
C480   C     0.42033   0.70938   0.29946   0.00000  Uiso   1.00
C481   C     0.36126   0.74380   0.60096   0.00000  Uiso   1.00
C482   C     0.36294   0.72316   0.69077   0.00000  Uiso   1.00
C483   C     0.38045   0.74221   0.77155   0.00000  Uiso   1.00
H484   H     0.38347   0.82894   0.48016   0.00000  Uiso   1.00
H485   H     0.31558   0.85841   0.43001   0.00000  Uiso   1.00
H486   H     0.43326   0.80830   0.34204   0.00000  Uiso   1.00
H487   H     0.40589   0.83083   0.66592   0.00000  Uiso   1.00
H488   H     0.23356   0.87417   0.37828   0.00000  Uiso   1.00
H489   H     0.48170   0.76853   0.19280   0.00000  Uiso   1.00
H490   H     0.42400   0.81603   0.87577   0.00000  Uiso   1.00
H491   H     0.33155   0.69878   0.51017   0.00000  Uiso   1.00
H492   H     0.26079   0.72110   0.46168   0.00000  Uiso   1.00
H493   H     0.37848   0.67099   0.37370   0.00000  Uiso   1.00
H494   H     0.35111   0.69352   0.69758   0.00000  Uiso   1.00
H495   H     0.18910   0.76273   0.40397   0.00000  Uiso   1.00
H496   H     0.43724   0.65708   0.21850   0.00000  Uiso   1.00
H497   H     0.37954   0.70458   0.90146   0.00000  Uiso   1.00
O498   O     0.16573   0.83548   0.35865   0.00000  Uiso   1.00
O499   O     0.49129   0.69688   0.11533   0.00000  Uiso   1.00
O500   O     0.41557   0.75919   0.01136   0.00000  Uiso   1.00
N501   N     0.23281   0.84488   0.39100   0.00000  Uiso   1.00
N502   N     0.46480   0.74611   0.21758   0.00000  Uiso   1.00
N503   N     0.41086   0.79052   0.85609   0.00000  Uiso   1.00
N504   N     0.20888   0.78492   0.40483   0.00000  Uiso   1.00
N505   N     0.44088   0.68615   0.23141   0.00000  Uiso   1.00
N506   N     0.38693   0.73055   0.86992   0.00000  Uiso   1.00
C507   C     0.87158   0.29912   0.98704   0.00000  Uiso   1.00
C508   C     0.82748   0.29708   0.96396   0.00000  Uiso   1.00
C509   C     0.80374   0.32877   0.93685   0.00000  Uiso   1.00
C510   C     0.76412   0.32078   0.91885   0.00000  Uiso   1.00
C511   C     0.69798   0.32344   0.88163   0.00000  Uiso   1.00
C512   C     0.89142   0.26986   0.91615   0.00000  Uiso   1.00
C513   C     0.92143   0.27866   0.84885   0.00000  Uiso   1.00
C514   C     0.93564   0.24776   0.79061   0.00000  Uiso   1.00
C515   C     0.96879   0.20814   0.67922   0.00000  Uiso   1.00
C516   C     0.87655   0.28210   0.09212   0.00000  Uiso   1.00
C517   C     0.89407   0.30119   0.17278   0.00000  Uiso   1.00
C518   C     0.89576   0.28059   0.26270   0.00000  Uiso   1.00
C519   C     0.90581   0.25998   0.42453   0.00000  Uiso   1.00
C520   C     0.84344   0.22860   0.00330   0.00000  Uiso   1.00
C521   C     0.81220   0.25878   0.97279   0.00000  Uiso   1.00
C522   C     0.77261   0.25074   0.95484   0.00000  Uiso   1.00
C523   C     0.74881   0.28241   0.92770   0.00000  Uiso   1.00
C524   C     0.87614   0.23156   0.92498   0.00000  Uiso   1.00
C525   C     0.89031   0.20063   0.86684   0.00000  Uiso   1.00
C526   C     0.92033   0.20938   0.79946   0.00000  Uiso   1.00
C527   C     0.86126   0.24380   0.10096   0.00000  Uiso   1.00
C528   C     0.86294   0.22316   0.19077   0.00000  Uiso   1.00
C529   C     0.88045   0.24221   0.27155   0.00000  Uiso   1.00
H530   H     0.88347   0.32894   0.98016   0.00000  Uiso   1.00
H531   H     0.81558   0.35841   0.93001   0.00000  Uiso   1.00
H532   H     0.93326   0.30830   0.84204   0.00000  Uiso   1.00
H533   H     0.90589   0.33083   0.16592   0.00000  Uiso   1.00
H534   H     0.73356   0.37417   0.87828   0.00000  Uiso   1.00
H535   H     0.98170   0.26853   0.69280   0.00000  Uiso   1.00
H536   H     0.92400   0.31603   0.37577   0.00000  Uiso   1.00
H537   H     0.83155   0.19878   0.01017   0.00000  Uiso   1.00
H538   H     0.76079   0.22110   0.96168   0.00000  Uiso   1.00
H539   H     0.87848   0.17099   0.87370   0.00000  Uiso   1.00
H540   H     0.85111   0.19352   0.19758   0.00000  Uiso   1.00
H541   H     0.68910   0.26273   0.90397   0.00000  Uiso   1.00
H542   H     0.93724   0.15708   0.71850   0.00000  Uiso   1.00
H543   H     0.87954   0.20458   0.40146   0.00000  Uiso   1.00
O544   O     0.66573   0.33548   0.85865   0.00000  Uiso   1.00
O545   O     0.99129   0.19688   0.61533   0.00000  Uiso   1.00
O546   O     0.91557   0.25919   0.51136   0.00000  Uiso   1.00
N547   N     0.73281   0.34488   0.89100   0.00000  Uiso   1.00
N548   N     0.96480   0.24611   0.71758   0.00000  Uiso   1.00
N549   N     0.91086   0.29052   0.35609   0.00000  Uiso   1.00
N550   N     0.70888   0.28492   0.90483   0.00000  Uiso   1.00
N551   N     0.94088   0.18615   0.73141   0.00000  Uiso   1.00
N552   N     0.88693   0.23055   0.36992   0.00000  Uiso   1.00
C553   C     0.79912   0.12842   0.73704   0.00000  Uiso   1.00
C554   C     0.79708   0.17252   0.71396   0.00000  Uiso   1.00
C555   C     0.82877   0.19626   0.68685   0.00000  Uiso   1.00
C556   C     0.82078   0.23588   0.66885   0.00000  Uiso   1.00
C557   C     0.82344   0.30202   0.63163   0.00000  Uiso   1.00
C558   C     0.76986   0.10858   0.66615   0.00000  Uiso   1.00
C559   C     0.77866   0.07857   0.59885   0.00000  Uiso   1.00
C560   C     0.74776   0.06436   0.54061   0.00000  Uiso   1.00
C561   C     0.70814   0.03121   0.42922   0.00000  Uiso   1.00
C562   C     0.78210   0.12345   0.84212   0.00000  Uiso   1.00
C563   C     0.80119   0.10593   0.92278   0.00000  Uiso   1.00
C564   C     0.78059   0.10424   0.01270   0.00000  Uiso   1.00
C565   C     0.75998   0.09419   0.17453   0.00000  Uiso   1.00
C566   C     0.72860   0.15656   0.75330   0.00000  Uiso   1.00
C567   C     0.75878   0.18780   0.72279   0.00000  Uiso   1.00
C568   C     0.75074   0.22739   0.70484   0.00000  Uiso   1.00
C569   C     0.78241   0.25119   0.67770   0.00000  Uiso   1.00
C570   C     0.73156   0.12386   0.67498   0.00000  Uiso   1.00
C571   C     0.70063   0.10969   0.61684   0.00000  Uiso   1.00
C572   C     0.70938   0.07967   0.54946   0.00000  Uiso   1.00
C573   C     0.74380   0.13874   0.85096   0.00000  Uiso   1.00
C574   C     0.72316   0.13706   0.94077   0.00000  Uiso   1.00
C575   C     0.74221   0.11955   0.02155   0.00000  Uiso   1.00
H576   H     0.82894   0.11653   0.73016   0.00000  Uiso   1.00
H577   H     0.85841   0.18442   0.68001   0.00000  Uiso   1.00
H578   H     0.80830   0.06674   0.59204   0.00000  Uiso   1.00
H579   H     0.83083   0.09411   0.91592   0.00000  Uiso   1.00
H580   H     0.87417   0.26644   0.62828   0.00000  Uiso   1.00
H581   H     0.76853   0.01830   0.44280   0.00000  Uiso   1.00
H582   H     0.81603   0.07600   0.12577   0.00000  Uiso   1.00
H583   H     0.69878   0.16845   0.76017   0.00000  Uiso   1.00
H584   H     0.72110   0.23921   0.71168   0.00000  Uiso   1.00
H585   H     0.67099   0.12152   0.62370   0.00000  Uiso   1.00
H586   H     0.69352   0.14889   0.94758   0.00000  Uiso   1.00
H587   H     0.76273   0.31090   0.65397   0.00000  Uiso   1.00
H588   H     0.65708   0.06276   0.46850   0.00000  Uiso   1.00
H589   H     0.70458   0.12046   0.15146   0.00000  Uiso   1.00
O590   O     0.83548   0.33427   0.60865   0.00000  Uiso   1.00
O591   O     0.69688   0.00871   0.36533   0.00000  Uiso   1.00
O592   O     0.75919   0.08443   0.26136   0.00000  Uiso   1.00
N593   N     0.84488   0.26719   0.64100   0.00000  Uiso   1.00
N594   N     0.74611   0.03520   0.46758   0.00000  Uiso   1.00
N595   N     0.79052   0.08914   0.10609   0.00000  Uiso   1.00
N596   N     0.78492   0.29112   0.65483   0.00000  Uiso   1.00
N597   N     0.68615   0.05912   0.48141   0.00000  Uiso   1.00
N598   N     0.73055   0.11307   0.11992   0.00000  Uiso   1.00
C599   C     0.29912   0.62842   0.23704   0.00000  Uiso   1.00
C600   C     0.29708   0.67252   0.21396   0.00000  Uiso   1.00
C601   C     0.32877   0.69626   0.18685   0.00000  Uiso   1.00
C602   C     0.32078   0.73588   0.16885   0.00000  Uiso   1.00
C603   C     0.32344   0.80202   0.13163   0.00000  Uiso   1.00
C604   C     0.26986   0.60858   0.16615   0.00000  Uiso   1.00
C605   C     0.27866   0.57857   0.09885   0.00000  Uiso   1.00
C606   C     0.24776   0.56436   0.04061   0.00000  Uiso   1.00
C607   C     0.20814   0.53121   0.92922   0.00000  Uiso   1.00
C608   C     0.28210   0.62345   0.34212   0.00000  Uiso   1.00
C609   C     0.30119   0.60593   0.42278   0.00000  Uiso   1.00
C610   C     0.28059   0.60424   0.51270   0.00000  Uiso   1.00
C611   C     0.25998   0.59419   0.67453   0.00000  Uiso   1.00
C612   C     0.22860   0.65656   0.25330   0.00000  Uiso   1.00
C613   C     0.25878   0.68780   0.22279   0.00000  Uiso   1.00
C614   C     0.25074   0.72739   0.20484   0.00000  Uiso   1.00
C615   C     0.28241   0.75119   0.17770   0.00000  Uiso   1.00
C616   C     0.23156   0.62386   0.17498   0.00000  Uiso   1.00
C617   C     0.20063   0.60969   0.11684   0.00000  Uiso   1.00
C618   C     0.20938   0.57967   0.04946   0.00000  Uiso   1.00
C619   C     0.24380   0.63874   0.35096   0.00000  Uiso   1.00
C620   C     0.22316   0.63706   0.44077   0.00000  Uiso   1.00
C621   C     0.24221   0.61955   0.52155   0.00000  Uiso   1.00
H622   H     0.32894   0.61653   0.23016   0.00000  Uiso   1.00
H623   H     0.35841   0.68442   0.18001   0.00000  Uiso   1.00
H624   H     0.30830   0.56674   0.09204   0.00000  Uiso   1.00
H625   H     0.33083   0.59411   0.41592   0.00000  Uiso   1.00
H626   H     0.37417   0.76644   0.12828   0.00000  Uiso   1.00
H627   H     0.26853   0.51830   0.94280   0.00000  Uiso   1.00
H628   H     0.31603   0.57600   0.62577   0.00000  Uiso   1.00
H629   H     0.19878   0.66845   0.26017   0.00000  Uiso   1.00
H630   H     0.22110   0.73921   0.21168   0.00000  Uiso   1.00
H631   H     0.17099   0.62152   0.12370   0.00000  Uiso   1.00
H632   H     0.19352   0.64889   0.44758   0.00000  Uiso   1.00
H633   H     0.26273   0.81090   0.15397   0.00000  Uiso   1.00
H634   H     0.15708   0.56276   0.96850   0.00000  Uiso   1.00
H635   H     0.20458   0.62046   0.65146   0.00000  Uiso   1.00
O636   O     0.33548   0.83427   0.10865   0.00000  Uiso   1.00
O637   O     0.19688   0.50871   0.86533   0.00000  Uiso   1.00
O638   O     0.25919   0.58443   0.76136   0.00000  Uiso   1.00
N639   N     0.34488   0.76719   0.14100   0.00000  Uiso   1.00
N640   N     0.24611   0.53520   0.96758   0.00000  Uiso   1.00
N641   N     0.29052   0.58914   0.60609   0.00000  Uiso   1.00
N642   N     0.28492   0.79112   0.15483   0.00000  Uiso   1.00
N643   N     0.18615   0.55912   0.98141   0.00000  Uiso   1.00
N644   N     0.23055   0.61307   0.61992   0.00000  Uiso   1.00
C645   C     0.70088   0.37158   0.23704   0.00000  Uiso   1.00
C646   C     0.70292   0.32748   0.21396   0.00000  Uiso   1.00
C647   C     0.67123   0.30374   0.18685   0.00000  Uiso   1.00
C648   C     0.67922   0.26412   0.16885   0.00000  Uiso   1.00
C649   C     0.67656   0.19798   0.13163   0.00000  Uiso   1.00
C650   C     0.73014   0.39142   0.16615   0.00000  Uiso   1.00
C651   C     0.72134   0.42143   0.09885   0.00000  Uiso   1.00
C652   C     0.75224   0.43564   0.04061   0.00000  Uiso   1.00
C653   C     0.79186   0.46879   0.92922   0.00000  Uiso   1.00
C654   C     0.71790   0.37655   0.34212   0.00000  Uiso   1.00
C655   C     0.69881   0.39407   0.42278   0.00000  Uiso   1.00
C656   C     0.71941   0.39576   0.51270   0.00000  Uiso   1.00
C657   C     0.74002   0.40581   0.67453   0.00000  Uiso   1.00
C658   C     0.77140   0.34344   0.25330   0.00000  Uiso   1.00
C659   C     0.74122   0.31220   0.22279   0.00000  Uiso   1.00
C660   C     0.74926   0.27261   0.20484   0.00000  Uiso   1.00
C661   C     0.71759   0.24881   0.17770   0.00000  Uiso   1.00
C662   C     0.76844   0.37614   0.17498   0.00000  Uiso   1.00
C663   C     0.79937   0.39031   0.11684   0.00000  Uiso   1.00
C664   C     0.79062   0.42033   0.04946   0.00000  Uiso   1.00
C665   C     0.75620   0.36126   0.35096   0.00000  Uiso   1.00
C666   C     0.77684   0.36294   0.44077   0.00000  Uiso   1.00
C667   C     0.75779   0.38045   0.52155   0.00000  Uiso   1.00
H668   H     0.67106   0.38347   0.23016   0.00000  Uiso   1.00
H669   H     0.64159   0.31558   0.18001   0.00000  Uiso   1.00
H670   H     0.69170   0.43326   0.09204   0.00000  Uiso   1.00
H671   H     0.66917   0.40589   0.41592   0.00000  Uiso   1.00
H672   H     0.62583   0.23356   0.12828   0.00000  Uiso   1.00
H673   H     0.73147   0.48170   0.94280   0.00000  Uiso   1.00
H674   H     0.68397   0.42400   0.62577   0.00000  Uiso   1.00
H675   H     0.80122   0.33155   0.26017   0.00000  Uiso   1.00
H676   H     0.77890   0.26079   0.21168   0.00000  Uiso   1.00
H677   H     0.82901   0.37848   0.12370   0.00000  Uiso   1.00
H678   H     0.80648   0.35111   0.44758   0.00000  Uiso   1.00
H679   H     0.73727   0.18910   0.15397   0.00000  Uiso   1.00
H680   H     0.84292   0.43724   0.96850   0.00000  Uiso   1.00
H681   H     0.79542   0.37954   0.65146   0.00000  Uiso   1.00
O682   O     0.66452   0.16573   0.10865   0.00000  Uiso   1.00
O683   O     0.80312   0.49129   0.86533   0.00000  Uiso   1.00
O684   O     0.74081   0.41557   0.76136   0.00000  Uiso   1.00
N685   N     0.65512   0.23281   0.14100   0.00000  Uiso   1.00
N686   N     0.75389   0.46480   0.96758   0.00000  Uiso   1.00
N687   N     0.70948   0.41086   0.60609   0.00000  Uiso   1.00
N688   N     0.71508   0.20888   0.15483   0.00000  Uiso   1.00
N689   N     0.81385   0.44088   0.98141   0.00000  Uiso   1.00
N690   N     0.76945   0.38693   0.61992   0.00000  Uiso   1.00
C691   C     0.20088   0.87158   0.73704   0.00000  Uiso   1.00
C692   C     0.20292   0.82748   0.71396   0.00000  Uiso   1.00
C693   C     0.17123   0.80374   0.68685   0.00000  Uiso   1.00
C694   C     0.17922   0.76412   0.66885   0.00000  Uiso   1.00
C695   C     0.17656   0.69798   0.63163   0.00000  Uiso   1.00
C696   C     0.23014   0.89142   0.66615   0.00000  Uiso   1.00
C697   C     0.22134   0.92143   0.59885   0.00000  Uiso   1.00
C698   C     0.25224   0.93564   0.54061   0.00000  Uiso   1.00
C699   C     0.29186   0.96879   0.42922   0.00000  Uiso   1.00
C700   C     0.21790   0.87655   0.84212   0.00000  Uiso   1.00
C701   C     0.19881   0.89407   0.92278   0.00000  Uiso   1.00
C702   C     0.21941   0.89576   0.01270   0.00000  Uiso   1.00
C703   C     0.24002   0.90581   0.17453   0.00000  Uiso   1.00
C704   C     0.27140   0.84344   0.75330   0.00000  Uiso   1.00
C705   C     0.24122   0.81220   0.72279   0.00000  Uiso   1.00
C706   C     0.24926   0.77261   0.70484   0.00000  Uiso   1.00
C707   C     0.21759   0.74881   0.67770   0.00000  Uiso   1.00
C708   C     0.26844   0.87614   0.67498   0.00000  Uiso   1.00
C709   C     0.29937   0.89031   0.61684   0.00000  Uiso   1.00
C710   C     0.29062   0.92033   0.54946   0.00000  Uiso   1.00
C711   C     0.25620   0.86126   0.85096   0.00000  Uiso   1.00
C712   C     0.27684   0.86294   0.94077   0.00000  Uiso   1.00
C713   C     0.25779   0.88045   0.02155   0.00000  Uiso   1.00
H714   H     0.17106   0.88347   0.73016   0.00000  Uiso   1.00
H715   H     0.14159   0.81558   0.68001   0.00000  Uiso   1.00
H716   H     0.19170   0.93326   0.59204   0.00000  Uiso   1.00
H717   H     0.16917   0.90589   0.91592   0.00000  Uiso   1.00
H718   H     0.12583   0.73356   0.62828   0.00000  Uiso   1.00
H719   H     0.23147   0.98170   0.44280   0.00000  Uiso   1.00
H720   H     0.18397   0.92400   0.12577   0.00000  Uiso   1.00
H721   H     0.30122   0.83155   0.76017   0.00000  Uiso   1.00
H722   H     0.27890   0.76079   0.71168   0.00000  Uiso   1.00
H723   H     0.32901   0.87848   0.62370   0.00000  Uiso   1.00
H724   H     0.30648   0.85111   0.94758   0.00000  Uiso   1.00
H725   H     0.23727   0.68910   0.65397   0.00000  Uiso   1.00
H726   H     0.34292   0.93724   0.46850   0.00000  Uiso   1.00
H727   H     0.29542   0.87954   0.15146   0.00000  Uiso   1.00
O728   O     0.16452   0.66573   0.60865   0.00000  Uiso   1.00
O729   O     0.30312   0.99129   0.36533   0.00000  Uiso   1.00
O730   O     0.24081   0.91557   0.26136   0.00000  Uiso   1.00
N731   N     0.15512   0.73281   0.64100   0.00000  Uiso   1.00
N732   N     0.25389   0.96480   0.46758   0.00000  Uiso   1.00
N733   N     0.20948   0.91086   0.10609   0.00000  Uiso   1.00
N734   N     0.21508   0.70888   0.65483   0.00000  Uiso   1.00
N735   N     0.31385   0.94088   0.48141   0.00000  Uiso   1.00
N736   N     0.26945   0.88693   0.11992   0.00000  Uiso   1.00
