data_job_07010
_audit_creation_date              2018-12-19
_audit_creation_method            'Materials Studio'
_symmetry_space_group_name_H-M    'P1'
_symmetry_Int_Tables_number       1
_symmetry_cell_setting            triclinic
loop_
_symmetry_equiv_pos_as_xyz
  x,y,z
_cell_length_a                    23.3509
_cell_length_b                    38.1291
_cell_length_c                    23.3404
_cell_angle_alpha                 90.0000
_cell_angle_beta                  122.1614
_cell_angle_gamma                 90.0000
loop_
_atom_site_label
_atom_site_type_symbol
_atom_site_fract_x
_atom_site_fract_y
_atom_site_fract_z
_atom_site_U_iso_or_equiv
_atom_site_adp_type
_atom_site_occupancy
C1     C     0.42715   0.43759   0.32995   0.00000  Uiso   1.00
C2     C     0.36777   0.46030   0.27926   0.00000  Uiso   1.00
C3     C     0.34539   0.49054   0.29446   0.00000  Uiso   1.00
C4     C     0.29023   0.50756   0.24095   0.00000  Uiso   1.00
C5     C     0.70282   0.04476   0.17233   0.00000  Uiso   1.00
C6     C     0.39884   0.40069   0.32267   0.00000  Uiso   1.00
C7     C     0.40258   0.38082   0.37438   0.00000  Uiso   1.00
C8     C     0.37358   0.34766   0.35741   0.00000  Uiso   1.00
C9     C     0.33445   0.29231   0.35621   0.00000  Uiso   1.00
C10    C     0.47498   0.43564   0.30426   0.00000  Uiso   1.00
C11    C     0.54275   0.44514   0.34050   0.00000  Uiso   1.00
C12    C     0.57786   0.44141   0.30803   0.00000  Uiso   1.00
C13    C     0.65695   0.44033   0.27825   0.00000  Uiso   1.00
C14    C     0.36900   0.41405   0.20788   0.00000  Uiso   1.00
C15    C     0.33619   0.44751   0.21296   0.00000  Uiso   1.00
C16    C     0.28105   0.46450   0.15941   0.00000  Uiso   1.00
C17    C     0.75859   0.99475   0.17453   0.00000  Uiso   1.00
C18    C     0.36725   0.38791   0.25637   0.00000  Uiso   1.00
C19    C     0.33825   0.35478   0.23933   0.00000  Uiso   1.00
C20    C     0.34194   0.33485   0.29099   0.00000  Uiso   1.00
C21    C     0.44340   0.42286   0.23796   0.00000  Uiso   1.00
C22    C     0.47841   0.41911   0.20544   0.00000  Uiso   1.00
C23    C     0.54622   0.42860   0.24161   0.00000  Uiso   1.00
H24    H     0.45174   0.44754   0.38157   0.00000  Uiso   1.00
H25    H     0.36984   0.50042   0.34578   0.00000  Uiso   1.00
H26    H     0.42703   0.39071   0.42568   0.00000  Uiso   1.00
H27    H     0.56718   0.45504   0.39180   0.00000  Uiso   1.00
H28    H     0.76510   0.05340   0.27686   0.00000  Uiso   1.00
H29    H     0.38571   0.32208   0.44535   0.00000  Uiso   1.00
H30    H     0.68124   0.45771   0.37391   0.00000  Uiso   1.00
H31    H     0.34441   0.40410   0.15626   0.00000  Uiso   1.00
H32    H     0.25662   0.45460   0.10811   0.00000  Uiso   1.00
H33    H     0.31381   0.34489   0.18802   0.00000  Uiso   1.00
H34    H     0.45396   0.40921   0.15413   0.00000  Uiso   1.00
H35    H     0.67320   0.01621   0.08396   0.00000  Uiso   1.00
H36    H     0.29382   0.28489   0.25245   0.00000  Uiso   1.00
H37    H     0.58934   0.42052   0.18101   0.00000  Uiso   1.00
O38    O     0.66332   0.06880   0.15280   0.00000  Uiso   1.00
O39    O     0.32158   0.26531   0.37386   0.00000  Uiso   1.00
O40    O     0.70929   0.44326   0.28013   0.00000  Uiso   1.00
N41    N     0.75553   0.03772   0.23807   0.00000  Uiso   1.00
N42    N     0.36828   0.32145   0.39560   0.00000  Uiso   1.00
N43    N     0.64458   0.44825   0.32881   0.00000  Uiso   1.00
N44    N     0.70608   0.01771   0.13427   0.00000  Uiso   1.00
N45    N     0.31884   0.30144   0.29180   0.00000  Uiso   1.00
N46    N     0.59513   0.42824   0.22501   0.00000  Uiso   1.00
C47    C     0.27362   0.15592   0.62691   0.00000  Uiso   1.00
C48    C     0.19867   0.16342   0.59640   0.00000  Uiso   1.00
C49    C     0.15042   0.13915   0.58781   0.00000  Uiso   1.00
C50    C     0.08454   0.15120   0.55890   0.00000  Uiso   1.00
C51    C     0.47073   0.65751   0.51447   0.00000  Uiso   1.00
C52    C     0.28902   0.16717   0.57379   0.00000  Uiso   1.00
C53    C     0.31675   0.14605   0.54621   0.00000  Uiso   1.00
C54    C     0.32695   0.16127   0.49828   0.00000  Uiso   1.00
C55    C     0.35346   0.17341   0.41879   0.00000  Uiso   1.00
C56    C     0.31180   0.18140   0.68583   0.00000  Uiso   1.00
C57    C     0.35870   0.17225   0.75245   0.00000  Uiso   1.00
C58    C     0.38809   0.19944   0.79886   0.00000  Uiso   1.00
C59    C     0.44997   0.23368   0.89333   0.00000  Uiso   1.00
C60    C     0.24244   0.22049   0.59086   0.00000  Uiso   1.00
C61    C     0.18173   0.19849   0.57681   0.00000  Uiso   1.00
C62    C     0.11591   0.21059   0.54792   0.00000  Uiso   1.00
C63    C     0.06757   0.18633   0.53929   0.00000  Uiso   1.00
C64    C     0.27209   0.20225   0.55421   0.00000  Uiso   1.00
C65    C     0.28225   0.21749   0.50632   0.00000  Uiso   1.00
C66    C     0.30998   0.19640   0.47867   0.00000  Uiso   1.00
C67    C     0.29486   0.21648   0.66626   0.00000  Uiso   1.00
C68    C     0.32419   0.24369   0.71257   0.00000  Uiso   1.00
C69    C     0.37112   0.23458   0.77924   0.00000  Uiso   1.00
H70    H     0.28681   0.12861   0.64215   0.00000  Uiso   1.00
H71    H     0.16355   0.11200   0.60296   0.00000  Uiso   1.00
H72    H     0.32986   0.11891   0.56137   0.00000  Uiso   1.00
H73    H     0.37180   0.14510   0.76759   0.00000  Uiso   1.00
H74    H     0.51941   0.60906   0.55085   0.00000  Uiso   1.00
H75    H     0.37011   0.12363   0.46318   0.00000  Uiso   1.00
H76    H     0.45855   0.17885   0.89802   0.00000  Uiso   1.00
H77    H     0.22925   0.24779   0.57562   0.00000  Uiso   1.00
H78    H     0.10282   0.23773   0.53277   0.00000  Uiso   1.00
H79    H     0.26913   0.24464   0.49118   0.00000  Uiso   1.00
H80    H     0.31107   0.27083   0.69740   0.00000  Uiso   1.00
H81    H     0.97012   0.21110   0.49388   0.00000  Uiso   1.00
H82    H     0.32083   0.22567   0.40621   0.00000  Uiso   1.00
H83    H     0.40926   0.28090   0.84105   0.00000  Uiso   1.00
O84    O     0.91263   0.15131   0.49536   0.00000  Uiso   1.00
O85    O     0.37275   0.17042   0.38035   0.00000  Uiso   1.00
O86    O     0.48877   0.24288   0.95085   0.00000  Uiso   1.00
N87    N     0.52516   0.63446   0.54333   0.00000  Uiso   1.00
N88    N     0.35304   0.14808   0.46136   0.00000  Uiso   1.00
N89    N     0.43573   0.19971   0.86790   0.00000  Uiso   1.00
N90    N     0.49864   0.68937   0.51268   0.00000  Uiso   1.00
N91    N     0.32652   0.20299   0.43070   0.00000  Uiso   1.00
N92    N     0.40921   0.25462   0.83724   0.00000  Uiso   1.00
C93    C     0.49207   0.11513   0.22735   0.00000  Uiso   1.00
C94    C     0.46925   0.09704   0.16023   0.00000  Uiso   1.00
C95    C     0.50132   0.09926   0.12454   0.00000  Uiso   1.00
C96    C     0.47249   0.08076   0.06414   0.00000  Uiso   1.00
C97    C     0.44599   0.05572   0.96353   0.00000  Uiso   1.00
C98    C     0.43203   0.13703   0.21546   0.00000  Uiso   1.00
C99    C     0.43281   0.17288   0.22622   0.00000  Uiso   1.00
C100   C     0.37266   0.18805   0.21232   0.00000  Uiso   1.00
C101   C     0.28838   0.22509   0.19750   0.00000  Uiso   1.00
C102   C     0.50076   0.08612   0.27634   0.00000  Uiso   1.00
C103   C     0.55931   0.07916   0.33829   0.00000  Uiso   1.00
C104   C     0.55702   0.05147   0.37565   0.00000  Uiso   1.00
C105   C     0.57945   0.00946   0.45535   0.00000  Uiso   1.00
C106   C     0.38385   0.07834   0.18355   0.00000  Uiso   1.00
C107   C     0.41047   0.07706   0.13644   0.00000  Uiso   1.00
C108   C     0.38159   0.05855   0.07608   0.00000  Uiso   1.00
C109   C     0.41361   0.06074   0.04031   0.00000  Uiso   1.00
C110   C     0.37325   0.11705   0.19168   0.00000  Uiso   1.00
C111   C     0.31309   0.13217   0.17776   0.00000  Uiso   1.00
C112   C     0.31377   0.16803   0.18849   0.00000  Uiso   1.00
C113   C     0.44198   0.06614   0.25255   0.00000  Uiso   1.00
C114   C     0.43959   0.03846   0.28983   0.00000  Uiso   1.00
C115   C     0.49813   0.03145   0.35182   0.00000  Uiso   1.00
H116   H     0.53782   0.13069   0.24587   0.00000  Uiso   1.00
H117   H     0.54680   0.11473   0.14297   0.00000  Uiso   1.00
H118   H     0.47830   0.18833   0.24464   0.00000  Uiso   1.00
H119   H     0.60479   0.09463   0.35668   0.00000  Uiso   1.00
H120   H     0.53082   0.08822   0.01837   0.00000  Uiso   1.00
H121   H     0.38640   0.24342   0.23277   0.00000  Uiso   1.00
H122   H     0.65311   0.04583   0.46904   0.00000  Uiso   1.00
H123   H     0.33809   0.06279   0.16503   0.00000  Uiso   1.00
H124   H     0.33611   0.04309   0.05769   0.00000  Uiso   1.00
H125   H     0.26761   0.11670   0.15936   0.00000  Uiso   1.00
H126   H     0.39410   0.02300   0.27140   0.00000  Uiso   1.00
H127   H     0.35981   0.03008   0.94915   0.00000  Uiso   1.00
H128   H     0.21539   0.18528   0.16356   0.00000  Uiso   1.00
H129   H     0.48211   0.98769   0.39982   0.00000  Uiso   1.00
O130   O     0.44760   0.04743   0.91460   0.00000  Uiso   1.00
O131   O     0.25813   0.25105   0.19589   0.00000  Uiso   1.00
O132   O     0.60806   0.99181   0.50587   0.00000  Uiso   1.00
N133   N     0.49085   0.07723   0.01682   0.00000  Uiso   1.00
N134   N     0.35582   0.22234   0.21726   0.00000  Uiso   1.00
N135   N     0.60518   0.03762   0.43816   0.00000  Uiso   1.00
N136   N     0.39883   0.04595   0.97957   0.00000  Uiso   1.00
N137   N     0.26381   0.19106   0.18002   0.00000  Uiso   1.00
N138   N     0.51316   0.00633   0.40092   0.00000  Uiso   1.00
C139   C     0.45212   0.04922   0.62427   0.00000  Uiso   1.00
C140   C     0.50996   0.02876   0.68248   0.00000  Uiso   1.00
C141   C     0.54123   0.99939   0.67607   0.00000  Uiso   1.00
C142   C     0.59319   0.98445   0.73546   0.00000  Uiso   1.00
C143   C     0.68000   0.95056   0.81620   0.00000  Uiso   1.00
C144   C     0.47653   0.08705   0.63265   0.00000  Uiso   1.00
C145   C     0.47969   0.10669   0.58434   0.00000  Uiso   1.00
C146   C     0.50350   0.14082   0.60179   0.00000  Uiso   1.00
C147   C     0.53837   0.19745   0.60515   0.00000  Uiso   1.00
C148   C     0.39500   0.04945   0.63775   0.00000  Uiso   1.00
C149   C     0.32958   0.03750   0.59372   0.00000  Uiso   1.00
C150   C     0.28474   0.03999   0.61545   0.00000  Uiso   1.00
C151   C     0.69301   0.53824   0.62672   0.00000  Uiso   1.00
C152   C     0.48880   0.07491   0.74114   0.00000  Uiso   1.00
C153   C     0.52988   0.04271   0.74596   0.00000  Uiso   1.00
C154   C     0.58181   0.02781   0.80538   0.00000  Uiso   1.00
C155   C     0.61315   0.99843   0.79906   0.00000  Uiso   1.00
C156   C     0.49646   0.10101   0.69613   0.00000  Uiso   1.00
C157   C     0.52027   0.13512   0.71365   0.00000  Uiso   1.00
C158   C     0.52346   0.15480   0.66538   0.00000  Uiso   1.00
C159   C     0.41492   0.06341   0.70123   0.00000  Uiso   1.00
C160   C     0.37017   0.06592   0.72303   0.00000  Uiso   1.00
C161   C     0.30470   0.05397   0.67904   0.00000  Uiso   1.00
H162   H     0.43661   0.03835   0.57484   0.00000  Uiso   1.00
H163   H     0.52580   0.98859   0.62693   0.00000  Uiso   1.00
H164   H     0.46426   0.09588   0.53522   0.00000  Uiso   1.00
H165   H     0.31418   0.02670   0.54460   0.00000  Uiso   1.00
H166   H     0.63349   0.93959   0.71268   0.00000  Uiso   1.00
H167   H     0.50371   0.16582   0.51929   0.00000  Uiso   1.00
H168   H     0.68724   0.51993   0.53906   0.00000  Uiso   1.00
H169   H     0.50431   0.08578   0.79057   0.00000  Uiso   1.00
H170   H     0.59722   0.03862   0.85450   0.00000  Uiso   1.00
H171   H     0.53568   0.14591   0.76278   0.00000  Uiso   1.00
H172   H     0.38560   0.07673   0.77216   0.00000  Uiso   1.00
H173   H     0.69146   0.98020   0.89738   0.00000  Uiso   1.00
H174   H     0.56167   0.20642   0.70398   0.00000  Uiso   1.00
H175   H     0.24521   0.06054   0.72376   0.00000  Uiso   1.00
O176   O     0.22238   0.42802   0.84320   0.00000  Uiso   1.00
O177   O     0.55211   0.22482   0.58946   0.00000  Uiso   1.00
O178   O     0.63691   0.53342   0.61541   0.00000  Uiso   1.00
N179   N     0.63437   0.95561   0.74738   0.00000  Uiso   1.00
N180   N     0.51305   0.16712   0.56657   0.00000  Uiso   1.00
N181   N     0.21717   0.03074   0.58505   0.00000  Uiso   1.00
N182   N     0.66556   0.97746   0.84676   0.00000  Uiso   1.00
N183   N     0.54424   0.18897   0.66595   0.00000  Uiso   1.00
N184   N     0.24836   0.05259   0.68443   0.00000  Uiso   1.00
C185   C     0.60748   0.34140   0.36137   0.00000  Uiso   1.00
C186   C     0.68223   0.33348   0.39155   0.00000  Uiso   1.00
C187   C     0.73118   0.35765   0.40155   0.00000  Uiso   1.00
C188   C     0.79672   0.34521   0.42985   0.00000  Uiso   1.00
C189   C     0.41038   0.83830   0.47406   0.00000  Uiso   1.00
C190   C     0.59166   0.32932   0.41377   0.00000  Uiso   1.00
C191   C     0.56444   0.34999   0.44245   0.00000  Uiso   1.00
C192   C     0.55373   0.33404   0.48945   0.00000  Uiso   1.00
C193   C     0.52672   0.32066   0.56812   0.00000  Uiso   1.00
C194   C     0.56867   0.31680   0.30104   0.00000  Uiso   1.00
C195   C     0.52210   0.32694   0.23494   0.00000  Uiso   1.00
C196   C     0.49202   0.30044   0.18703   0.00000  Uiso   1.00
C197   C     0.42931   0.26762   0.09068   0.00000  Uiso   1.00
C198   C     0.63684   0.27632   0.39383   0.00000  Uiso   1.00
C199   C     0.69818   0.29814   0.40918   0.00000  Uiso   1.00
C200   C     0.76367   0.28566   0.43747   0.00000  Uiso   1.00
C201   C     0.81270   0.30980   0.44752   0.00000  Uiso   1.00
C202   C     0.60761   0.29398   0.43140   0.00000  Uiso   1.00
C203   C     0.59693   0.27799   0.47837   0.00000  Uiso   1.00
C204   C     0.56971   0.29863   0.50712   0.00000  Uiso   1.00
C205   C     0.58462   0.28145   0.31867   0.00000  Uiso   1.00
C206   C     0.55460   0.25494   0.27086   0.00000  Uiso   1.00
C207   C     0.50800   0.26503   0.20470   0.00000  Uiso   1.00
H208   H     0.59505   0.36892   0.34764   0.00000  Uiso   1.00
H209   H     0.71881   0.38500   0.38791   0.00000  Uiso   1.00
H210   H     0.55209   0.37734   0.42879   0.00000  Uiso   1.00
H211   H     0.50977   0.35429   0.22131   0.00000  Uiso   1.00
H212   H     0.36306   0.88726   0.44035   0.00000  Uiso   1.00
H213   H     0.51150   0.37109   0.52653   0.00000  Uiso   1.00
H214   H     0.42225   0.32249   0.08903   0.00000  Uiso   1.00
H215   H     0.64926   0.24880   0.40756   0.00000  Uiso   1.00
H216   H     0.77600   0.25830   0.45111   0.00000  Uiso   1.00
H217   H     0.60928   0.25064   0.49200   0.00000  Uiso   1.00
H218   H     0.56695   0.22759   0.28452   0.00000  Uiso   1.00
H219   H     0.90948   0.28442   0.49165   0.00000  Uiso   1.00
H220   H     0.55791   0.26826   0.57784   0.00000  Uiso   1.00
H221   H     0.46866   0.21965   0.14033   0.00000  Uiso   1.00
O222   O     0.46867   0.84425   0.49359   0.00000  Uiso   1.00
O223   O     0.50742   0.32305   0.60665   0.00000  Uiso   1.00
O224   O     0.39033   0.25928   0.03266   0.00000  Uiso   1.00
N225   N     0.85659   0.36175   0.44643   0.00000  Uiso   1.00
N226   N     0.52791   0.34664   0.52702   0.00000  Uiso   1.00
N227   N     0.44445   0.30120   0.11799   0.00000  Uiso   1.00
N228   N     0.88157   0.30641   0.47404   0.00000  Uiso   1.00
N229   N     0.55289   0.29131   0.55462   0.00000  Uiso   1.00
N230   N     0.46943   0.24586   0.14560   0.00000  Uiso   1.00
C231   C     0.38040   0.38927   0.74790   0.00000  Uiso   1.00
C232   C     0.40945   0.40663   0.81684   0.00000  Uiso   1.00
C233   C     0.38033   0.40627   0.85543   0.00000  Uiso   1.00
C234   C     0.41483   0.42368   0.91711   0.00000  Uiso   1.00
C235   C     0.45061   0.44801   0.02079   0.00000  Uiso   1.00
C236   C     0.43521   0.36456   0.75509   0.00000  Uiso   1.00
C237   C     0.42775   0.32883   0.74174   0.00000  Uiso   1.00
C238   C     0.48394   0.31083   0.75143   0.00000  Uiso   1.00
C239   C     0.55970   0.26986   0.75919   0.00000  Uiso   1.00
C240   C     0.37402   0.41826   0.69982   0.00000  Uiso   1.00
C241   C     0.31510   0.42766   0.63999   0.00000  Uiso   1.00
C242   C     0.31977   0.45487   0.60313   0.00000  Uiso   1.00
C243   C     0.30052   0.49726   0.52507   0.00000  Uiso   1.00
C244   C     0.49346   0.42085   0.78882   0.00000  Uiso   1.00
C245   C     0.47086   0.42378   0.83906   0.00000  Uiso   1.00
C246   C     0.50542   0.44120   0.90070   0.00000  Uiso   1.00
C247   C     0.47635   0.44086   0.93937   0.00000  Uiso   1.00
C248   C     0.49662   0.38171   0.77731   0.00000  Uiso   1.00
C249   C     0.55284   0.36377   0.78701   0.00000  Uiso   1.00
C250   C     0.54546   0.32801   0.77369   0.00000  Uiso   1.00
C251   C     0.43543   0.43541   0.72204   0.00000  Uiso   1.00
C252   C     0.44019   0.46260   0.68526   0.00000  Uiso   1.00
C253   C     0.38129   0.47205   0.62539   0.00000  Uiso   1.00
H254   H     0.33259   0.37592   0.73060   0.00000  Uiso   1.00
H255   H     0.33280   0.39299   0.83822   0.00000  Uiso   1.00
H256   H     0.38022   0.31556   0.72454   0.00000  Uiso   1.00
H257   H     0.26759   0.41438   0.62281   0.00000  Uiso   1.00
H258   H     0.36014   0.41946   0.96734   0.00000  Uiso   1.00
H259   H     0.46010   0.25621   0.72763   0.00000  Uiso   1.00
H260   H     0.72260   0.96460   0.51310   0.00000  Uiso   1.00
H261   H     0.54127   0.43420   0.80612   0.00000  Uiso   1.00
H262   H     0.55294   0.45448   0.91788   0.00000  Uiso   1.00
H263   H     0.60035   0.37705   0.80421   0.00000  Uiso   1.00
H264   H     0.48772   0.47587   0.70247   0.00000  Uiso   1.00
H265   H     0.53881   0.46937   0.03201   0.00000  Uiso   1.00
H266   H     0.63877   0.30612   0.79229   0.00000  Uiso   1.00
H267   H     0.40127   0.51450   0.57776   0.00000  Uiso   1.00
O268   O     0.45339   0.45669   0.07184   0.00000  Uiso   1.00
O269   O     0.58453   0.24251   0.75734   0.00000  Uiso   1.00
O270   O     0.77294   0.01591   0.47588   0.00000  Uiso   1.00
N271   N     0.40058   0.42843   0.96722   0.00000  Uiso   1.00
N272   N     0.49404   0.27580   0.74311   0.00000  Uiso   1.00
N273   N     0.27200   0.47062   0.54253   0.00000  Uiso   1.00
N274   N     0.49672   0.45529   0.00201   0.00000  Uiso   1.00
N275   N     0.59018   0.30266   0.77791   0.00000  Uiso   1.00
N276   N     0.36814   0.49747   0.57733   0.00000  Uiso   1.00
C277   C     0.92715   0.93759   0.32995   0.00000  Uiso   1.00
C278   C     0.86777   0.96030   0.27926   0.00000  Uiso   1.00
C279   C     0.84539   0.99054   0.29446   0.00000  Uiso   1.00
C280   C     0.79023   0.00756   0.24095   0.00000  Uiso   1.00
C281   C     0.20282   0.54476   0.17233   0.00000  Uiso   1.00
C282   C     0.89884   0.90069   0.32267   0.00000  Uiso   1.00
C283   C     0.90258   0.88082   0.37438   0.00000  Uiso   1.00
C284   C     0.87358   0.84766   0.35741   0.00000  Uiso   1.00
C285   C     0.83445   0.79231   0.35621   0.00000  Uiso   1.00
C286   C     0.97498   0.93564   0.30426   0.00000  Uiso   1.00
C287   C     0.04275   0.94514   0.34050   0.00000  Uiso   1.00
C288   C     0.07786   0.94141   0.30803   0.00000  Uiso   1.00
C289   C     0.15695   0.94033   0.27825   0.00000  Uiso   1.00
C290   C     0.86900   0.91405   0.20788   0.00000  Uiso   1.00
C291   C     0.83619   0.94751   0.21296   0.00000  Uiso   1.00
C292   C     0.78105   0.96450   0.15941   0.00000  Uiso   1.00
C293   C     0.25859   0.49475   0.17453   0.00000  Uiso   1.00
C294   C     0.86725   0.88791   0.25637   0.00000  Uiso   1.00
C295   C     0.83825   0.85478   0.23933   0.00000  Uiso   1.00
C296   C     0.84194   0.83485   0.29099   0.00000  Uiso   1.00
C297   C     0.94340   0.92286   0.23796   0.00000  Uiso   1.00
C298   C     0.97841   0.91911   0.20544   0.00000  Uiso   1.00
C299   C     0.04622   0.92860   0.24161   0.00000  Uiso   1.00
H300   H     0.95174   0.94754   0.38157   0.00000  Uiso   1.00
H301   H     0.86984   0.00042   0.34578   0.00000  Uiso   1.00
H302   H     0.92703   0.89071   0.42568   0.00000  Uiso   1.00
H303   H     0.06718   0.95504   0.39180   0.00000  Uiso   1.00
H304   H     0.26510   0.55340   0.27686   0.00000  Uiso   1.00
H305   H     0.88571   0.82208   0.44535   0.00000  Uiso   1.00
H306   H     0.18124   0.95771   0.37391   0.00000  Uiso   1.00
H307   H     0.84441   0.90410   0.15626   0.00000  Uiso   1.00
H308   H     0.75662   0.95460   0.10811   0.00000  Uiso   1.00
H309   H     0.81381   0.84489   0.18802   0.00000  Uiso   1.00
H310   H     0.95396   0.90921   0.15413   0.00000  Uiso   1.00
H311   H     0.17320   0.51621   0.08396   0.00000  Uiso   1.00
H312   H     0.79382   0.78489   0.25245   0.00000  Uiso   1.00
H313   H     0.08934   0.92052   0.18101   0.00000  Uiso   1.00
O314   O     0.16332   0.56880   0.15280   0.00000  Uiso   1.00
O315   O     0.82158   0.76531   0.37386   0.00000  Uiso   1.00
O316   O     0.20929   0.94326   0.28013   0.00000  Uiso   1.00
N317   N     0.25553   0.53772   0.23807   0.00000  Uiso   1.00
N318   N     0.86828   0.82145   0.39560   0.00000  Uiso   1.00
N319   N     0.14458   0.94825   0.32881   0.00000  Uiso   1.00
N320   N     0.20608   0.51771   0.13427   0.00000  Uiso   1.00
N321   N     0.81884   0.80144   0.29180   0.00000  Uiso   1.00
N322   N     0.09513   0.92824   0.22501   0.00000  Uiso   1.00
C323   C     0.77362   0.65592   0.62691   0.00000  Uiso   1.00
C324   C     0.69867   0.66342   0.59640   0.00000  Uiso   1.00
C325   C     0.65042   0.63915   0.58781   0.00000  Uiso   1.00
C326   C     0.58454   0.65120   0.55890   0.00000  Uiso   1.00
C327   C     0.97073   0.15751   0.51447   0.00000  Uiso   1.00
C328   C     0.78902   0.66717   0.57379   0.00000  Uiso   1.00
C329   C     0.81675   0.64605   0.54621   0.00000  Uiso   1.00
C330   C     0.82695   0.66127   0.49828   0.00000  Uiso   1.00
C331   C     0.85346   0.67341   0.41879   0.00000  Uiso   1.00
C332   C     0.81180   0.68140   0.68583   0.00000  Uiso   1.00
C333   C     0.85870   0.67225   0.75245   0.00000  Uiso   1.00
C334   C     0.88809   0.69944   0.79886   0.00000  Uiso   1.00
C335   C     0.94997   0.73368   0.89333   0.00000  Uiso   1.00
C336   C     0.74244   0.72049   0.59086   0.00000  Uiso   1.00
C337   C     0.68173   0.69849   0.57681   0.00000  Uiso   1.00
C338   C     0.61591   0.71059   0.54792   0.00000  Uiso   1.00
C339   C     0.56757   0.68633   0.53929   0.00000  Uiso   1.00
C340   C     0.77209   0.70225   0.55421   0.00000  Uiso   1.00
C341   C     0.78225   0.71749   0.50632   0.00000  Uiso   1.00
C342   C     0.80998   0.69640   0.47867   0.00000  Uiso   1.00
C343   C     0.79486   0.71648   0.66626   0.00000  Uiso   1.00
C344   C     0.82419   0.74369   0.71257   0.00000  Uiso   1.00
C345   C     0.87112   0.73458   0.77924   0.00000  Uiso   1.00
H346   H     0.78681   0.62861   0.64215   0.00000  Uiso   1.00
H347   H     0.66355   0.61200   0.60296   0.00000  Uiso   1.00
H348   H     0.82986   0.61891   0.56137   0.00000  Uiso   1.00
H349   H     0.87180   0.64510   0.76759   0.00000  Uiso   1.00
H350   H     0.01941   0.10906   0.55085   0.00000  Uiso   1.00
H351   H     0.87011   0.62363   0.46318   0.00000  Uiso   1.00
H352   H     0.95855   0.67885   0.89802   0.00000  Uiso   1.00
H353   H     0.72925   0.74779   0.57562   0.00000  Uiso   1.00
H354   H     0.60282   0.73773   0.53277   0.00000  Uiso   1.00
H355   H     0.76913   0.74464   0.49118   0.00000  Uiso   1.00
H356   H     0.81107   0.77083   0.69740   0.00000  Uiso   1.00
H357   H     0.47012   0.71110   0.49388   0.00000  Uiso   1.00
H358   H     0.82083   0.72567   0.40621   0.00000  Uiso   1.00
H359   H     0.90926   0.78090   0.84105   0.00000  Uiso   1.00
O360   O     0.41263   0.65131   0.49536   0.00000  Uiso   1.00
O361   O     0.87275   0.67042   0.38035   0.00000  Uiso   1.00
O362   O     0.98877   0.74288   0.95085   0.00000  Uiso   1.00
N363   N     0.02516   0.13446   0.54333   0.00000  Uiso   1.00
N364   N     0.85304   0.64808   0.46136   0.00000  Uiso   1.00
N365   N     0.93573   0.69971   0.86790   0.00000  Uiso   1.00
N366   N     0.99864   0.18937   0.51268   0.00000  Uiso   1.00
N367   N     0.82652   0.70299   0.43070   0.00000  Uiso   1.00
N368   N     0.90921   0.75462   0.83724   0.00000  Uiso   1.00
C369   C     0.99207   0.61513   0.22735   0.00000  Uiso   1.00
C370   C     0.96925   0.59704   0.16023   0.00000  Uiso   1.00
C371   C     0.00132   0.59926   0.12454   0.00000  Uiso   1.00
C372   C     0.97249   0.58076   0.06414   0.00000  Uiso   1.00
C373   C     0.94599   0.55572   0.96353   0.00000  Uiso   1.00
C374   C     0.93203   0.63703   0.21546   0.00000  Uiso   1.00
C375   C     0.93281   0.67288   0.22622   0.00000  Uiso   1.00
C376   C     0.87266   0.68805   0.21232   0.00000  Uiso   1.00
C377   C     0.78838   0.72509   0.19750   0.00000  Uiso   1.00
C378   C     0.00076   0.58612   0.27634   0.00000  Uiso   1.00
C379   C     0.05931   0.57916   0.33829   0.00000  Uiso   1.00
C380   C     0.05702   0.55147   0.37565   0.00000  Uiso   1.00
C381   C     0.07945   0.50946   0.45535   0.00000  Uiso   1.00
C382   C     0.88385   0.57834   0.18355   0.00000  Uiso   1.00
C383   C     0.91047   0.57706   0.13644   0.00000  Uiso   1.00
C384   C     0.88159   0.55855   0.07608   0.00000  Uiso   1.00
C385   C     0.91361   0.56074   0.04031   0.00000  Uiso   1.00
C386   C     0.87325   0.61705   0.19168   0.00000  Uiso   1.00
C387   C     0.81309   0.63217   0.17776   0.00000  Uiso   1.00
C388   C     0.81377   0.66803   0.18849   0.00000  Uiso   1.00
C389   C     0.94198   0.56614   0.25255   0.00000  Uiso   1.00
C390   C     0.93959   0.53846   0.28983   0.00000  Uiso   1.00
C391   C     0.99813   0.53145   0.35182   0.00000  Uiso   1.00
H392   H     0.03782   0.63069   0.24587   0.00000  Uiso   1.00
H393   H     0.04680   0.61473   0.14297   0.00000  Uiso   1.00
H394   H     0.97830   0.68833   0.24464   0.00000  Uiso   1.00
H395   H     0.10479   0.59463   0.35668   0.00000  Uiso   1.00
H396   H     0.03082   0.58822   0.01837   0.00000  Uiso   1.00
H397   H     0.88640   0.74342   0.23277   0.00000  Uiso   1.00
H398   H     0.15311   0.54583   0.46904   0.00000  Uiso   1.00
H399   H     0.83809   0.56279   0.16503   0.00000  Uiso   1.00
H400   H     0.83611   0.54309   0.05769   0.00000  Uiso   1.00
H401   H     0.76761   0.61670   0.15936   0.00000  Uiso   1.00
H402   H     0.89410   0.52300   0.27140   0.00000  Uiso   1.00
H403   H     0.85981   0.53008   0.94915   0.00000  Uiso   1.00
H404   H     0.71539   0.68528   0.16356   0.00000  Uiso   1.00
H405   H     0.98211   0.48769   0.39982   0.00000  Uiso   1.00
O406   O     0.94760   0.54743   0.91460   0.00000  Uiso   1.00
O407   O     0.75813   0.75105   0.19589   0.00000  Uiso   1.00
O408   O     0.10806   0.49181   0.50587   0.00000  Uiso   1.00
N409   N     0.99085   0.57723   0.01682   0.00000  Uiso   1.00
N410   N     0.85582   0.72234   0.21726   0.00000  Uiso   1.00
N411   N     0.10518   0.53762   0.43816   0.00000  Uiso   1.00
N412   N     0.89883   0.54595   0.97957   0.00000  Uiso   1.00
N413   N     0.76381   0.69106   0.18002   0.00000  Uiso   1.00
N414   N     0.01316   0.50633   0.40092   0.00000  Uiso   1.00
C415   C     0.95212   0.54922   0.62427   0.00000  Uiso   1.00
C416   C     0.00996   0.52876   0.68248   0.00000  Uiso   1.00
C417   C     0.04123   0.49939   0.67607   0.00000  Uiso   1.00
C418   C     0.09319   0.48445   0.73546   0.00000  Uiso   1.00
C419   C     0.18000   0.45056   0.81620   0.00000  Uiso   1.00
C420   C     0.97653   0.58705   0.63265   0.00000  Uiso   1.00
C421   C     0.97969   0.60669   0.58434   0.00000  Uiso   1.00
C422   C     0.00350   0.64082   0.60179   0.00000  Uiso   1.00
C423   C     0.03837   0.69745   0.60515   0.00000  Uiso   1.00
C424   C     0.89500   0.54945   0.63775   0.00000  Uiso   1.00
C425   C     0.82958   0.53750   0.59372   0.00000  Uiso   1.00
C426   C     0.78474   0.53999   0.61545   0.00000  Uiso   1.00
C427   C     0.19301   0.03824   0.62672   0.00000  Uiso   1.00
C428   C     0.98880   0.57491   0.74114   0.00000  Uiso   1.00
C429   C     0.02988   0.54271   0.74596   0.00000  Uiso   1.00
C430   C     0.08181   0.52781   0.80538   0.00000  Uiso   1.00
C431   C     0.11315   0.49843   0.79906   0.00000  Uiso   1.00
C432   C     0.99646   0.60101   0.69613   0.00000  Uiso   1.00
C433   C     0.02027   0.63512   0.71365   0.00000  Uiso   1.00
C434   C     0.02346   0.65480   0.66538   0.00000  Uiso   1.00
C435   C     0.91492   0.56341   0.70123   0.00000  Uiso   1.00
C436   C     0.87017   0.56592   0.72303   0.00000  Uiso   1.00
C437   C     0.80470   0.55397   0.67904   0.00000  Uiso   1.00
H438   H     0.93661   0.53835   0.57484   0.00000  Uiso   1.00
H439   H     0.02580   0.48859   0.62693   0.00000  Uiso   1.00
H440   H     0.96426   0.59588   0.53522   0.00000  Uiso   1.00
H441   H     0.81418   0.52670   0.54460   0.00000  Uiso   1.00
H442   H     0.13349   0.43959   0.71268   0.00000  Uiso   1.00
H443   H     0.00371   0.66582   0.51929   0.00000  Uiso   1.00
H444   H     0.18724   0.01993   0.53906   0.00000  Uiso   1.00
H445   H     0.00431   0.58578   0.79057   0.00000  Uiso   1.00
H446   H     0.09722   0.53862   0.85450   0.00000  Uiso   1.00
H447   H     0.03568   0.64591   0.76278   0.00000  Uiso   1.00
H448   H     0.88560   0.57673   0.77216   0.00000  Uiso   1.00
H449   H     0.19146   0.48020   0.89738   0.00000  Uiso   1.00
H450   H     0.06167   0.70642   0.70398   0.00000  Uiso   1.00
H451   H     0.74521   0.56054   0.72376   0.00000  Uiso   1.00
O452   O     0.72238   0.92802   0.84320   0.00000  Uiso   1.00
O453   O     0.05211   0.72482   0.58946   0.00000  Uiso   1.00
O454   O     0.13691   0.03342   0.61541   0.00000  Uiso   1.00
N455   N     0.13437   0.45561   0.74738   0.00000  Uiso   1.00
N456   N     0.01305   0.66712   0.56657   0.00000  Uiso   1.00
N457   N     0.71717   0.53074   0.58505   0.00000  Uiso   1.00
N458   N     0.16556   0.47746   0.84676   0.00000  Uiso   1.00
N459   N     0.04424   0.68897   0.66595   0.00000  Uiso   1.00
N460   N     0.74836   0.55259   0.68443   0.00000  Uiso   1.00
C461   C     0.10748   0.84140   0.36137   0.00000  Uiso   1.00
C462   C     0.18223   0.83348   0.39155   0.00000  Uiso   1.00
C463   C     0.23118   0.85765   0.40155   0.00000  Uiso   1.00
C464   C     0.29672   0.84521   0.42985   0.00000  Uiso   1.00
C465   C     0.91038   0.33830   0.47406   0.00000  Uiso   1.00
C466   C     0.09166   0.82932   0.41377   0.00000  Uiso   1.00
C467   C     0.06444   0.84999   0.44245   0.00000  Uiso   1.00
C468   C     0.05373   0.83404   0.48945   0.00000  Uiso   1.00
C469   C     0.02672   0.82066   0.56812   0.00000  Uiso   1.00
C470   C     0.06867   0.81680   0.30104   0.00000  Uiso   1.00
C471   C     0.02210   0.82694   0.23494   0.00000  Uiso   1.00
C472   C     0.99202   0.80044   0.18703   0.00000  Uiso   1.00
C473   C     0.92931   0.76762   0.09068   0.00000  Uiso   1.00
C474   C     0.13684   0.77632   0.39383   0.00000  Uiso   1.00
C475   C     0.19818   0.79814   0.40918   0.00000  Uiso   1.00
C476   C     0.26367   0.78566   0.43747   0.00000  Uiso   1.00
C477   C     0.31270   0.80980   0.44752   0.00000  Uiso   1.00
C478   C     0.10761   0.79398   0.43140   0.00000  Uiso   1.00
C479   C     0.09693   0.77799   0.47837   0.00000  Uiso   1.00
C480   C     0.06971   0.79863   0.50712   0.00000  Uiso   1.00
C481   C     0.08462   0.78145   0.31867   0.00000  Uiso   1.00
C482   C     0.05460   0.75494   0.27086   0.00000  Uiso   1.00
C483   C     0.00800   0.76503   0.20470   0.00000  Uiso   1.00
H484   H     0.09505   0.86892   0.34764   0.00000  Uiso   1.00
H485   H     0.21881   0.88500   0.38791   0.00000  Uiso   1.00
H486   H     0.05209   0.87734   0.42879   0.00000  Uiso   1.00
H487   H     0.00977   0.85429   0.22131   0.00000  Uiso   1.00
H488   H     0.86306   0.38726   0.44035   0.00000  Uiso   1.00
H489   H     0.01150   0.87109   0.52653   0.00000  Uiso   1.00
H490   H     0.92225   0.82249   0.08903   0.00000  Uiso   1.00
H491   H     0.14926   0.74880   0.40756   0.00000  Uiso   1.00
H492   H     0.27600   0.75830   0.45111   0.00000  Uiso   1.00
H493   H     0.10928   0.75064   0.49200   0.00000  Uiso   1.00
H494   H     0.06695   0.72759   0.28452   0.00000  Uiso   1.00
H495   H     0.40948   0.78442   0.49165   0.00000  Uiso   1.00
H496   H     0.05791   0.76826   0.57784   0.00000  Uiso   1.00
H497   H     0.96866   0.71965   0.14033   0.00000  Uiso   1.00
O498   O     0.96867   0.34425   0.49359   0.00000  Uiso   1.00
O499   O     0.00742   0.82305   0.60665   0.00000  Uiso   1.00
O500   O     0.89033   0.75928   0.03266   0.00000  Uiso   1.00
N501   N     0.35659   0.86175   0.44643   0.00000  Uiso   1.00
N502   N     0.02791   0.84664   0.52702   0.00000  Uiso   1.00
N503   N     0.94445   0.80120   0.11799   0.00000  Uiso   1.00
N504   N     0.38157   0.80641   0.47404   0.00000  Uiso   1.00
N505   N     0.05289   0.79131   0.55462   0.00000  Uiso   1.00
N506   N     0.96943   0.74586   0.14560   0.00000  Uiso   1.00
C507   C     0.88040   0.88927   0.74790   0.00000  Uiso   1.00
C508   C     0.90945   0.90663   0.81684   0.00000  Uiso   1.00
C509   C     0.88033   0.90627   0.85543   0.00000  Uiso   1.00
C510   C     0.91483   0.92368   0.91711   0.00000  Uiso   1.00
C511   C     0.95061   0.94801   0.02079   0.00000  Uiso   1.00
C512   C     0.93521   0.86456   0.75509   0.00000  Uiso   1.00
C513   C     0.92775   0.82883   0.74174   0.00000  Uiso   1.00
C514   C     0.98394   0.81083   0.75143   0.00000  Uiso   1.00
C515   C     0.05970   0.76986   0.75919   0.00000  Uiso   1.00
C516   C     0.87402   0.91826   0.69982   0.00000  Uiso   1.00
C517   C     0.81510   0.92766   0.63999   0.00000  Uiso   1.00
C518   C     0.81977   0.95487   0.60313   0.00000  Uiso   1.00
C519   C     0.80052   0.99726   0.52507   0.00000  Uiso   1.00
C520   C     0.99346   0.92085   0.78882   0.00000  Uiso   1.00
C521   C     0.97086   0.92378   0.83906   0.00000  Uiso   1.00
C522   C     0.00542   0.94120   0.90070   0.00000  Uiso   1.00
C523   C     0.97635   0.94086   0.93937   0.00000  Uiso   1.00
C524   C     0.99662   0.88171   0.77731   0.00000  Uiso   1.00
C525   C     0.05284   0.86377   0.78701   0.00000  Uiso   1.00
C526   C     0.04546   0.82801   0.77369   0.00000  Uiso   1.00
C527   C     0.93543   0.93541   0.72204   0.00000  Uiso   1.00
C528   C     0.94019   0.96260   0.68526   0.00000  Uiso   1.00
C529   C     0.88129   0.97205   0.62539   0.00000  Uiso   1.00
H530   H     0.83259   0.87592   0.73060   0.00000  Uiso   1.00
H531   H     0.83280   0.89299   0.83822   0.00000  Uiso   1.00
H532   H     0.88022   0.81556   0.72454   0.00000  Uiso   1.00
H533   H     0.76759   0.91438   0.62281   0.00000  Uiso   1.00
H534   H     0.86014   0.91946   0.96734   0.00000  Uiso   1.00
H535   H     0.96010   0.75621   0.72763   0.00000  Uiso   1.00
H536   H     0.22260   0.46460   0.51310   0.00000  Uiso   1.00
H537   H     0.04127   0.93420   0.80612   0.00000  Uiso   1.00
H538   H     0.05294   0.95448   0.91788   0.00000  Uiso   1.00
H539   H     0.10035   0.87705   0.80421   0.00000  Uiso   1.00
H540   H     0.98772   0.97587   0.70247   0.00000  Uiso   1.00
H541   H     0.03881   0.96937   0.03201   0.00000  Uiso   1.00
H542   H     0.13877   0.80612   0.79229   0.00000  Uiso   1.00
H543   H     0.90127   0.01450   0.57776   0.00000  Uiso   1.00
O544   O     0.95339   0.95669   0.07184   0.00000  Uiso   1.00
O545   O     0.08453   0.74251   0.75734   0.00000  Uiso   1.00
O546   O     0.27294   0.51591   0.47588   0.00000  Uiso   1.00
N547   N     0.90058   0.92843   0.96722   0.00000  Uiso   1.00
N548   N     0.99404   0.77580   0.74311   0.00000  Uiso   1.00
N549   N     0.77200   0.97062   0.54253   0.00000  Uiso   1.00
N550   N     0.99672   0.95529   0.00201   0.00000  Uiso   1.00
N551   N     0.09018   0.80266   0.77791   0.00000  Uiso   1.00
N552   N     0.86814   0.99747   0.57733   0.00000  Uiso   1.00
C553   C     0.42715   0.56241   0.82995   0.00000  Uiso   1.00
C554   C     0.36777   0.53970   0.77926   0.00000  Uiso   1.00
C555   C     0.34539   0.50946   0.79446   0.00000  Uiso   1.00
C556   C     0.29023   0.49244   0.74095   0.00000  Uiso   1.00
C557   C     0.70282   0.95524   0.67233   0.00000  Uiso   1.00
C558   C     0.39884   0.59931   0.82267   0.00000  Uiso   1.00
C559   C     0.40258   0.61918   0.87438   0.00000  Uiso   1.00
C560   C     0.37358   0.65234   0.85741   0.00000  Uiso   1.00
C561   C     0.33445   0.70769   0.85621   0.00000  Uiso   1.00
C562   C     0.47498   0.56436   0.80426   0.00000  Uiso   1.00
C563   C     0.54275   0.55486   0.84050   0.00000  Uiso   1.00
C564   C     0.57786   0.55859   0.80803   0.00000  Uiso   1.00
C565   C     0.65695   0.55967   0.77825   0.00000  Uiso   1.00
C566   C     0.36900   0.58595   0.70788   0.00000  Uiso   1.00
C567   C     0.33619   0.55249   0.71296   0.00000  Uiso   1.00
C568   C     0.28105   0.53550   0.65941   0.00000  Uiso   1.00
C569   C     0.75859   0.00525   0.67453   0.00000  Uiso   1.00
C570   C     0.36725   0.61209   0.75637   0.00000  Uiso   1.00
C571   C     0.33825   0.64522   0.73933   0.00000  Uiso   1.00
C572   C     0.34194   0.66515   0.79099   0.00000  Uiso   1.00
C573   C     0.44340   0.57714   0.73796   0.00000  Uiso   1.00
C574   C     0.47841   0.58089   0.70544   0.00000  Uiso   1.00
C575   C     0.54622   0.57140   0.74161   0.00000  Uiso   1.00
H576   H     0.45174   0.55246   0.88157   0.00000  Uiso   1.00
H577   H     0.36984   0.49958   0.84578   0.00000  Uiso   1.00
H578   H     0.42703   0.60929   0.92568   0.00000  Uiso   1.00
H579   H     0.56718   0.54496   0.89180   0.00000  Uiso   1.00
H580   H     0.76510   0.94660   0.77686   0.00000  Uiso   1.00
H581   H     0.38571   0.67792   0.94535   0.00000  Uiso   1.00
H582   H     0.68124   0.54229   0.87391   0.00000  Uiso   1.00
H583   H     0.34441   0.59590   0.65626   0.00000  Uiso   1.00
H584   H     0.25662   0.54540   0.60811   0.00000  Uiso   1.00
H585   H     0.31381   0.65511   0.68802   0.00000  Uiso   1.00
H586   H     0.45396   0.59079   0.65413   0.00000  Uiso   1.00
H587   H     0.67320   0.98379   0.58396   0.00000  Uiso   1.00
H588   H     0.29382   0.71511   0.75245   0.00000  Uiso   1.00
H589   H     0.58934   0.57948   0.68101   0.00000  Uiso   1.00
O590   O     0.66332   0.93120   0.65280   0.00000  Uiso   1.00
O591   O     0.32158   0.73469   0.87386   0.00000  Uiso   1.00
O592   O     0.70929   0.55674   0.78013   0.00000  Uiso   1.00
N593   N     0.75553   0.96228   0.73807   0.00000  Uiso   1.00
N594   N     0.36828   0.67855   0.89560   0.00000  Uiso   1.00
N595   N     0.64458   0.55175   0.82881   0.00000  Uiso   1.00
N596   N     0.70608   0.98229   0.63427   0.00000  Uiso   1.00
N597   N     0.31884   0.69856   0.79180   0.00000  Uiso   1.00
N598   N     0.59513   0.57176   0.72501   0.00000  Uiso   1.00
C599   C     0.27362   0.84408   0.12691   0.00000  Uiso   1.00
C600   C     0.19867   0.83658   0.09640   0.00000  Uiso   1.00
C601   C     0.15042   0.86085   0.08781   0.00000  Uiso   1.00
C602   C     0.08454   0.84880   0.05890   0.00000  Uiso   1.00
C603   C     0.47073   0.34249   0.01447   0.00000  Uiso   1.00
C604   C     0.28902   0.83283   0.07379   0.00000  Uiso   1.00
C605   C     0.31675   0.85395   0.04621   0.00000  Uiso   1.00
C606   C     0.32695   0.83873   0.99828   0.00000  Uiso   1.00
C607   C     0.35346   0.82659   0.91879   0.00000  Uiso   1.00
C608   C     0.31180   0.81860   0.18583   0.00000  Uiso   1.00
C609   C     0.35870   0.82775   0.25245   0.00000  Uiso   1.00
C610   C     0.38809   0.80056   0.29886   0.00000  Uiso   1.00
C611   C     0.44997   0.76632   0.39333   0.00000  Uiso   1.00
C612   C     0.24244   0.77951   0.09086   0.00000  Uiso   1.00
C613   C     0.18173   0.80151   0.07681   0.00000  Uiso   1.00
C614   C     0.11591   0.78941   0.04792   0.00000  Uiso   1.00
C615   C     0.06757   0.81367   0.03929   0.00000  Uiso   1.00
C616   C     0.27209   0.79775   0.05421   0.00000  Uiso   1.00
C617   C     0.28225   0.78251   0.00632   0.00000  Uiso   1.00
C618   C     0.30998   0.80360   0.97867   0.00000  Uiso   1.00
C619   C     0.29486   0.78352   0.16626   0.00000  Uiso   1.00
C620   C     0.32419   0.75631   0.21257   0.00000  Uiso   1.00
C621   C     0.37112   0.76542   0.27924   0.00000  Uiso   1.00
H622   H     0.28681   0.87139   0.14215   0.00000  Uiso   1.00
H623   H     0.16355   0.88800   0.10296   0.00000  Uiso   1.00
H624   H     0.32986   0.88109   0.06137   0.00000  Uiso   1.00
H625   H     0.37180   0.85490   0.26759   0.00000  Uiso   1.00
H626   H     0.51941   0.39094   0.05085   0.00000  Uiso   1.00
H627   H     0.37011   0.87637   0.96318   0.00000  Uiso   1.00
H628   H     0.45855   0.82115   0.39802   0.00000  Uiso   1.00
H629   H     0.22925   0.75221   0.07562   0.00000  Uiso   1.00
H630   H     0.10282   0.76227   0.03277   0.00000  Uiso   1.00
H631   H     0.26913   0.75536   0.99118   0.00000  Uiso   1.00
H632   H     0.31107   0.72917   0.19740   0.00000  Uiso   1.00
H633   H     0.97012   0.78890   0.99388   0.00000  Uiso   1.00
H634   H     0.32083   0.77433   0.90621   0.00000  Uiso   1.00
H635   H     0.40926   0.71910   0.34105   0.00000  Uiso   1.00
O636   O     0.91263   0.84869   0.99536   0.00000  Uiso   1.00
O637   O     0.37275   0.82958   0.88035   0.00000  Uiso   1.00
O638   O     0.48877   0.75712   0.45085   0.00000  Uiso   1.00
N639   N     0.52516   0.36554   0.04333   0.00000  Uiso   1.00
N640   N     0.35304   0.85192   0.96136   0.00000  Uiso   1.00
N641   N     0.43573   0.80029   0.36790   0.00000  Uiso   1.00
N642   N     0.49864   0.31063   0.01268   0.00000  Uiso   1.00
N643   N     0.32652   0.79701   0.93070   0.00000  Uiso   1.00
N644   N     0.40921   0.74538   0.33724   0.00000  Uiso   1.00
C645   C     0.49207   0.88487   0.72735   0.00000  Uiso   1.00
C646   C     0.46925   0.90296   0.66023   0.00000  Uiso   1.00
C647   C     0.50132   0.90074   0.62454   0.00000  Uiso   1.00
C648   C     0.47249   0.91924   0.56414   0.00000  Uiso   1.00
C649   C     0.44599   0.94428   0.46353   0.00000  Uiso   1.00
C650   C     0.43203   0.86297   0.71546   0.00000  Uiso   1.00
C651   C     0.43281   0.82712   0.72622   0.00000  Uiso   1.00
C652   C     0.37266   0.81195   0.71232   0.00000  Uiso   1.00
C653   C     0.28838   0.77491   0.69750   0.00000  Uiso   1.00
C654   C     0.50076   0.91388   0.77634   0.00000  Uiso   1.00
C655   C     0.55931   0.92084   0.83829   0.00000  Uiso   1.00
C656   C     0.55702   0.94853   0.87565   0.00000  Uiso   1.00
C657   C     0.57945   0.99054   0.95535   0.00000  Uiso   1.00
C658   C     0.38385   0.92166   0.68355   0.00000  Uiso   1.00
C659   C     0.41047   0.92294   0.63644   0.00000  Uiso   1.00
C660   C     0.38159   0.94145   0.57608   0.00000  Uiso   1.00
C661   C     0.41361   0.93926   0.54031   0.00000  Uiso   1.00
C662   C     0.37325   0.88295   0.69168   0.00000  Uiso   1.00
C663   C     0.31309   0.86783   0.67776   0.00000  Uiso   1.00
C664   C     0.31377   0.83197   0.68849   0.00000  Uiso   1.00
C665   C     0.44198   0.93386   0.75255   0.00000  Uiso   1.00
C666   C     0.43959   0.96154   0.78983   0.00000  Uiso   1.00
C667   C     0.49813   0.96855   0.85182   0.00000  Uiso   1.00
H668   H     0.53782   0.86931   0.74587   0.00000  Uiso   1.00
H669   H     0.54680   0.88527   0.64297   0.00000  Uiso   1.00
H670   H     0.47830   0.81167   0.74464   0.00000  Uiso   1.00
H671   H     0.60479   0.90537   0.85668   0.00000  Uiso   1.00
H672   H     0.53082   0.91178   0.51837   0.00000  Uiso   1.00
H673   H     0.38640   0.75658   0.73277   0.00000  Uiso   1.00
H674   H     0.65311   0.95417   0.96904   0.00000  Uiso   1.00
H675   H     0.33809   0.93721   0.66503   0.00000  Uiso   1.00
H676   H     0.33611   0.95691   0.55769   0.00000  Uiso   1.00
H677   H     0.26761   0.88330   0.65936   0.00000  Uiso   1.00
H678   H     0.39410   0.97700   0.77140   0.00000  Uiso   1.00
H679   H     0.35981   0.96992   0.44915   0.00000  Uiso   1.00
H680   H     0.21539   0.81472   0.66356   0.00000  Uiso   1.00
H681   H     0.48211   0.01231   0.89982   0.00000  Uiso   1.00
O682   O     0.44760   0.95257   0.41460   0.00000  Uiso   1.00
O683   O     0.25813   0.74895   0.69589   0.00000  Uiso   1.00
O684   O     0.60806   0.00819   0.00587   0.00000  Uiso   1.00
N685   N     0.49085   0.92277   0.51682   0.00000  Uiso   1.00
N686   N     0.35582   0.77766   0.71726   0.00000  Uiso   1.00
N687   N     0.60518   0.96238   0.93816   0.00000  Uiso   1.00
N688   N     0.39883   0.95405   0.47957   0.00000  Uiso   1.00
N689   N     0.26381   0.80894   0.68002   0.00000  Uiso   1.00
N690   N     0.51316   0.99367   0.90092   0.00000  Uiso   1.00
C691   C     0.45212   0.95078   0.12427   0.00000  Uiso   1.00
C692   C     0.50996   0.97124   0.18248   0.00000  Uiso   1.00
C693   C     0.54123   0.00061   0.17607   0.00000  Uiso   1.00
C694   C     0.59319   0.01555   0.23546   0.00000  Uiso   1.00
C695   C     0.68000   0.04944   0.31620   0.00000  Uiso   1.00
C696   C     0.47653   0.91295   0.13265   0.00000  Uiso   1.00
C697   C     0.47969   0.89331   0.08434   0.00000  Uiso   1.00
C698   C     0.50350   0.85918   0.10179   0.00000  Uiso   1.00
C699   C     0.53837   0.80255   0.10515   0.00000  Uiso   1.00
C700   C     0.39500   0.95055   0.13775   0.00000  Uiso   1.00
C701   C     0.32958   0.96250   0.09372   0.00000  Uiso   1.00
C702   C     0.28474   0.96001   0.11545   0.00000  Uiso   1.00
C703   C     0.69301   0.46176   0.12672   0.00000  Uiso   1.00
C704   C     0.48880   0.92509   0.24114   0.00000  Uiso   1.00
C705   C     0.52988   0.95729   0.24596   0.00000  Uiso   1.00
C706   C     0.58181   0.97219   0.30538   0.00000  Uiso   1.00
C707   C     0.61315   0.00157   0.29906   0.00000  Uiso   1.00
C708   C     0.49646   0.89899   0.19613   0.00000  Uiso   1.00
C709   C     0.52027   0.86488   0.21365   0.00000  Uiso   1.00
C710   C     0.52346   0.84520   0.16538   0.00000  Uiso   1.00
C711   C     0.41492   0.93659   0.20123   0.00000  Uiso   1.00
C712   C     0.37017   0.93408   0.22303   0.00000  Uiso   1.00
C713   C     0.30470   0.94603   0.17904   0.00000  Uiso   1.00
H714   H     0.43661   0.96165   0.07484   0.00000  Uiso   1.00
H715   H     0.52580   0.01141   0.12693   0.00000  Uiso   1.00
H716   H     0.46426   0.90412   0.03522   0.00000  Uiso   1.00
H717   H     0.31418   0.97330   0.04460   0.00000  Uiso   1.00
H718   H     0.63349   0.06041   0.21268   0.00000  Uiso   1.00
H719   H     0.50371   0.83418   0.01929   0.00000  Uiso   1.00
H720   H     0.68724   0.48007   0.03906   0.00000  Uiso   1.00
H721   H     0.50431   0.91422   0.29057   0.00000  Uiso   1.00
H722   H     0.59722   0.96138   0.35450   0.00000  Uiso   1.00
H723   H     0.53568   0.85409   0.26278   0.00000  Uiso   1.00
H724   H     0.38560   0.92327   0.27216   0.00000  Uiso   1.00
H725   H     0.69146   0.01980   0.39738   0.00000  Uiso   1.00
H726   H     0.56167   0.79358   0.20398   0.00000  Uiso   1.00
H727   H     0.24521   0.93946   0.22376   0.00000  Uiso   1.00
O728   O     0.22238   0.57198   0.34320   0.00000  Uiso   1.00
O729   O     0.55211   0.77518   0.08946   0.00000  Uiso   1.00
O730   O     0.63691   0.46658   0.11541   0.00000  Uiso   1.00
N731   N     0.63437   0.04439   0.24738   0.00000  Uiso   1.00
N732   N     0.51305   0.83288   0.06657   0.00000  Uiso   1.00
N733   N     0.21717   0.96926   0.08505   0.00000  Uiso   1.00
N734   N     0.66556   0.02254   0.34676   0.00000  Uiso   1.00
N735   N     0.54424   0.81103   0.16595   0.00000  Uiso   1.00
N736   N     0.24836   0.94741   0.18443   0.00000  Uiso   1.00
C737   C     0.60748   0.65860   0.86137   0.00000  Uiso   1.00
C738   C     0.68223   0.66652   0.89155   0.00000  Uiso   1.00
C739   C     0.73118   0.64235   0.90155   0.00000  Uiso   1.00
C740   C     0.79672   0.65479   0.92985   0.00000  Uiso   1.00
C741   C     0.41038   0.16170   0.97406   0.00000  Uiso   1.00
C742   C     0.59166   0.67068   0.91377   0.00000  Uiso   1.00
C743   C     0.56444   0.65001   0.94245   0.00000  Uiso   1.00
C744   C     0.55373   0.66596   0.98945   0.00000  Uiso   1.00
C745   C     0.52672   0.67934   0.06812   0.00000  Uiso   1.00
C746   C     0.56867   0.68320   0.80104   0.00000  Uiso   1.00
C747   C     0.52210   0.67306   0.73494   0.00000  Uiso   1.00
C748   C     0.49202   0.69956   0.68703   0.00000  Uiso   1.00
C749   C     0.42931   0.73238   0.59068   0.00000  Uiso   1.00
C750   C     0.63684   0.72368   0.89383   0.00000  Uiso   1.00
C751   C     0.69818   0.70186   0.90918   0.00000  Uiso   1.00
C752   C     0.76367   0.71434   0.93747   0.00000  Uiso   1.00
C753   C     0.81270   0.69020   0.94752   0.00000  Uiso   1.00
C754   C     0.60761   0.70602   0.93140   0.00000  Uiso   1.00
C755   C     0.59693   0.72201   0.97837   0.00000  Uiso   1.00
C756   C     0.56971   0.70137   0.00712   0.00000  Uiso   1.00
C757   C     0.58462   0.71855   0.81867   0.00000  Uiso   1.00
C758   C     0.55460   0.74506   0.77086   0.00000  Uiso   1.00
C759   C     0.50800   0.73497   0.70470   0.00000  Uiso   1.00
H760   H     0.59505   0.63108   0.84764   0.00000  Uiso   1.00
H761   H     0.71881   0.61500   0.88791   0.00000  Uiso   1.00
H762   H     0.55209   0.62266   0.92879   0.00000  Uiso   1.00
H763   H     0.50977   0.64571   0.72131   0.00000  Uiso   1.00
H764   H     0.36306   0.11274   0.94035   0.00000  Uiso   1.00
H765   H     0.51150   0.62891   0.02653   0.00000  Uiso   1.00
H766   H     0.42225   0.67751   0.58903   0.00000  Uiso   1.00
H767   H     0.64926   0.75120   0.90756   0.00000  Uiso   1.00
H768   H     0.77600   0.74170   0.95111   0.00000  Uiso   1.00
H769   H     0.60928   0.74936   0.99200   0.00000  Uiso   1.00
H770   H     0.56695   0.77241   0.78452   0.00000  Uiso   1.00
H771   H     0.90948   0.71558   0.99165   0.00000  Uiso   1.00
H772   H     0.55791   0.73174   0.07784   0.00000  Uiso   1.00
H773   H     0.46866   0.78035   0.64033   0.00000  Uiso   1.00
O774   O     0.46867   0.15575   0.99359   0.00000  Uiso   1.00
O775   O     0.50742   0.67695   0.10665   0.00000  Uiso   1.00
O776   O     0.39033   0.74072   0.53266   0.00000  Uiso   1.00
N777   N     0.85659   0.63825   0.94643   0.00000  Uiso   1.00
N778   N     0.52791   0.65336   0.02702   0.00000  Uiso   1.00
N779   N     0.44445   0.69880   0.61799   0.00000  Uiso   1.00
N780   N     0.88157   0.69359   0.97404   0.00000  Uiso   1.00
N781   N     0.55289   0.70869   0.05462   0.00000  Uiso   1.00
N782   N     0.46943   0.75414   0.64560   0.00000  Uiso   1.00
C783   C     0.38040   0.61073   0.24790   0.00000  Uiso   1.00
C784   C     0.40945   0.59337   0.31684   0.00000  Uiso   1.00
C785   C     0.38033   0.59373   0.35543   0.00000  Uiso   1.00
C786   C     0.41483   0.57632   0.41711   0.00000  Uiso   1.00
C787   C     0.45061   0.55199   0.52079   0.00000  Uiso   1.00
C788   C     0.43521   0.63544   0.25509   0.00000  Uiso   1.00
C789   C     0.42775   0.67117   0.24174   0.00000  Uiso   1.00
C790   C     0.48394   0.68917   0.25143   0.00000  Uiso   1.00
C791   C     0.55970   0.73014   0.25919   0.00000  Uiso   1.00
C792   C     0.37402   0.58174   0.19982   0.00000  Uiso   1.00
C793   C     0.31510   0.57234   0.13999   0.00000  Uiso   1.00
C794   C     0.31977   0.54513   0.10313   0.00000  Uiso   1.00
C795   C     0.30052   0.50274   0.02507   0.00000  Uiso   1.00
C796   C     0.49346   0.57915   0.28882   0.00000  Uiso   1.00
C797   C     0.47086   0.57622   0.33906   0.00000  Uiso   1.00
C798   C     0.50542   0.55880   0.40070   0.00000  Uiso   1.00
C799   C     0.47635   0.55914   0.43937   0.00000  Uiso   1.00
C800   C     0.49662   0.61829   0.27731   0.00000  Uiso   1.00
C801   C     0.55284   0.63623   0.28701   0.00000  Uiso   1.00
C802   C     0.54546   0.67199   0.27369   0.00000  Uiso   1.00
C803   C     0.43543   0.56459   0.22204   0.00000  Uiso   1.00
C804   C     0.44019   0.53740   0.18526   0.00000  Uiso   1.00
C805   C     0.38129   0.52795   0.12539   0.00000  Uiso   1.00
H806   H     0.33259   0.62408   0.23060   0.00000  Uiso   1.00
H807   H     0.33280   0.60701   0.33822   0.00000  Uiso   1.00
H808   H     0.38022   0.68444   0.22454   0.00000  Uiso   1.00
H809   H     0.26759   0.58562   0.12281   0.00000  Uiso   1.00
H810   H     0.36014   0.58054   0.46734   0.00000  Uiso   1.00
H811   H     0.46010   0.74379   0.22763   0.00000  Uiso   1.00
H812   H     0.72260   0.03540   0.01310   0.00000  Uiso   1.00
H813   H     0.54127   0.56580   0.30612   0.00000  Uiso   1.00
H814   H     0.55294   0.54552   0.41788   0.00000  Uiso   1.00
H815   H     0.60035   0.62295   0.30421   0.00000  Uiso   1.00
H816   H     0.48772   0.52413   0.20247   0.00000  Uiso   1.00
H817   H     0.53881   0.53063   0.53201   0.00000  Uiso   1.00
H818   H     0.63877   0.69388   0.29229   0.00000  Uiso   1.00
H819   H     0.40127   0.48550   0.07776   0.00000  Uiso   1.00
O820   O     0.45339   0.54331   0.57184   0.00000  Uiso   1.00
O821   O     0.58453   0.75749   0.25734   0.00000  Uiso   1.00
O822   O     0.77294   0.98409   0.97588   0.00000  Uiso   1.00
N823   N     0.40058   0.57157   0.46722   0.00000  Uiso   1.00
N824   N     0.49404   0.72420   0.24311   0.00000  Uiso   1.00
N825   N     0.27200   0.52938   0.04253   0.00000  Uiso   1.00
N826   N     0.49672   0.54471   0.50201   0.00000  Uiso   1.00
N827   N     0.59018   0.69734   0.27791   0.00000  Uiso   1.00
N828   N     0.36814   0.50253   0.07733   0.00000  Uiso   1.00
C829   C     0.92715   0.06241   0.82995   0.00000  Uiso   1.00
C830   C     0.86777   0.03970   0.77926   0.00000  Uiso   1.00
C831   C     0.84539   0.00946   0.79446   0.00000  Uiso   1.00
C832   C     0.79023   0.99244   0.74095   0.00000  Uiso   1.00
C833   C     0.20282   0.45524   0.67233   0.00000  Uiso   1.00
C834   C     0.89884   0.09931   0.82267   0.00000  Uiso   1.00
C835   C     0.90258   0.11918   0.87438   0.00000  Uiso   1.00
C836   C     0.87358   0.15234   0.85741   0.00000  Uiso   1.00
C837   C     0.83445   0.20769   0.85621   0.00000  Uiso   1.00
C838   C     0.97498   0.06436   0.80426   0.00000  Uiso   1.00
C839   C     0.04275   0.05486   0.84050   0.00000  Uiso   1.00
C840   C     0.07786   0.05859   0.80803   0.00000  Uiso   1.00
C841   C     0.15695   0.05967   0.77825   0.00000  Uiso   1.00
C842   C     0.86900   0.08595   0.70788   0.00000  Uiso   1.00
C843   C     0.83619   0.05249   0.71296   0.00000  Uiso   1.00
C844   C     0.78105   0.03550   0.65941   0.00000  Uiso   1.00
C845   C     0.25859   0.50525   0.67453   0.00000  Uiso   1.00
C846   C     0.86725   0.11209   0.75637   0.00000  Uiso   1.00
C847   C     0.83825   0.14522   0.73933   0.00000  Uiso   1.00
C848   C     0.84194   0.16515   0.79099   0.00000  Uiso   1.00
C849   C     0.94340   0.07714   0.73796   0.00000  Uiso   1.00
C850   C     0.97841   0.08089   0.70544   0.00000  Uiso   1.00
C851   C     0.04622   0.07140   0.74161   0.00000  Uiso   1.00
H852   H     0.95174   0.05246   0.88157   0.00000  Uiso   1.00
H853   H     0.86984   0.99958   0.84578   0.00000  Uiso   1.00
H854   H     0.92703   0.10929   0.92568   0.00000  Uiso   1.00
H855   H     0.06718   0.04496   0.89180   0.00000  Uiso   1.00
H856   H     0.26510   0.44660   0.77686   0.00000  Uiso   1.00
H857   H     0.88571   0.17792   0.94535   0.00000  Uiso   1.00
H858   H     0.18124   0.04229   0.87391   0.00000  Uiso   1.00
H859   H     0.84441   0.09590   0.65626   0.00000  Uiso   1.00
H860   H     0.75662   0.04540   0.60811   0.00000  Uiso   1.00
H861   H     0.81381   0.15511   0.68802   0.00000  Uiso   1.00
H862   H     0.95396   0.09079   0.65413   0.00000  Uiso   1.00
H863   H     0.17320   0.48379   0.58396   0.00000  Uiso   1.00
H864   H     0.79382   0.21511   0.75245   0.00000  Uiso   1.00
H865   H     0.08934   0.07948   0.68101   0.00000  Uiso   1.00
O866   O     0.16332   0.43120   0.65280   0.00000  Uiso   1.00
O867   O     0.82158   0.23469   0.87386   0.00000  Uiso   1.00
O868   O     0.20929   0.05674   0.78013   0.00000  Uiso   1.00
N869   N     0.25553   0.46228   0.73807   0.00000  Uiso   1.00
N870   N     0.86828   0.17855   0.89560   0.00000  Uiso   1.00
N871   N     0.14458   0.05175   0.82881   0.00000  Uiso   1.00
N872   N     0.20608   0.48229   0.63427   0.00000  Uiso   1.00
N873   N     0.81884   0.19856   0.79180   0.00000  Uiso   1.00
N874   N     0.09513   0.07176   0.72501   0.00000  Uiso   1.00
C875   C     0.77362   0.34408   0.12691   0.00000  Uiso   1.00
C876   C     0.69867   0.33658   0.09640   0.00000  Uiso   1.00
C877   C     0.65042   0.36085   0.08781   0.00000  Uiso   1.00
C878   C     0.58454   0.34880   0.05890   0.00000  Uiso   1.00
C879   C     0.97073   0.84249   0.01447   0.00000  Uiso   1.00
C880   C     0.78902   0.33283   0.07379   0.00000  Uiso   1.00
C881   C     0.81675   0.35395   0.04621   0.00000  Uiso   1.00
C882   C     0.82695   0.33873   0.99828   0.00000  Uiso   1.00
C883   C     0.85346   0.32659   0.91879   0.00000  Uiso   1.00
C884   C     0.81180   0.31860   0.18583   0.00000  Uiso   1.00
C885   C     0.85870   0.32775   0.25245   0.00000  Uiso   1.00
C886   C     0.88809   0.30056   0.29886   0.00000  Uiso   1.00
C887   C     0.94997   0.26632   0.39333   0.00000  Uiso   1.00
C888   C     0.74244   0.27951   0.09086   0.00000  Uiso   1.00
C889   C     0.68173   0.30151   0.07681   0.00000  Uiso   1.00
C890   C     0.61591   0.28941   0.04792   0.00000  Uiso   1.00
C891   C     0.56757   0.31367   0.03929   0.00000  Uiso   1.00
C892   C     0.77209   0.29775   0.05421   0.00000  Uiso   1.00
C893   C     0.78225   0.28251   0.00632   0.00000  Uiso   1.00
C894   C     0.80998   0.30360   0.97867   0.00000  Uiso   1.00
C895   C     0.79486   0.28352   0.16626   0.00000  Uiso   1.00
C896   C     0.82419   0.25631   0.21257   0.00000  Uiso   1.00
C897   C     0.87112   0.26542   0.27924   0.00000  Uiso   1.00
H898   H     0.78681   0.37139   0.14215   0.00000  Uiso   1.00
H899   H     0.66355   0.38800   0.10296   0.00000  Uiso   1.00
H900   H     0.82986   0.38109   0.06137   0.00000  Uiso   1.00
H901   H     0.87180   0.35490   0.26759   0.00000  Uiso   1.00
H902   H     0.01941   0.89094   0.05085   0.00000  Uiso   1.00
H903   H     0.87011   0.37637   0.96318   0.00000  Uiso   1.00
H904   H     0.95855   0.32115   0.39802   0.00000  Uiso   1.00
H905   H     0.72925   0.25221   0.07562   0.00000  Uiso   1.00
H906   H     0.60282   0.26227   0.03277   0.00000  Uiso   1.00
H907   H     0.76913   0.25536   0.99118   0.00000  Uiso   1.00
H908   H     0.81107   0.22917   0.19740   0.00000  Uiso   1.00
H909   H     0.47012   0.28890   0.99388   0.00000  Uiso   1.00
H910   H     0.82083   0.27433   0.90621   0.00000  Uiso   1.00
H911   H     0.90926   0.21910   0.34105   0.00000  Uiso   1.00
O912   O     0.41263   0.34869   0.99536   0.00000  Uiso   1.00
O913   O     0.87275   0.32958   0.88035   0.00000  Uiso   1.00
O914   O     0.98877   0.25712   0.45085   0.00000  Uiso   1.00
N915   N     0.02516   0.86554   0.04333   0.00000  Uiso   1.00
N916   N     0.85304   0.35192   0.96136   0.00000  Uiso   1.00
N917   N     0.93573   0.30029   0.36790   0.00000  Uiso   1.00
N918   N     0.99864   0.81063   0.01268   0.00000  Uiso   1.00
N919   N     0.82652   0.29701   0.93070   0.00000  Uiso   1.00
N920   N     0.90921   0.24538   0.33724   0.00000  Uiso   1.00
C921   C     0.99207   0.38487   0.72735   0.00000  Uiso   1.00
C922   C     0.96925   0.40296   0.66023   0.00000  Uiso   1.00
C923   C     0.00132   0.40074   0.62454   0.00000  Uiso   1.00
C924   C     0.97249   0.41924   0.56414   0.00000  Uiso   1.00
C925   C     0.94599   0.44428   0.46353   0.00000  Uiso   1.00
C926   C     0.93203   0.36297   0.71546   0.00000  Uiso   1.00
C927   C     0.93281   0.32712   0.72622   0.00000  Uiso   1.00
C928   C     0.87266   0.31195   0.71232   0.00000  Uiso   1.00
C929   C     0.78838   0.27491   0.69750   0.00000  Uiso   1.00
C930   C     0.00076   0.41388   0.77634   0.00000  Uiso   1.00
C931   C     0.05931   0.42084   0.83829   0.00000  Uiso   1.00
C932   C     0.05702   0.44853   0.87565   0.00000  Uiso   1.00
C933   C     0.07945   0.49054   0.95535   0.00000  Uiso   1.00
C934   C     0.88385   0.42166   0.68355   0.00000  Uiso   1.00
C935   C     0.91047   0.42294   0.63644   0.00000  Uiso   1.00
C936   C     0.88159   0.44145   0.57608   0.00000  Uiso   1.00
C937   C     0.91361   0.43926   0.54031   0.00000  Uiso   1.00
C938   C     0.87325   0.38295   0.69168   0.00000  Uiso   1.00
C939   C     0.81309   0.36783   0.67776   0.00000  Uiso   1.00
C940   C     0.81377   0.33197   0.68849   0.00000  Uiso   1.00
C941   C     0.94198   0.43386   0.75255   0.00000  Uiso   1.00
C942   C     0.93959   0.46154   0.78983   0.00000  Uiso   1.00
C943   C     0.99813   0.46855   0.85182   0.00000  Uiso   1.00
H944   H     0.03782   0.36931   0.74587   0.00000  Uiso   1.00
H945   H     0.04680   0.38527   0.64297   0.00000  Uiso   1.00
H946   H     0.97830   0.31167   0.74464   0.00000  Uiso   1.00
H947   H     0.10479   0.40537   0.85668   0.00000  Uiso   1.00
H948   H     0.03082   0.41178   0.51837   0.00000  Uiso   1.00
H949   H     0.88640   0.25658   0.73277   0.00000  Uiso   1.00
H950   H     0.15311   0.45417   0.96904   0.00000  Uiso   1.00
H951   H     0.83809   0.43721   0.66503   0.00000  Uiso   1.00
H952   H     0.83611   0.45691   0.55769   0.00000  Uiso   1.00
H953   H     0.76761   0.38330   0.65936   0.00000  Uiso   1.00
H954   H     0.89410   0.47700   0.77140   0.00000  Uiso   1.00
H955   H     0.85981   0.46992   0.44915   0.00000  Uiso   1.00
H956   H     0.71539   0.31472   0.66356   0.00000  Uiso   1.00
H957   H     0.98211   0.51231   0.89982   0.00000  Uiso   1.00
O958   O     0.94760   0.45257   0.41460   0.00000  Uiso   1.00
O959   O     0.75813   0.24895   0.69589   0.00000  Uiso   1.00
O960   O     0.10806   0.50819   0.00587   0.00000  Uiso   1.00
N961   N     0.99085   0.42277   0.51682   0.00000  Uiso   1.00
N962   N     0.85582   0.27766   0.71726   0.00000  Uiso   1.00
N963   N     0.10518   0.46238   0.93816   0.00000  Uiso   1.00
N964   N     0.89883   0.45405   0.47957   0.00000  Uiso   1.00
N965   N     0.76381   0.30894   0.68002   0.00000  Uiso   1.00
N966   N     0.01316   0.49367   0.90092   0.00000  Uiso   1.00
C967   C     0.95212   0.45078   0.12427   0.00000  Uiso   1.00
C968   C     0.00996   0.47124   0.18248   0.00000  Uiso   1.00
C969   C     0.04123   0.50061   0.17607   0.00000  Uiso   1.00
C970   C     0.09319   0.51555   0.23546   0.00000  Uiso   1.00
C971   C     0.18000   0.54944   0.31620   0.00000  Uiso   1.00
C972   C     0.97653   0.41295   0.13265   0.00000  Uiso   1.00
C973   C     0.97969   0.39331   0.08434   0.00000  Uiso   1.00
C974   C     0.00350   0.35918   0.10179   0.00000  Uiso   1.00
C975   C     0.03837   0.30255   0.10515   0.00000  Uiso   1.00
C976   C     0.89500   0.45055   0.13775   0.00000  Uiso   1.00
C977   C     0.82958   0.46250   0.09372   0.00000  Uiso   1.00
C978   C     0.78474   0.46001   0.11545   0.00000  Uiso   1.00
C979   C     0.19301   0.96176   0.12672   0.00000  Uiso   1.00
C980   C     0.98880   0.42509   0.24114   0.00000  Uiso   1.00
C981   C     0.02988   0.45729   0.24596   0.00000  Uiso   1.00
C982   C     0.08181   0.47219   0.30538   0.00000  Uiso   1.00
C983   C     0.11315   0.50157   0.29906   0.00000  Uiso   1.00
C984   C     0.99646   0.39899   0.19613   0.00000  Uiso   1.00
C985   C     0.02027   0.36488   0.21365   0.00000  Uiso   1.00
C986   C     0.02346   0.34520   0.16538   0.00000  Uiso   1.00
C987   C     0.91492   0.43659   0.20123   0.00000  Uiso   1.00
C988   C     0.87017   0.43408   0.22303   0.00000  Uiso   1.00
C989   C     0.80470   0.44603   0.17904   0.00000  Uiso   1.00
H990   H     0.93661   0.46165   0.07484   0.00000  Uiso   1.00
H991   H     0.02580   0.51141   0.12693   0.00000  Uiso   1.00
H992   H     0.96426   0.40412   0.03522   0.00000  Uiso   1.00
H993   H     0.81418   0.47330   0.04460   0.00000  Uiso   1.00
H994   H     0.13349   0.56041   0.21268   0.00000  Uiso   1.00
H995   H     0.00371   0.33418   0.01929   0.00000  Uiso   1.00
H996   H     0.18724   0.98007   0.03906   0.00000  Uiso   1.00
H997   H     0.00431   0.41422   0.29057   0.00000  Uiso   1.00
H998   H     0.09722   0.46138   0.35450   0.00000  Uiso   1.00
H999   H     0.03568   0.35409   0.26278   0.00000  Uiso   1.00
H1000  H     0.88560   0.42327   0.27216   0.00000  Uiso   1.00
H1001  H     0.19146   0.51980   0.39738   0.00000  Uiso   1.00
H1002  H     0.06167   0.29358   0.20398   0.00000  Uiso   1.00
H1003  H     0.74521   0.43946   0.22376   0.00000  Uiso   1.00
O1004  O     0.72238   0.07198   0.34320   0.00000  Uiso   1.00
O1005  O     0.05211   0.27518   0.08946   0.00000  Uiso   1.00
O1006  O     0.13691   0.96658   0.11541   0.00000  Uiso   1.00
N1007  N     0.13437   0.54439   0.24738   0.00000  Uiso   1.00
N1008  N     0.01305   0.33288   0.06657   0.00000  Uiso   1.00
N1009  N     0.71717   0.46926   0.08505   0.00000  Uiso   1.00
N1010  N     0.16556   0.52254   0.34676   0.00000  Uiso   1.00
N1011  N     0.04424   0.31103   0.16595   0.00000  Uiso   1.00
N1012  N     0.74836   0.44741   0.18443   0.00000  Uiso   1.00
C1013  C     0.10748   0.15860   0.86137   0.00000  Uiso   1.00
C1014  C     0.18223   0.16652   0.89155   0.00000  Uiso   1.00
C1015  C     0.23118   0.14235   0.90155   0.00000  Uiso   1.00
C1016  C     0.29672   0.15479   0.92985   0.00000  Uiso   1.00
C1017  C     0.91038   0.66170   0.97406   0.00000  Uiso   1.00
C1018  C     0.09166   0.17068   0.91377   0.00000  Uiso   1.00
C1019  C     0.06444   0.15001   0.94245   0.00000  Uiso   1.00
C1020  C     0.05373   0.16596   0.98945   0.00000  Uiso   1.00
C1021  C     0.02672   0.17934   0.06812   0.00000  Uiso   1.00
C1022  C     0.06867   0.18320   0.80104   0.00000  Uiso   1.00
C1023  C     0.02210   0.17306   0.73494   0.00000  Uiso   1.00
C1024  C     0.99202   0.19956   0.68703   0.00000  Uiso   1.00
C1025  C     0.92931   0.23238   0.59068   0.00000  Uiso   1.00
C1026  C     0.13684   0.22368   0.89383   0.00000  Uiso   1.00
C1027  C     0.19818   0.20186   0.90918   0.00000  Uiso   1.00
C1028  C     0.26367   0.21434   0.93747   0.00000  Uiso   1.00
C1029  C     0.31270   0.19020   0.94752   0.00000  Uiso   1.00
C1030  C     0.10761   0.20602   0.93140   0.00000  Uiso   1.00
C1031  C     0.09693   0.22201   0.97837   0.00000  Uiso   1.00
C1032  C     0.06971   0.20137   0.00712   0.00000  Uiso   1.00
C1033  C     0.08462   0.21855   0.81867   0.00000  Uiso   1.00
C1034  C     0.05460   0.24506   0.77086   0.00000  Uiso   1.00
C1035  C     0.00800   0.23497   0.70470   0.00000  Uiso   1.00
H1036  H     0.09505   0.13108   0.84764   0.00000  Uiso   1.00
H1037  H     0.21881   0.11500   0.88791   0.00000  Uiso   1.00
H1038  H     0.05209   0.12266   0.92879   0.00000  Uiso   1.00
H1039  H     0.00977   0.14571   0.72131   0.00000  Uiso   1.00
H1040  H     0.86306   0.61274   0.94035   0.00000  Uiso   1.00
H1041  H     0.01150   0.12891   0.02653   0.00000  Uiso   1.00
H1042  H     0.92225   0.17751   0.58903   0.00000  Uiso   1.00
H1043  H     0.14926   0.25120   0.90756   0.00000  Uiso   1.00
H1044  H     0.27600   0.24170   0.95111   0.00000  Uiso   1.00
H1045  H     0.10928   0.24936   0.99200   0.00000  Uiso   1.00
H1046  H     0.06695   0.27241   0.78452   0.00000  Uiso   1.00
H1047  H     0.40948   0.21558   0.99165   0.00000  Uiso   1.00
H1048  H     0.05791   0.23174   0.07784   0.00000  Uiso   1.00
H1049  H     0.96866   0.28035   0.64033   0.00000  Uiso   1.00
O1050  O     0.96867   0.65575   0.99359   0.00000  Uiso   1.00
O1051  O     0.00742   0.17695   0.10665   0.00000  Uiso   1.00
O1052  O     0.89033   0.24072   0.53266   0.00000  Uiso   1.00
N1053  N     0.35659   0.13825   0.94643   0.00000  Uiso   1.00
N1054  N     0.02791   0.15336   0.02702   0.00000  Uiso   1.00
N1055  N     0.94445   0.19880   0.61799   0.00000  Uiso   1.00
N1056  N     0.38157   0.19359   0.97404   0.00000  Uiso   1.00
N1057  N     0.05289   0.20869   0.05462   0.00000  Uiso   1.00
N1058  N     0.96943   0.25414   0.64560   0.00000  Uiso   1.00
C1059  C     0.88040   0.11073   0.24790   0.00000  Uiso   1.00
C1060  C     0.90945   0.09337   0.31684   0.00000  Uiso   1.00
C1061  C     0.88033   0.09373   0.35543   0.00000  Uiso   1.00
C1062  C     0.91483   0.07632   0.41711   0.00000  Uiso   1.00
C1063  C     0.95061   0.05199   0.52079   0.00000  Uiso   1.00
C1064  C     0.93521   0.13544   0.25509   0.00000  Uiso   1.00
C1065  C     0.92775   0.17117   0.24174   0.00000  Uiso   1.00
C1066  C     0.98394   0.18917   0.25143   0.00000  Uiso   1.00
C1067  C     0.05970   0.23014   0.25919   0.00000  Uiso   1.00
C1068  C     0.87402   0.08174   0.19982   0.00000  Uiso   1.00
C1069  C     0.81510   0.07234   0.13999   0.00000  Uiso   1.00
C1070  C     0.81977   0.04513   0.10313   0.00000  Uiso   1.00
C1071  C     0.80052   0.00274   0.02507   0.00000  Uiso   1.00
C1072  C     0.99346   0.07915   0.28882   0.00000  Uiso   1.00
C1073  C     0.97086   0.07622   0.33906   0.00000  Uiso   1.00
C1074  C     0.00542   0.05880   0.40070   0.00000  Uiso   1.00
C1075  C     0.97635   0.05914   0.43937   0.00000  Uiso   1.00
C1076  C     0.99662   0.11829   0.27731   0.00000  Uiso   1.00
C1077  C     0.05284   0.13623   0.28701   0.00000  Uiso   1.00
C1078  C     0.04546   0.17199   0.27369   0.00000  Uiso   1.00
C1079  C     0.93543   0.06459   0.22204   0.00000  Uiso   1.00
C1080  C     0.94019   0.03740   0.18526   0.00000  Uiso   1.00
C1081  C     0.88129   0.02795   0.12539   0.00000  Uiso   1.00
H1082  H     0.83259   0.12408   0.23060   0.00000  Uiso   1.00
H1083  H     0.83280   0.10701   0.33822   0.00000  Uiso   1.00
H1084  H     0.88022   0.18444   0.22454   0.00000  Uiso   1.00
H1085  H     0.76759   0.08562   0.12281   0.00000  Uiso   1.00
H1086  H     0.86014   0.08054   0.46734   0.00000  Uiso   1.00
H1087  H     0.96010   0.24379   0.22763   0.00000  Uiso   1.00
H1088  H     0.22260   0.53540   0.01310   0.00000  Uiso   1.00
H1089  H     0.04127   0.06580   0.30612   0.00000  Uiso   1.00
H1090  H     0.05294   0.04552   0.41788   0.00000  Uiso   1.00
H1091  H     0.10035   0.12295   0.30421   0.00000  Uiso   1.00
H1092  H     0.98772   0.02413   0.20247   0.00000  Uiso   1.00
H1093  H     0.03881   0.03063   0.53201   0.00000  Uiso   1.00
H1094  H     0.13877   0.19388   0.29229   0.00000  Uiso   1.00
H1095  H     0.90127   0.98550   0.07776   0.00000  Uiso   1.00
O1096  O     0.95339   0.04331   0.57184   0.00000  Uiso   1.00
O1097  O     0.08453   0.25749   0.25734   0.00000  Uiso   1.00
O1098  O     0.27294   0.48409   0.97588   0.00000  Uiso   1.00
N1099  N     0.90058   0.07157   0.46722   0.00000  Uiso   1.00
N1100  N     0.99404   0.22420   0.24311   0.00000  Uiso   1.00
N1101  N     0.77200   0.02938   0.04253   0.00000  Uiso   1.00
N1102  N     0.99672   0.04471   0.50201   0.00000  Uiso   1.00
N1103  N     0.09018   0.19734   0.27791   0.00000  Uiso   1.00
N1104  N     0.86814   0.00253   0.07733   0.00000  Uiso   1.00
