data_job_05088
_audit_creation_date              2018-12-19
_audit_creation_method            'Materials Studio'
_symmetry_space_group_name_H-M    'P1'
_symmetry_Int_Tables_number       1
_symmetry_cell_setting            triclinic
loop_
_symmetry_equiv_pos_as_xyz
  x,y,z
_cell_length_a                    12.4900
_cell_length_b                    12.4900
_cell_length_c                    74.9251
_cell_angle_alpha                 90.0000
_cell_angle_beta                  90.0000
_cell_angle_gamma                 90.0000
loop_
_atom_site_label
_atom_site_type_symbol
_atom_site_fract_x
_atom_site_fract_y
_atom_site_fract_z
_atom_site_U_iso_or_equiv
_atom_site_adp_type
_atom_site_occupancy
C1     C     0.87301   0.24252   0.30004   0.00000  Uiso   1.00
C2     C     0.94920   0.21028   0.31501   0.00000  Uiso   1.00
C3     C     0.06012   0.20893   0.31395   0.00000  Uiso   1.00
C4     C     0.11548   0.17694   0.32911   0.00000  Uiso   1.00
C5     C     0.24196   0.13132   0.34996   0.00000  Uiso   1.00
C6     C     0.79814   0.14749   0.29730   0.00000  Uiso   1.00
C7     C     0.78205   0.09336   0.28135   0.00000  Uiso   1.00
C8     C     0.71023   0.00852   0.28160   0.00000  Uiso   1.00
C9     C     0.60213   0.86547   0.27496   0.00000  Uiso   1.00
C10    C     0.80389   0.33249   0.30756   0.00000  Uiso   1.00
C11    C     0.79260   0.43391   0.30023   0.00000  Uiso   1.00
C12    C     0.72560   0.50483   0.30911   0.00000  Uiso   1.00
C13    C     0.62643   0.64903   0.31840   0.00000  Uiso   1.00
C14    C     0.77408   0.18811   0.32885   0.00000  Uiso   1.00
C15    C     0.89546   0.18072   0.33066   0.00000  Uiso   1.00
C16    C     0.95067   0.14873   0.34582   0.00000  Uiso   1.00
C17    C     0.06165   0.14733   0.34478   0.00000  Uiso   1.00
C18    C     0.74441   0.11794   0.31295   0.00000  Uiso   1.00
C19    C     0.67259   0.03316   0.31322   0.00000  Uiso   1.00
C20    C     0.65640   0.97891   0.29727   0.00000  Uiso   1.00
C21    C     0.75016   0.30294   0.32321   0.00000  Uiso   1.00
C22    C     0.68315   0.37371   0.33210   0.00000  Uiso   1.00
C23    C     0.67177   0.47522   0.32479   0.00000  Uiso   1.00
H24    H     0.91484   0.26552   0.28786   0.00000  Uiso   1.00
H25    H     0.10168   0.23179   0.30184   0.00000  Uiso   1.00
H26    H     0.82363   0.11625   0.26924   0.00000  Uiso   1.00
H27    H     0.83420   0.45675   0.28812   0.00000  Uiso   1.00
H28    H     0.28512   0.18133   0.32423   0.00000  Uiso   1.00
H29    H     0.69883   0.93773   0.25550   0.00000  Uiso   1.00
H30    H     0.72109   0.65574   0.29531   0.00000  Uiso   1.00
H31    H     0.73224   0.16510   0.34103   0.00000  Uiso   1.00
H32    H     0.90906   0.12586   0.35793   0.00000  Uiso   1.00
H33    H     0.63102   0.01032   0.32533   0.00000  Uiso   1.00
H34    H     0.64158   0.35082   0.34421   0.00000  Uiso   1.00
H35    H     0.12879   0.09535   0.36976   0.00000  Uiso   1.00
H36    H     0.54249   0.85175   0.30102   0.00000  Uiso   1.00
H37    H     0.56476   0.56975   0.34083   0.00000  Uiso   1.00
O38    O     0.32656   0.11430   0.35715   0.00000  Uiso   1.00
O39    O     0.55735   0.79473   0.26697   0.00000  Uiso   1.00
O40    O     0.58658   0.73673   0.31920   0.00000  Uiso   1.00
N41    N     0.22406   0.16650   0.33263   0.00000  Uiso   1.00
N42    N     0.67592   0.93874   0.26837   0.00000  Uiso   1.00
N43    N     0.69672   0.61000   0.30558   0.00000  Uiso   1.00
N44    N     0.13994   0.12023   0.35712   0.00000  Uiso   1.00
N45    N     0.59180   0.89247   0.29287   0.00000  Uiso   1.00
N46    N     0.61260   0.56374   0.33008   0.00000  Uiso   1.00
C47    C     0.37301   0.74252   0.80004   0.00000  Uiso   1.00
C48    C     0.44920   0.71028   0.81501   0.00000  Uiso   1.00
C49    C     0.56012   0.70893   0.81395   0.00000  Uiso   1.00
C50    C     0.61548   0.67694   0.82911   0.00000  Uiso   1.00
C51    C     0.74196   0.63132   0.84996   0.00000  Uiso   1.00
C52    C     0.29814   0.64749   0.79730   0.00000  Uiso   1.00
C53    C     0.28205   0.59336   0.78135   0.00000  Uiso   1.00
C54    C     0.21023   0.50852   0.78160   0.00000  Uiso   1.00
C55    C     0.10213   0.36547   0.77496   0.00000  Uiso   1.00
C56    C     0.30389   0.83249   0.80756   0.00000  Uiso   1.00
C57    C     0.29260   0.93391   0.80023   0.00000  Uiso   1.00
C58    C     0.22560   0.00483   0.80911   0.00000  Uiso   1.00
C59    C     0.12643   0.14903   0.81840   0.00000  Uiso   1.00
C60    C     0.27408   0.68811   0.82885   0.00000  Uiso   1.00
C61    C     0.39546   0.68072   0.83066   0.00000  Uiso   1.00
C62    C     0.45067   0.64873   0.84582   0.00000  Uiso   1.00
C63    C     0.56165   0.64733   0.84478   0.00000  Uiso   1.00
C64    C     0.24441   0.61794   0.81295   0.00000  Uiso   1.00
C65    C     0.17259   0.53316   0.81322   0.00000  Uiso   1.00
C66    C     0.15640   0.47891   0.79727   0.00000  Uiso   1.00
C67    C     0.25016   0.80294   0.82321   0.00000  Uiso   1.00
C68    C     0.18315   0.87371   0.83210   0.00000  Uiso   1.00
C69    C     0.17177   0.97522   0.82479   0.00000  Uiso   1.00
H70    H     0.41484   0.76552   0.78786   0.00000  Uiso   1.00
H71    H     0.60168   0.73179   0.80184   0.00000  Uiso   1.00
H72    H     0.32363   0.61625   0.76924   0.00000  Uiso   1.00
H73    H     0.33420   0.95675   0.78812   0.00000  Uiso   1.00
H74    H     0.78512   0.68133   0.82423   0.00000  Uiso   1.00
H75    H     0.19883   0.43773   0.75550   0.00000  Uiso   1.00
H76    H     0.22109   0.15574   0.79531   0.00000  Uiso   1.00
H77    H     0.23224   0.66510   0.84103   0.00000  Uiso   1.00
H78    H     0.40906   0.62586   0.85793   0.00000  Uiso   1.00
H79    H     0.13102   0.51032   0.82533   0.00000  Uiso   1.00
H80    H     0.14158   0.85082   0.84421   0.00000  Uiso   1.00
H81    H     0.62879   0.59535   0.86976   0.00000  Uiso   1.00
H82    H     0.04249   0.35175   0.80102   0.00000  Uiso   1.00
H83    H     0.06476   0.06975   0.84083   0.00000  Uiso   1.00
O84    O     0.82656   0.61430   0.85715   0.00000  Uiso   1.00
O85    O     0.05735   0.29473   0.76697   0.00000  Uiso   1.00
O86    O     0.08658   0.23673   0.81920   0.00000  Uiso   1.00
N87    N     0.72406   0.66650   0.83263   0.00000  Uiso   1.00
N88    N     0.17592   0.43874   0.76837   0.00000  Uiso   1.00
N89    N     0.19672   0.11000   0.80558   0.00000  Uiso   1.00
N90    N     0.63994   0.62023   0.85712   0.00000  Uiso   1.00
N91    N     0.09180   0.39247   0.79287   0.00000  Uiso   1.00
N92    N     0.11260   0.06374   0.83008   0.00000  Uiso   1.00
C93    C     0.62699   0.25748   0.80004   0.00000  Uiso   1.00
C94    C     0.55080   0.28972   0.81501   0.00000  Uiso   1.00
C95    C     0.43988   0.29107   0.81395   0.00000  Uiso   1.00
C96    C     0.38452   0.32306   0.82911   0.00000  Uiso   1.00
C97    C     0.25804   0.36868   0.84996   0.00000  Uiso   1.00
C98    C     0.70186   0.35251   0.79730   0.00000  Uiso   1.00
C99    C     0.71795   0.40664   0.78135   0.00000  Uiso   1.00
C100   C     0.78977   0.49148   0.78160   0.00000  Uiso   1.00
C101   C     0.89787   0.63453   0.77496   0.00000  Uiso   1.00
C102   C     0.69611   0.16751   0.80756   0.00000  Uiso   1.00
C103   C     0.70740   0.06609   0.80023   0.00000  Uiso   1.00
C104   C     0.77440   0.99517   0.80911   0.00000  Uiso   1.00
C105   C     0.87357   0.85097   0.81840   0.00000  Uiso   1.00
C106   C     0.72592   0.31189   0.82885   0.00000  Uiso   1.00
C107   C     0.60454   0.31928   0.83066   0.00000  Uiso   1.00
C108   C     0.54933   0.35127   0.84582   0.00000  Uiso   1.00
C109   C     0.43835   0.35267   0.84478   0.00000  Uiso   1.00
C110   C     0.75559   0.38206   0.81295   0.00000  Uiso   1.00
C111   C     0.82741   0.46684   0.81322   0.00000  Uiso   1.00
C112   C     0.84360   0.52109   0.79727   0.00000  Uiso   1.00
C113   C     0.74984   0.19706   0.82321   0.00000  Uiso   1.00
C114   C     0.81685   0.12629   0.83210   0.00000  Uiso   1.00
C115   C     0.82823   0.02478   0.82479   0.00000  Uiso   1.00
H116   H     0.58516   0.23448   0.78786   0.00000  Uiso   1.00
H117   H     0.39832   0.26821   0.80184   0.00000  Uiso   1.00
H118   H     0.67637   0.38375   0.76924   0.00000  Uiso   1.00
H119   H     0.66580   0.04325   0.78812   0.00000  Uiso   1.00
H120   H     0.21488   0.31867   0.82423   0.00000  Uiso   1.00
H121   H     0.80117   0.56227   0.75550   0.00000  Uiso   1.00
H122   H     0.77891   0.84426   0.79531   0.00000  Uiso   1.00
H123   H     0.76776   0.33490   0.84103   0.00000  Uiso   1.00
H124   H     0.59094   0.37414   0.85793   0.00000  Uiso   1.00
H125   H     0.86898   0.48968   0.82533   0.00000  Uiso   1.00
H126   H     0.85842   0.14918   0.84421   0.00000  Uiso   1.00
H127   H     0.37121   0.40465   0.86976   0.00000  Uiso   1.00
H128   H     0.95751   0.64825   0.80102   0.00000  Uiso   1.00
H129   H     0.93524   0.93025   0.84083   0.00000  Uiso   1.00
O130   O     0.17344   0.38570   0.85715   0.00000  Uiso   1.00
O131   O     0.94265   0.70527   0.76697   0.00000  Uiso   1.00
O132   O     0.91342   0.76327   0.81920   0.00000  Uiso   1.00
N133   N     0.27594   0.33350   0.83263   0.00000  Uiso   1.00
N134   N     0.82408   0.56126   0.76837   0.00000  Uiso   1.00
N135   N     0.80328   0.89000   0.80558   0.00000  Uiso   1.00
N136   N     0.36006   0.37977   0.85712   0.00000  Uiso   1.00
N137   N     0.90820   0.60753   0.79287   0.00000  Uiso   1.00
N138   N     0.88740   0.93626   0.83008   0.00000  Uiso   1.00
C139   C     0.12699   0.75748   0.30004   0.00000  Uiso   1.00
C140   C     0.05080   0.78972   0.31501   0.00000  Uiso   1.00
C141   C     0.93988   0.79107   0.31395   0.00000  Uiso   1.00
C142   C     0.88452   0.82306   0.32911   0.00000  Uiso   1.00
C143   C     0.75804   0.86868   0.34996   0.00000  Uiso   1.00
C144   C     0.20186   0.85251   0.29730   0.00000  Uiso   1.00
C145   C     0.21795   0.90664   0.28135   0.00000  Uiso   1.00
C146   C     0.28977   0.99148   0.28160   0.00000  Uiso   1.00
C147   C     0.39787   0.13453   0.27496   0.00000  Uiso   1.00
C148   C     0.19611   0.66751   0.30756   0.00000  Uiso   1.00
C149   C     0.20740   0.56609   0.30023   0.00000  Uiso   1.00
C150   C     0.27440   0.49517   0.30911   0.00000  Uiso   1.00
C151   C     0.37357   0.35097   0.31840   0.00000  Uiso   1.00
C152   C     0.22592   0.81189   0.32885   0.00000  Uiso   1.00
C153   C     0.10454   0.81928   0.33066   0.00000  Uiso   1.00
C154   C     0.04933   0.85127   0.34582   0.00000  Uiso   1.00
C155   C     0.93835   0.85267   0.34478   0.00000  Uiso   1.00
C156   C     0.25559   0.88206   0.31295   0.00000  Uiso   1.00
C157   C     0.32741   0.96684   0.31322   0.00000  Uiso   1.00
C158   C     0.34360   0.02109   0.29727   0.00000  Uiso   1.00
C159   C     0.24984   0.69706   0.32321   0.00000  Uiso   1.00
C160   C     0.31685   0.62629   0.33210   0.00000  Uiso   1.00
C161   C     0.32823   0.52478   0.32479   0.00000  Uiso   1.00
H162   H     0.08516   0.73448   0.28786   0.00000  Uiso   1.00
H163   H     0.89832   0.76821   0.30184   0.00000  Uiso   1.00
H164   H     0.17637   0.88375   0.26924   0.00000  Uiso   1.00
H165   H     0.16580   0.54325   0.28812   0.00000  Uiso   1.00
H166   H     0.71488   0.81867   0.32423   0.00000  Uiso   1.00
H167   H     0.30117   0.06227   0.25550   0.00000  Uiso   1.00
H168   H     0.27891   0.34426   0.29531   0.00000  Uiso   1.00
H169   H     0.26776   0.83490   0.34103   0.00000  Uiso   1.00
H170   H     0.09094   0.87414   0.35793   0.00000  Uiso   1.00
H171   H     0.36898   0.98968   0.32533   0.00000  Uiso   1.00
H172   H     0.35842   0.64918   0.34421   0.00000  Uiso   1.00
H173   H     0.87121   0.90465   0.36976   0.00000  Uiso   1.00
H174   H     0.45751   0.14825   0.30102   0.00000  Uiso   1.00
H175   H     0.43524   0.43025   0.34083   0.00000  Uiso   1.00
O176   O     0.67344   0.88570   0.35715   0.00000  Uiso   1.00
O177   O     0.44265   0.20527   0.26697   0.00000  Uiso   1.00
O178   O     0.41342   0.26327   0.31920   0.00000  Uiso   1.00
N179   N     0.77594   0.83350   0.33263   0.00000  Uiso   1.00
N180   N     0.32408   0.06126   0.26837   0.00000  Uiso   1.00
N181   N     0.30328   0.39000   0.30558   0.00000  Uiso   1.00
N182   N     0.86006   0.87977   0.35712   0.00000  Uiso   1.00
N183   N     0.40820   0.10753   0.29287   0.00000  Uiso   1.00
N184   N     0.38740   0.43626   0.33008   0.00000  Uiso   1.00
C185   C     0.75748   0.37301   0.55004   0.00000  Uiso   1.00
C186   C     0.78972   0.44920   0.56501   0.00000  Uiso   1.00
C187   C     0.79107   0.56012   0.56395   0.00000  Uiso   1.00
C188   C     0.82306   0.61548   0.57911   0.00000  Uiso   1.00
C189   C     0.86868   0.74196   0.59996   0.00000  Uiso   1.00
C190   C     0.85251   0.29814   0.54730   0.00000  Uiso   1.00
C191   C     0.90664   0.28205   0.53135   0.00000  Uiso   1.00
C192   C     0.99148   0.21023   0.53160   0.00000  Uiso   1.00
C193   C     0.13453   0.10213   0.52496   0.00000  Uiso   1.00
C194   C     0.66751   0.30389   0.55756   0.00000  Uiso   1.00
C195   C     0.56609   0.29260   0.55023   0.00000  Uiso   1.00
C196   C     0.49517   0.22560   0.55911   0.00000  Uiso   1.00
C197   C     0.35097   0.12643   0.56840   0.00000  Uiso   1.00
C198   C     0.81189   0.27408   0.57885   0.00000  Uiso   1.00
C199   C     0.81928   0.39546   0.58066   0.00000  Uiso   1.00
C200   C     0.85127   0.45067   0.59582   0.00000  Uiso   1.00
C201   C     0.85267   0.56165   0.59478   0.00000  Uiso   1.00
C202   C     0.88206   0.24441   0.56295   0.00000  Uiso   1.00
C203   C     0.96684   0.17259   0.56322   0.00000  Uiso   1.00
C204   C     0.02109   0.15640   0.54727   0.00000  Uiso   1.00
C205   C     0.69706   0.25016   0.57321   0.00000  Uiso   1.00
C206   C     0.62629   0.18315   0.58210   0.00000  Uiso   1.00
C207   C     0.52478   0.17177   0.57479   0.00000  Uiso   1.00
H208   H     0.73448   0.41484   0.53786   0.00000  Uiso   1.00
H209   H     0.76821   0.60168   0.55184   0.00000  Uiso   1.00
H210   H     0.88375   0.32363   0.51924   0.00000  Uiso   1.00
H211   H     0.54325   0.33420   0.53812   0.00000  Uiso   1.00
H212   H     0.81867   0.78512   0.57423   0.00000  Uiso   1.00
H213   H     0.06227   0.19883   0.50550   0.00000  Uiso   1.00
H214   H     0.34426   0.22109   0.54531   0.00000  Uiso   1.00
H215   H     0.83490   0.23224   0.59103   0.00000  Uiso   1.00
H216   H     0.87414   0.40906   0.60793   0.00000  Uiso   1.00
H217   H     0.98968   0.13102   0.57533   0.00000  Uiso   1.00
H218   H     0.64918   0.14158   0.59421   0.00000  Uiso   1.00
H219   H     0.90465   0.62879   0.61976   0.00000  Uiso   1.00
H220   H     0.14825   0.04249   0.55102   0.00000  Uiso   1.00
H221   H     0.43025   0.06476   0.59083   0.00000  Uiso   1.00
O222   O     0.88570   0.82656   0.60715   0.00000  Uiso   1.00
O223   O     0.20527   0.05735   0.51697   0.00000  Uiso   1.00
O224   O     0.26327   0.08658   0.56920   0.00000  Uiso   1.00
N225   N     0.83350   0.72406   0.58263   0.00000  Uiso   1.00
N226   N     0.06126   0.17592   0.51837   0.00000  Uiso   1.00
N227   N     0.39000   0.19672   0.55558   0.00000  Uiso   1.00
N228   N     0.87977   0.63994   0.60712   0.00000  Uiso   1.00
N229   N     0.10753   0.09180   0.54287   0.00000  Uiso   1.00
N230   N     0.43626   0.11260   0.58008   0.00000  Uiso   1.00
C231   C     0.25748   0.87301   0.05004   0.00000  Uiso   1.00
C232   C     0.28972   0.94920   0.06501   0.00000  Uiso   1.00
C233   C     0.29107   0.06012   0.06395   0.00000  Uiso   1.00
C234   C     0.32306   0.11548   0.07911   0.00000  Uiso   1.00
C235   C     0.36868   0.24196   0.09996   0.00000  Uiso   1.00
C236   C     0.35251   0.79814   0.04730   0.00000  Uiso   1.00
C237   C     0.40664   0.78205   0.03135   0.00000  Uiso   1.00
C238   C     0.49148   0.71023   0.03160   0.00000  Uiso   1.00
C239   C     0.63453   0.60213   0.02496   0.00000  Uiso   1.00
C240   C     0.16751   0.80389   0.05756   0.00000  Uiso   1.00
C241   C     0.06609   0.79260   0.05023   0.00000  Uiso   1.00
C242   C     0.99517   0.72560   0.05911   0.00000  Uiso   1.00
C243   C     0.85097   0.62643   0.06840   0.00000  Uiso   1.00
C244   C     0.31189   0.77408   0.07885   0.00000  Uiso   1.00
C245   C     0.31928   0.89546   0.08066   0.00000  Uiso   1.00
C246   C     0.35127   0.95067   0.09582   0.00000  Uiso   1.00
C247   C     0.35267   0.06165   0.09478   0.00000  Uiso   1.00
C248   C     0.38206   0.74441   0.06295   0.00000  Uiso   1.00
C249   C     0.46684   0.67259   0.06322   0.00000  Uiso   1.00
C250   C     0.52109   0.65640   0.04727   0.00000  Uiso   1.00
C251   C     0.19706   0.75016   0.07321   0.00000  Uiso   1.00
C252   C     0.12629   0.68315   0.08210   0.00000  Uiso   1.00
C253   C     0.02478   0.67177   0.07479   0.00000  Uiso   1.00
H254   H     0.23448   0.91484   0.03786   0.00000  Uiso   1.00
H255   H     0.26821   0.10168   0.05184   0.00000  Uiso   1.00
H256   H     0.38375   0.82363   0.01924   0.00000  Uiso   1.00
H257   H     0.04325   0.83420   0.03812   0.00000  Uiso   1.00
H258   H     0.31867   0.28512   0.07423   0.00000  Uiso   1.00
H259   H     0.56227   0.69883   0.00550   0.00000  Uiso   1.00
H260   H     0.84426   0.72109   0.04531   0.00000  Uiso   1.00
H261   H     0.33490   0.73224   0.09103   0.00000  Uiso   1.00
H262   H     0.37414   0.90906   0.10793   0.00000  Uiso   1.00
H263   H     0.48968   0.63102   0.07533   0.00000  Uiso   1.00
H264   H     0.14918   0.64158   0.09421   0.00000  Uiso   1.00
H265   H     0.40465   0.12879   0.11976   0.00000  Uiso   1.00
H266   H     0.64825   0.54249   0.05102   0.00000  Uiso   1.00
H267   H     0.93025   0.56476   0.09083   0.00000  Uiso   1.00
O268   O     0.38570   0.32656   0.10715   0.00000  Uiso   1.00
O269   O     0.70527   0.55735   0.01697   0.00000  Uiso   1.00
O270   O     0.76327   0.58658   0.06920   0.00000  Uiso   1.00
N271   N     0.33350   0.22406   0.08263   0.00000  Uiso   1.00
N272   N     0.56126   0.67592   0.01837   0.00000  Uiso   1.00
N273   N     0.89000   0.69672   0.05558   0.00000  Uiso   1.00
N274   N     0.37977   0.13994   0.10712   0.00000  Uiso   1.00
N275   N     0.60753   0.59180   0.04287   0.00000  Uiso   1.00
N276   N     0.93626   0.61260   0.08008   0.00000  Uiso   1.00
C277   C     0.74252   0.12699   0.05004   0.00000  Uiso   1.00
C278   C     0.71028   0.05080   0.06501   0.00000  Uiso   1.00
C279   C     0.70893   0.93988   0.06395   0.00000  Uiso   1.00
C280   C     0.67694   0.88452   0.07911   0.00000  Uiso   1.00
C281   C     0.63132   0.75804   0.09996   0.00000  Uiso   1.00
C282   C     0.64749   0.20186   0.04730   0.00000  Uiso   1.00
C283   C     0.59336   0.21795   0.03135   0.00000  Uiso   1.00
C284   C     0.50852   0.28977   0.03160   0.00000  Uiso   1.00
C285   C     0.36547   0.39787   0.02496   0.00000  Uiso   1.00
C286   C     0.83249   0.19611   0.05756   0.00000  Uiso   1.00
C287   C     0.93391   0.20740   0.05023   0.00000  Uiso   1.00
C288   C     0.00483   0.27440   0.05911   0.00000  Uiso   1.00
C289   C     0.14903   0.37357   0.06840   0.00000  Uiso   1.00
C290   C     0.68811   0.22592   0.07885   0.00000  Uiso   1.00
C291   C     0.68072   0.10454   0.08066   0.00000  Uiso   1.00
C292   C     0.64873   0.04933   0.09582   0.00000  Uiso   1.00
C293   C     0.64733   0.93835   0.09478   0.00000  Uiso   1.00
C294   C     0.61794   0.25559   0.06295   0.00000  Uiso   1.00
C295   C     0.53316   0.32741   0.06322   0.00000  Uiso   1.00
C296   C     0.47891   0.34360   0.04727   0.00000  Uiso   1.00
C297   C     0.80294   0.24984   0.07321   0.00000  Uiso   1.00
C298   C     0.87371   0.31685   0.08210   0.00000  Uiso   1.00
C299   C     0.97522   0.32823   0.07479   0.00000  Uiso   1.00
H300   H     0.76552   0.08516   0.03786   0.00000  Uiso   1.00
H301   H     0.73179   0.89832   0.05184   0.00000  Uiso   1.00
H302   H     0.61625   0.17637   0.01924   0.00000  Uiso   1.00
H303   H     0.95675   0.16580   0.03812   0.00000  Uiso   1.00
H304   H     0.68133   0.71488   0.07423   0.00000  Uiso   1.00
H305   H     0.43773   0.30117   0.00550   0.00000  Uiso   1.00
H306   H     0.15574   0.27891   0.04531   0.00000  Uiso   1.00
H307   H     0.66510   0.26776   0.09103   0.00000  Uiso   1.00
H308   H     0.62586   0.09094   0.10793   0.00000  Uiso   1.00
H309   H     0.51032   0.36898   0.07533   0.00000  Uiso   1.00
H310   H     0.85082   0.35842   0.09421   0.00000  Uiso   1.00
H311   H     0.59535   0.87121   0.11976   0.00000  Uiso   1.00
H312   H     0.35175   0.45751   0.05102   0.00000  Uiso   1.00
H313   H     0.06975   0.43524   0.09083   0.00000  Uiso   1.00
O314   O     0.61430   0.67344   0.10715   0.00000  Uiso   1.00
O315   O     0.29473   0.44265   0.01697   0.00000  Uiso   1.00
O316   O     0.23673   0.41342   0.06920   0.00000  Uiso   1.00
N317   N     0.66650   0.77594   0.08263   0.00000  Uiso   1.00
N318   N     0.43874   0.32408   0.01837   0.00000  Uiso   1.00
N319   N     0.11000   0.30328   0.05558   0.00000  Uiso   1.00
N320   N     0.62023   0.86006   0.10712   0.00000  Uiso   1.00
N321   N     0.39247   0.40820   0.04287   0.00000  Uiso   1.00
N322   N     0.06374   0.38740   0.08008   0.00000  Uiso   1.00
C323   C     0.24252   0.62699   0.55004   0.00000  Uiso   1.00
C324   C     0.21028   0.55080   0.56501   0.00000  Uiso   1.00
C325   C     0.20893   0.43988   0.56395   0.00000  Uiso   1.00
C326   C     0.17694   0.38452   0.57911   0.00000  Uiso   1.00
C327   C     0.13132   0.25804   0.59996   0.00000  Uiso   1.00
C328   C     0.14749   0.70186   0.54730   0.00000  Uiso   1.00
C329   C     0.09336   0.71795   0.53135   0.00000  Uiso   1.00
C330   C     0.00852   0.78977   0.53160   0.00000  Uiso   1.00
C331   C     0.86547   0.89787   0.52496   0.00000  Uiso   1.00
C332   C     0.33249   0.69611   0.55756   0.00000  Uiso   1.00
C333   C     0.43391   0.70740   0.55023   0.00000  Uiso   1.00
C334   C     0.50483   0.77440   0.55911   0.00000  Uiso   1.00
C335   C     0.64903   0.87357   0.56840   0.00000  Uiso   1.00
C336   C     0.18811   0.72592   0.57885   0.00000  Uiso   1.00
C337   C     0.18072   0.60454   0.58066   0.00000  Uiso   1.00
C338   C     0.14873   0.54933   0.59582   0.00000  Uiso   1.00
C339   C     0.14733   0.43835   0.59478   0.00000  Uiso   1.00
C340   C     0.11794   0.75559   0.56295   0.00000  Uiso   1.00
C341   C     0.03316   0.82741   0.56322   0.00000  Uiso   1.00
C342   C     0.97891   0.84360   0.54727   0.00000  Uiso   1.00
C343   C     0.30294   0.74984   0.57321   0.00000  Uiso   1.00
C344   C     0.37371   0.81685   0.58210   0.00000  Uiso   1.00
C345   C     0.47522   0.82823   0.57479   0.00000  Uiso   1.00
H346   H     0.26552   0.58516   0.53786   0.00000  Uiso   1.00
H347   H     0.23179   0.39832   0.55184   0.00000  Uiso   1.00
H348   H     0.11625   0.67637   0.51924   0.00000  Uiso   1.00
H349   H     0.45675   0.66580   0.53812   0.00000  Uiso   1.00
H350   H     0.18133   0.21488   0.57423   0.00000  Uiso   1.00
H351   H     0.93773   0.80117   0.50550   0.00000  Uiso   1.00
H352   H     0.65574   0.77891   0.54531   0.00000  Uiso   1.00
H353   H     0.16510   0.76776   0.59103   0.00000  Uiso   1.00
H354   H     0.12586   0.59094   0.60793   0.00000  Uiso   1.00
H355   H     0.01032   0.86898   0.57533   0.00000  Uiso   1.00
H356   H     0.35082   0.85842   0.59421   0.00000  Uiso   1.00
H357   H     0.09535   0.37121   0.61976   0.00000  Uiso   1.00
H358   H     0.85175   0.95751   0.55102   0.00000  Uiso   1.00
H359   H     0.56975   0.93524   0.59083   0.00000  Uiso   1.00
O360   O     0.11430   0.17344   0.60715   0.00000  Uiso   1.00
O361   O     0.79473   0.94265   0.51697   0.00000  Uiso   1.00
O362   O     0.73673   0.91342   0.56920   0.00000  Uiso   1.00
N363   N     0.16650   0.27594   0.58263   0.00000  Uiso   1.00
N364   N     0.93874   0.82408   0.51837   0.00000  Uiso   1.00
N365   N     0.61000   0.80328   0.55558   0.00000  Uiso   1.00
N366   N     0.12023   0.36006   0.60712   0.00000  Uiso   1.00
N367   N     0.89247   0.90820   0.54287   0.00000  Uiso   1.00
N368   N     0.56374   0.88740   0.58008   0.00000  Uiso   1.00
C369   C     0.62699   0.24252   0.44996   0.00000  Uiso   1.00
C370   C     0.55080   0.21028   0.43499   0.00000  Uiso   1.00
C371   C     0.43988   0.20893   0.43605   0.00000  Uiso   1.00
C372   C     0.38452   0.17694   0.42089   0.00000  Uiso   1.00
C373   C     0.25804   0.13132   0.40004   0.00000  Uiso   1.00
C374   C     0.70186   0.14749   0.45270   0.00000  Uiso   1.00
C375   C     0.71795   0.09336   0.46865   0.00000  Uiso   1.00
C376   C     0.78977   0.00852   0.46840   0.00000  Uiso   1.00
C377   C     0.89787   0.86547   0.47504   0.00000  Uiso   1.00
C378   C     0.69611   0.33249   0.44244   0.00000  Uiso   1.00
C379   C     0.70740   0.43391   0.44977   0.00000  Uiso   1.00
C380   C     0.77440   0.50483   0.44089   0.00000  Uiso   1.00
C381   C     0.87357   0.64903   0.43160   0.00000  Uiso   1.00
C382   C     0.72592   0.18811   0.42115   0.00000  Uiso   1.00
C383   C     0.60454   0.18072   0.41934   0.00000  Uiso   1.00
C384   C     0.54933   0.14873   0.40418   0.00000  Uiso   1.00
C385   C     0.43835   0.14733   0.40522   0.00000  Uiso   1.00
C386   C     0.75559   0.11794   0.43705   0.00000  Uiso   1.00
C387   C     0.82741   0.03316   0.43678   0.00000  Uiso   1.00
C388   C     0.84360   0.97891   0.45273   0.00000  Uiso   1.00
C389   C     0.74984   0.30294   0.42679   0.00000  Uiso   1.00
C390   C     0.81685   0.37371   0.41790   0.00000  Uiso   1.00
C391   C     0.82823   0.47522   0.42521   0.00000  Uiso   1.00
H392   H     0.58516   0.26552   0.46214   0.00000  Uiso   1.00
H393   H     0.39832   0.23179   0.44816   0.00000  Uiso   1.00
H394   H     0.67637   0.11625   0.48076   0.00000  Uiso   1.00
H395   H     0.66580   0.45675   0.46188   0.00000  Uiso   1.00
H396   H     0.21488   0.18133   0.42577   0.00000  Uiso   1.00
H397   H     0.80117   0.93773   0.49450   0.00000  Uiso   1.00
H398   H     0.77891   0.65574   0.45469   0.00000  Uiso   1.00
H399   H     0.76776   0.16510   0.40897   0.00000  Uiso   1.00
H400   H     0.59094   0.12586   0.39207   0.00000  Uiso   1.00
H401   H     0.86898   0.01032   0.42467   0.00000  Uiso   1.00
H402   H     0.85842   0.35082   0.40579   0.00000  Uiso   1.00
H403   H     0.37121   0.09535   0.38024   0.00000  Uiso   1.00
H404   H     0.95751   0.85175   0.44898   0.00000  Uiso   1.00
H405   H     0.93524   0.56975   0.40917   0.00000  Uiso   1.00
O406   O     0.17344   0.11430   0.39285   0.00000  Uiso   1.00
O407   O     0.94265   0.79473   0.48303   0.00000  Uiso   1.00
O408   O     0.91342   0.73673   0.43080   0.00000  Uiso   1.00
N409   N     0.27594   0.16650   0.41737   0.00000  Uiso   1.00
N410   N     0.82408   0.93874   0.48163   0.00000  Uiso   1.00
N411   N     0.80328   0.61000   0.44442   0.00000  Uiso   1.00
N412   N     0.36006   0.12023   0.39288   0.00000  Uiso   1.00
N413   N     0.90820   0.89247   0.45713   0.00000  Uiso   1.00
N414   N     0.88740   0.56374   0.41992   0.00000  Uiso   1.00
C415   C     0.12699   0.74252   0.94996   0.00000  Uiso   1.00
C416   C     0.05080   0.71028   0.93499   0.00000  Uiso   1.00
C417   C     0.93988   0.70893   0.93605   0.00000  Uiso   1.00
C418   C     0.88452   0.67694   0.92089   0.00000  Uiso   1.00
C419   C     0.75804   0.63132   0.90004   0.00000  Uiso   1.00
C420   C     0.20186   0.64749   0.95270   0.00000  Uiso   1.00
C421   C     0.21795   0.59336   0.96865   0.00000  Uiso   1.00
C422   C     0.28977   0.50852   0.96840   0.00000  Uiso   1.00
C423   C     0.39787   0.36547   0.97504   0.00000  Uiso   1.00
C424   C     0.19611   0.83249   0.94244   0.00000  Uiso   1.00
C425   C     0.20740   0.93391   0.94977   0.00000  Uiso   1.00
C426   C     0.27440   0.00483   0.94089   0.00000  Uiso   1.00
C427   C     0.37357   0.14903   0.93160   0.00000  Uiso   1.00
C428   C     0.22592   0.68811   0.92115   0.00000  Uiso   1.00
C429   C     0.10454   0.68072   0.91934   0.00000  Uiso   1.00
C430   C     0.04933   0.64873   0.90418   0.00000  Uiso   1.00
C431   C     0.93835   0.64733   0.90522   0.00000  Uiso   1.00
C432   C     0.25559   0.61794   0.93705   0.00000  Uiso   1.00
C433   C     0.32741   0.53316   0.93678   0.00000  Uiso   1.00
C434   C     0.34360   0.47891   0.95273   0.00000  Uiso   1.00
C435   C     0.24984   0.80294   0.92679   0.00000  Uiso   1.00
C436   C     0.31685   0.87371   0.91790   0.00000  Uiso   1.00
C437   C     0.32823   0.97522   0.92521   0.00000  Uiso   1.00
H438   H     0.08516   0.76552   0.96214   0.00000  Uiso   1.00
H439   H     0.89832   0.73179   0.94816   0.00000  Uiso   1.00
H440   H     0.17637   0.61625   0.98076   0.00000  Uiso   1.00
H441   H     0.16580   0.95675   0.96188   0.00000  Uiso   1.00
H442   H     0.71488   0.68133   0.92577   0.00000  Uiso   1.00
H443   H     0.30117   0.43773   0.99450   0.00000  Uiso   1.00
H444   H     0.27891   0.15574   0.95469   0.00000  Uiso   1.00
H445   H     0.26776   0.66510   0.90897   0.00000  Uiso   1.00
H446   H     0.09094   0.62586   0.89207   0.00000  Uiso   1.00
H447   H     0.36898   0.51032   0.92467   0.00000  Uiso   1.00
H448   H     0.35842   0.85082   0.90579   0.00000  Uiso   1.00
H449   H     0.87121   0.59535   0.88024   0.00000  Uiso   1.00
H450   H     0.45751   0.35175   0.94898   0.00000  Uiso   1.00
H451   H     0.43524   0.06975   0.90917   0.00000  Uiso   1.00
O452   O     0.67344   0.61430   0.89285   0.00000  Uiso   1.00
O453   O     0.44265   0.29473   0.98303   0.00000  Uiso   1.00
O454   O     0.41342   0.23673   0.93080   0.00000  Uiso   1.00
N455   N     0.77594   0.66650   0.91737   0.00000  Uiso   1.00
N456   N     0.32408   0.43874   0.98163   0.00000  Uiso   1.00
N457   N     0.30328   0.11000   0.94442   0.00000  Uiso   1.00
N458   N     0.86006   0.62023   0.89288   0.00000  Uiso   1.00
N459   N     0.40820   0.39247   0.95713   0.00000  Uiso   1.00
N460   N     0.38740   0.06374   0.91992   0.00000  Uiso   1.00
C461   C     0.87301   0.25748   0.94996   0.00000  Uiso   1.00
C462   C     0.94920   0.28972   0.93499   0.00000  Uiso   1.00
C463   C     0.06012   0.29107   0.93605   0.00000  Uiso   1.00
C464   C     0.11548   0.32306   0.92089   0.00000  Uiso   1.00
C465   C     0.24196   0.36868   0.90004   0.00000  Uiso   1.00
C466   C     0.79814   0.35251   0.95270   0.00000  Uiso   1.00
C467   C     0.78205   0.40664   0.96865   0.00000  Uiso   1.00
C468   C     0.71023   0.49148   0.96840   0.00000  Uiso   1.00
C469   C     0.60213   0.63453   0.97504   0.00000  Uiso   1.00
C470   C     0.80389   0.16751   0.94244   0.00000  Uiso   1.00
C471   C     0.79260   0.06609   0.94977   0.00000  Uiso   1.00
C472   C     0.72560   0.99517   0.94089   0.00000  Uiso   1.00
C473   C     0.62643   0.85097   0.93160   0.00000  Uiso   1.00
C474   C     0.77408   0.31189   0.92115   0.00000  Uiso   1.00
C475   C     0.89546   0.31928   0.91934   0.00000  Uiso   1.00
C476   C     0.95067   0.35127   0.90418   0.00000  Uiso   1.00
C477   C     0.06165   0.35267   0.90522   0.00000  Uiso   1.00
C478   C     0.74441   0.38206   0.93705   0.00000  Uiso   1.00
C479   C     0.67259   0.46684   0.93678   0.00000  Uiso   1.00
C480   C     0.65640   0.52109   0.95273   0.00000  Uiso   1.00
C481   C     0.75016   0.19706   0.92679   0.00000  Uiso   1.00
C482   C     0.68315   0.12629   0.91790   0.00000  Uiso   1.00
C483   C     0.67177   0.02478   0.92521   0.00000  Uiso   1.00
H484   H     0.91484   0.23448   0.96214   0.00000  Uiso   1.00
H485   H     0.10168   0.26821   0.94816   0.00000  Uiso   1.00
H486   H     0.82363   0.38375   0.98076   0.00000  Uiso   1.00
H487   H     0.83420   0.04325   0.96188   0.00000  Uiso   1.00
H488   H     0.28512   0.31867   0.92577   0.00000  Uiso   1.00
H489   H     0.69883   0.56227   0.99450   0.00000  Uiso   1.00
H490   H     0.72109   0.84426   0.95469   0.00000  Uiso   1.00
H491   H     0.73224   0.33490   0.90897   0.00000  Uiso   1.00
H492   H     0.90906   0.37414   0.89207   0.00000  Uiso   1.00
H493   H     0.63102   0.48968   0.92467   0.00000  Uiso   1.00
H494   H     0.64158   0.14918   0.90579   0.00000  Uiso   1.00
H495   H     0.12879   0.40465   0.88024   0.00000  Uiso   1.00
H496   H     0.54249   0.64825   0.94898   0.00000  Uiso   1.00
H497   H     0.56476   0.93025   0.90917   0.00000  Uiso   1.00
O498   O     0.32656   0.38570   0.89285   0.00000  Uiso   1.00
O499   O     0.55735   0.70527   0.98303   0.00000  Uiso   1.00
O500   O     0.58658   0.76327   0.93080   0.00000  Uiso   1.00
N501   N     0.22406   0.33350   0.91737   0.00000  Uiso   1.00
N502   N     0.67592   0.56126   0.98163   0.00000  Uiso   1.00
N503   N     0.69672   0.89000   0.94442   0.00000  Uiso   1.00
N504   N     0.13994   0.37977   0.89288   0.00000  Uiso   1.00
N505   N     0.59180   0.60753   0.95713   0.00000  Uiso   1.00
N506   N     0.61260   0.93626   0.91992   0.00000  Uiso   1.00
C507   C     0.37301   0.75748   0.44996   0.00000  Uiso   1.00
C508   C     0.44920   0.78972   0.43499   0.00000  Uiso   1.00
C509   C     0.56012   0.79107   0.43605   0.00000  Uiso   1.00
C510   C     0.61548   0.82306   0.42089   0.00000  Uiso   1.00
C511   C     0.74196   0.86868   0.40004   0.00000  Uiso   1.00
C512   C     0.29814   0.85251   0.45270   0.00000  Uiso   1.00
C513   C     0.28205   0.90664   0.46865   0.00000  Uiso   1.00
C514   C     0.21023   0.99148   0.46840   0.00000  Uiso   1.00
C515   C     0.10213   0.13453   0.47504   0.00000  Uiso   1.00
C516   C     0.30389   0.66751   0.44244   0.00000  Uiso   1.00
C517   C     0.29260   0.56609   0.44977   0.00000  Uiso   1.00
C518   C     0.22560   0.49517   0.44089   0.00000  Uiso   1.00
C519   C     0.12643   0.35097   0.43160   0.00000  Uiso   1.00
C520   C     0.27408   0.81189   0.42115   0.00000  Uiso   1.00
C521   C     0.39546   0.81928   0.41934   0.00000  Uiso   1.00
C522   C     0.45067   0.85127   0.40418   0.00000  Uiso   1.00
C523   C     0.56165   0.85267   0.40522   0.00000  Uiso   1.00
C524   C     0.24441   0.88206   0.43705   0.00000  Uiso   1.00
C525   C     0.17259   0.96684   0.43678   0.00000  Uiso   1.00
C526   C     0.15640   0.02109   0.45273   0.00000  Uiso   1.00
C527   C     0.25016   0.69706   0.42679   0.00000  Uiso   1.00
C528   C     0.18315   0.62629   0.41790   0.00000  Uiso   1.00
C529   C     0.17177   0.52478   0.42521   0.00000  Uiso   1.00
H530   H     0.41484   0.73448   0.46214   0.00000  Uiso   1.00
H531   H     0.60168   0.76821   0.44816   0.00000  Uiso   1.00
H532   H     0.32363   0.88375   0.48076   0.00000  Uiso   1.00
H533   H     0.33420   0.54325   0.46188   0.00000  Uiso   1.00
H534   H     0.78512   0.81867   0.42577   0.00000  Uiso   1.00
H535   H     0.19883   0.06227   0.49450   0.00000  Uiso   1.00
H536   H     0.22109   0.34426   0.45469   0.00000  Uiso   1.00
H537   H     0.23224   0.83490   0.40897   0.00000  Uiso   1.00
H538   H     0.40906   0.87414   0.39207   0.00000  Uiso   1.00
H539   H     0.13102   0.98968   0.42467   0.00000  Uiso   1.00
H540   H     0.14158   0.64918   0.40579   0.00000  Uiso   1.00
H541   H     0.62879   0.90465   0.38024   0.00000  Uiso   1.00
H542   H     0.04249   0.14825   0.44898   0.00000  Uiso   1.00
H543   H     0.06476   0.43025   0.40917   0.00000  Uiso   1.00
O544   O     0.82656   0.88570   0.39285   0.00000  Uiso   1.00
O545   O     0.05735   0.20527   0.48303   0.00000  Uiso   1.00
O546   O     0.08658   0.26327   0.43080   0.00000  Uiso   1.00
N547   N     0.72406   0.83350   0.41737   0.00000  Uiso   1.00
N548   N     0.17592   0.06126   0.48163   0.00000  Uiso   1.00
N549   N     0.19672   0.39000   0.44442   0.00000  Uiso   1.00
N550   N     0.63994   0.87977   0.39288   0.00000  Uiso   1.00
N551   N     0.09180   0.10753   0.45713   0.00000  Uiso   1.00
N552   N     0.11260   0.43626   0.41992   0.00000  Uiso   1.00
C553   C     0.74252   0.37301   0.19996   0.00000  Uiso   1.00
C554   C     0.71028   0.44920   0.18499   0.00000  Uiso   1.00
C555   C     0.70893   0.56012   0.18605   0.00000  Uiso   1.00
C556   C     0.67694   0.61548   0.17089   0.00000  Uiso   1.00
C557   C     0.63132   0.74196   0.15004   0.00000  Uiso   1.00
C558   C     0.64749   0.29814   0.20270   0.00000  Uiso   1.00
C559   C     0.59336   0.28205   0.21865   0.00000  Uiso   1.00
C560   C     0.50852   0.21023   0.21840   0.00000  Uiso   1.00
C561   C     0.36547   0.10213   0.22504   0.00000  Uiso   1.00
C562   C     0.83249   0.30389   0.19244   0.00000  Uiso   1.00
C563   C     0.93391   0.29260   0.19977   0.00000  Uiso   1.00
C564   C     0.00483   0.22560   0.19089   0.00000  Uiso   1.00
C565   C     0.14903   0.12643   0.18160   0.00000  Uiso   1.00
C566   C     0.68811   0.27408   0.17115   0.00000  Uiso   1.00
C567   C     0.68072   0.39546   0.16934   0.00000  Uiso   1.00
C568   C     0.64873   0.45067   0.15418   0.00000  Uiso   1.00
C569   C     0.64733   0.56165   0.15522   0.00000  Uiso   1.00
C570   C     0.61794   0.24441   0.18705   0.00000  Uiso   1.00
C571   C     0.53316   0.17259   0.18678   0.00000  Uiso   1.00
C572   C     0.47891   0.15640   0.20273   0.00000  Uiso   1.00
C573   C     0.80294   0.25016   0.17679   0.00000  Uiso   1.00
C574   C     0.87371   0.18315   0.16790   0.00000  Uiso   1.00
C575   C     0.97522   0.17177   0.17521   0.00000  Uiso   1.00
H576   H     0.76552   0.41484   0.21214   0.00000  Uiso   1.00
H577   H     0.73179   0.60168   0.19816   0.00000  Uiso   1.00
H578   H     0.61625   0.32363   0.23076   0.00000  Uiso   1.00
H579   H     0.95675   0.33420   0.21188   0.00000  Uiso   1.00
H580   H     0.68133   0.78512   0.17577   0.00000  Uiso   1.00
H581   H     0.43773   0.19883   0.24450   0.00000  Uiso   1.00
H582   H     0.15574   0.22109   0.20469   0.00000  Uiso   1.00
H583   H     0.66510   0.23224   0.15897   0.00000  Uiso   1.00
H584   H     0.62586   0.40906   0.14207   0.00000  Uiso   1.00
H585   H     0.51032   0.13102   0.17467   0.00000  Uiso   1.00
H586   H     0.85082   0.14158   0.15579   0.00000  Uiso   1.00
H587   H     0.59535   0.62879   0.13024   0.00000  Uiso   1.00
H588   H     0.35175   0.04249   0.19898   0.00000  Uiso   1.00
H589   H     0.06975   0.06476   0.15917   0.00000  Uiso   1.00
O590   O     0.61430   0.82656   0.14285   0.00000  Uiso   1.00
O591   O     0.29473   0.05735   0.23303   0.00000  Uiso   1.00
O592   O     0.23673   0.08658   0.18080   0.00000  Uiso   1.00
N593   N     0.66650   0.72406   0.16737   0.00000  Uiso   1.00
N594   N     0.43874   0.17592   0.23163   0.00000  Uiso   1.00
N595   N     0.11000   0.19672   0.19442   0.00000  Uiso   1.00
N596   N     0.62023   0.63994   0.14288   0.00000  Uiso   1.00
N597   N     0.39247   0.09180   0.20713   0.00000  Uiso   1.00
N598   N     0.06374   0.11260   0.16992   0.00000  Uiso   1.00
C599   C     0.24252   0.87301   0.69996   0.00000  Uiso   1.00
C600   C     0.21028   0.94920   0.68499   0.00000  Uiso   1.00
C601   C     0.20893   0.06012   0.68605   0.00000  Uiso   1.00
C602   C     0.17694   0.11548   0.67089   0.00000  Uiso   1.00
C603   C     0.13132   0.24196   0.65004   0.00000  Uiso   1.00
C604   C     0.14749   0.79814   0.70270   0.00000  Uiso   1.00
C605   C     0.09336   0.78205   0.71865   0.00000  Uiso   1.00
C606   C     0.00852   0.71023   0.71840   0.00000  Uiso   1.00
C607   C     0.86547   0.60213   0.72504   0.00000  Uiso   1.00
C608   C     0.33249   0.80389   0.69244   0.00000  Uiso   1.00
C609   C     0.43391   0.79260   0.69977   0.00000  Uiso   1.00
C610   C     0.50483   0.72560   0.69089   0.00000  Uiso   1.00
C611   C     0.64903   0.62643   0.68160   0.00000  Uiso   1.00
C612   C     0.18811   0.77408   0.67115   0.00000  Uiso   1.00
C613   C     0.18072   0.89546   0.66934   0.00000  Uiso   1.00
C614   C     0.14873   0.95067   0.65418   0.00000  Uiso   1.00
C615   C     0.14733   0.06165   0.65522   0.00000  Uiso   1.00
C616   C     0.11794   0.74441   0.68705   0.00000  Uiso   1.00
C617   C     0.03316   0.67259   0.68678   0.00000  Uiso   1.00
C618   C     0.97891   0.65640   0.70273   0.00000  Uiso   1.00
C619   C     0.30294   0.75016   0.67679   0.00000  Uiso   1.00
C620   C     0.37371   0.68315   0.66790   0.00000  Uiso   1.00
C621   C     0.47522   0.67177   0.67521   0.00000  Uiso   1.00
H622   H     0.26552   0.91484   0.71214   0.00000  Uiso   1.00
H623   H     0.23179   0.10168   0.69816   0.00000  Uiso   1.00
H624   H     0.11625   0.82363   0.73076   0.00000  Uiso   1.00
H625   H     0.45675   0.83420   0.71188   0.00000  Uiso   1.00
H626   H     0.18133   0.28512   0.67577   0.00000  Uiso   1.00
H627   H     0.93773   0.69883   0.74450   0.00000  Uiso   1.00
H628   H     0.65574   0.72109   0.70469   0.00000  Uiso   1.00
H629   H     0.16510   0.73224   0.65897   0.00000  Uiso   1.00
H630   H     0.12586   0.90906   0.64207   0.00000  Uiso   1.00
H631   H     0.01032   0.63102   0.67467   0.00000  Uiso   1.00
H632   H     0.35082   0.64158   0.65579   0.00000  Uiso   1.00
H633   H     0.09535   0.12879   0.63024   0.00000  Uiso   1.00
H634   H     0.85175   0.54249   0.69898   0.00000  Uiso   1.00
H635   H     0.56975   0.56476   0.65917   0.00000  Uiso   1.00
O636   O     0.11430   0.32656   0.64285   0.00000  Uiso   1.00
O637   O     0.79473   0.55735   0.73303   0.00000  Uiso   1.00
O638   O     0.73673   0.58658   0.68080   0.00000  Uiso   1.00
N639   N     0.16650   0.22406   0.66737   0.00000  Uiso   1.00
N640   N     0.93874   0.67592   0.73163   0.00000  Uiso   1.00
N641   N     0.61000   0.69672   0.69442   0.00000  Uiso   1.00
N642   N     0.12023   0.13994   0.64288   0.00000  Uiso   1.00
N643   N     0.89247   0.59180   0.70713   0.00000  Uiso   1.00
N644   N     0.56374   0.61260   0.66992   0.00000  Uiso   1.00
C645   C     0.75748   0.12699   0.69996   0.00000  Uiso   1.00
C646   C     0.78972   0.05080   0.68499   0.00000  Uiso   1.00
C647   C     0.79107   0.93988   0.68605   0.00000  Uiso   1.00
C648   C     0.82306   0.88452   0.67089   0.00000  Uiso   1.00
C649   C     0.86868   0.75804   0.65004   0.00000  Uiso   1.00
C650   C     0.85251   0.20186   0.70270   0.00000  Uiso   1.00
C651   C     0.90664   0.21795   0.71865   0.00000  Uiso   1.00
C652   C     0.99148   0.28977   0.71840   0.00000  Uiso   1.00
C653   C     0.13453   0.39787   0.72504   0.00000  Uiso   1.00
C654   C     0.66751   0.19611   0.69244   0.00000  Uiso   1.00
C655   C     0.56609   0.20740   0.69977   0.00000  Uiso   1.00
C656   C     0.49517   0.27440   0.69089   0.00000  Uiso   1.00
C657   C     0.35097   0.37357   0.68160   0.00000  Uiso   1.00
C658   C     0.81189   0.22592   0.67115   0.00000  Uiso   1.00
C659   C     0.81928   0.10454   0.66934   0.00000  Uiso   1.00
C660   C     0.85127   0.04933   0.65418   0.00000  Uiso   1.00
C661   C     0.85267   0.93835   0.65522   0.00000  Uiso   1.00
C662   C     0.88206   0.25559   0.68705   0.00000  Uiso   1.00
C663   C     0.96684   0.32741   0.68678   0.00000  Uiso   1.00
C664   C     0.02109   0.34360   0.70273   0.00000  Uiso   1.00
C665   C     0.69706   0.24984   0.67679   0.00000  Uiso   1.00
C666   C     0.62629   0.31685   0.66790   0.00000  Uiso   1.00
C667   C     0.52478   0.32823   0.67521   0.00000  Uiso   1.00
H668   H     0.73448   0.08516   0.71214   0.00000  Uiso   1.00
H669   H     0.76821   0.89832   0.69816   0.00000  Uiso   1.00
H670   H     0.88375   0.17637   0.73076   0.00000  Uiso   1.00
H671   H     0.54325   0.16580   0.71188   0.00000  Uiso   1.00
H672   H     0.81867   0.71488   0.67577   0.00000  Uiso   1.00
H673   H     0.06227   0.30117   0.74450   0.00000  Uiso   1.00
H674   H     0.34426   0.27891   0.70469   0.00000  Uiso   1.00
H675   H     0.83490   0.26776   0.65897   0.00000  Uiso   1.00
H676   H     0.87414   0.09094   0.64207   0.00000  Uiso   1.00
H677   H     0.98968   0.36898   0.67467   0.00000  Uiso   1.00
H678   H     0.64918   0.35842   0.65579   0.00000  Uiso   1.00
H679   H     0.90465   0.87121   0.63024   0.00000  Uiso   1.00
H680   H     0.14825   0.45751   0.69898   0.00000  Uiso   1.00
H681   H     0.43025   0.43524   0.65917   0.00000  Uiso   1.00
O682   O     0.88570   0.67344   0.64285   0.00000  Uiso   1.00
O683   O     0.20527   0.44265   0.73303   0.00000  Uiso   1.00
O684   O     0.26327   0.41342   0.68080   0.00000  Uiso   1.00
N685   N     0.83350   0.77594   0.66737   0.00000  Uiso   1.00
N686   N     0.06126   0.32408   0.73163   0.00000  Uiso   1.00
N687   N     0.39000   0.30328   0.69442   0.00000  Uiso   1.00
N688   N     0.87977   0.86006   0.64288   0.00000  Uiso   1.00
N689   N     0.10753   0.40820   0.70713   0.00000  Uiso   1.00
N690   N     0.43626   0.38740   0.66992   0.00000  Uiso   1.00
C691   C     0.25748   0.62699   0.19996   0.00000  Uiso   1.00
C692   C     0.28972   0.55080   0.18499   0.00000  Uiso   1.00
C693   C     0.29107   0.43988   0.18605   0.00000  Uiso   1.00
C694   C     0.32306   0.38452   0.17089   0.00000  Uiso   1.00
C695   C     0.36868   0.25804   0.15004   0.00000  Uiso   1.00
C696   C     0.35251   0.70186   0.20270   0.00000  Uiso   1.00
C697   C     0.40664   0.71795   0.21865   0.00000  Uiso   1.00
C698   C     0.49148   0.78977   0.21840   0.00000  Uiso   1.00
C699   C     0.63453   0.89787   0.22504   0.00000  Uiso   1.00
C700   C     0.16751   0.69611   0.19244   0.00000  Uiso   1.00
C701   C     0.06609   0.70740   0.19977   0.00000  Uiso   1.00
C702   C     0.99517   0.77440   0.19089   0.00000  Uiso   1.00
C703   C     0.85097   0.87357   0.18160   0.00000  Uiso   1.00
C704   C     0.31189   0.72592   0.17115   0.00000  Uiso   1.00
C705   C     0.31928   0.60454   0.16934   0.00000  Uiso   1.00
C706   C     0.35127   0.54933   0.15418   0.00000  Uiso   1.00
C707   C     0.35267   0.43835   0.15522   0.00000  Uiso   1.00
C708   C     0.38206   0.75559   0.18705   0.00000  Uiso   1.00
C709   C     0.46684   0.82741   0.18678   0.00000  Uiso   1.00
C710   C     0.52109   0.84360   0.20273   0.00000  Uiso   1.00
C711   C     0.19706   0.74984   0.17679   0.00000  Uiso   1.00
C712   C     0.12629   0.81685   0.16790   0.00000  Uiso   1.00
C713   C     0.02478   0.82823   0.17521   0.00000  Uiso   1.00
H714   H     0.23448   0.58516   0.21214   0.00000  Uiso   1.00
H715   H     0.26821   0.39832   0.19816   0.00000  Uiso   1.00
H716   H     0.38375   0.67637   0.23076   0.00000  Uiso   1.00
H717   H     0.04325   0.66580   0.21188   0.00000  Uiso   1.00
H718   H     0.31867   0.21488   0.17577   0.00000  Uiso   1.00
H719   H     0.56227   0.80117   0.24450   0.00000  Uiso   1.00
H720   H     0.84426   0.77891   0.20469   0.00000  Uiso   1.00
H721   H     0.33490   0.76776   0.15897   0.00000  Uiso   1.00
H722   H     0.37414   0.59094   0.14207   0.00000  Uiso   1.00
H723   H     0.48968   0.86898   0.17467   0.00000  Uiso   1.00
H724   H     0.14918   0.85842   0.15579   0.00000  Uiso   1.00
H725   H     0.40465   0.37121   0.13024   0.00000  Uiso   1.00
H726   H     0.64825   0.95751   0.19898   0.00000  Uiso   1.00
H727   H     0.93025   0.93524   0.15917   0.00000  Uiso   1.00
O728   O     0.38570   0.17344   0.14285   0.00000  Uiso   1.00
O729   O     0.70527   0.94265   0.23303   0.00000  Uiso   1.00
O730   O     0.76327   0.91342   0.18080   0.00000  Uiso   1.00
N731   N     0.33350   0.27594   0.16737   0.00000  Uiso   1.00
N732   N     0.56126   0.82408   0.23163   0.00000  Uiso   1.00
N733   N     0.89000   0.80328   0.19442   0.00000  Uiso   1.00
N734   N     0.37977   0.36006   0.14288   0.00000  Uiso   1.00
N735   N     0.60753   0.90820   0.20713   0.00000  Uiso   1.00
N736   N     0.93626   0.88740   0.16992   0.00000  Uiso   1.00
