data_job_06731
_audit_creation_date              2018-12-19
_audit_creation_method            'Materials Studio'
_symmetry_space_group_name_H-M    'P1'
_symmetry_Int_Tables_number       1
_symmetry_cell_setting            triclinic
loop_
_symmetry_equiv_pos_as_xyz
  x,y,z
_cell_length_a                    29.9938
_cell_length_b                    29.9938
_cell_length_c                    49.9314
_cell_angle_alpha                 90.0000
_cell_angle_beta                  90.0000
_cell_angle_gamma                 120.0000
loop_
_atom_site_label
_atom_site_type_symbol
_atom_site_fract_x
_atom_site_fract_y
_atom_site_fract_z
_atom_site_U_iso_or_equiv
_atom_site_adp_type
_atom_site_occupancy
C1     C     0.37151   0.91033   0.37274   0.00000  Uiso   1.00
C2     C     0.31723   0.86919   0.36471   0.00000  Uiso   1.00
C3     C     0.61780   0.49278   0.04637   0.00000  Uiso   1.00
C4     C     0.56969   0.45973   0.03553   0.00000  Uiso   1.00
C5     C     0.48766   0.39435   0.02684   0.00000  Uiso   1.00
C6     C     0.40670   0.91267   0.35007   0.00000  Uiso   1.00
C7     C     0.44915   0.90617   0.35277   0.00000  Uiso   1.00
C8     C     0.47636   0.90973   0.32961   0.00000  Uiso   1.00
C9     C     0.53324   0.91190   0.29820   0.00000  Uiso   1.00
C10    C     0.37200   0.96140   0.37197   0.00000  Uiso   1.00
C11    C     0.38529   0.99587   0.39308   0.00000  Uiso   1.00
C12    C     0.38330   0.04046   0.38835   0.00000  Uiso   1.00
C13    C     0.38631   0.11827   0.39094   0.00000  Uiso   1.00
C14    C     0.34434   0.92823   0.32682   0.00000  Uiso   1.00
C15    C     0.30248   0.87891   0.33976   0.00000  Uiso   1.00
C16    C     0.25441   0.84591   0.32889   0.00000  Uiso   1.00
C17    C     0.55491   0.46946   0.01054   0.00000  Uiso   1.00
C18    C     0.39194   0.92239   0.32513   0.00000  Uiso   1.00
C19    C     0.41909   0.92597   0.30196   0.00000  Uiso   1.00
C20    C     0.46157   0.91947   0.30462   0.00000  Uiso   1.00
C21    C     0.35724   0.97112   0.34703   0.00000  Uiso   1.00
C22    C     0.35523   0.01566   0.34226   0.00000  Uiso   1.00
C23    C     0.36851   0.05019   0.36336   0.00000  Uiso   1.00
H24    H     0.38301   0.90277   0.39216   0.00000  Uiso   1.00
H25    H     0.62924   0.48527   0.06567   0.00000  Uiso   1.00
H26    H     0.46056   0.89866   0.37207   0.00000  Uiso   1.00
H27    H     0.39671   0.98833   0.41238   0.00000  Uiso   1.00
H28    H     0.52617   0.39624   0.06225   0.00000  Uiso   1.00
H29    H     0.54004   0.89838   0.33880   0.00000  Uiso   1.00
H30    H     0.40539   0.08749   0.42379   0.00000  Uiso   1.00
H31    H     0.33286   0.93579   0.30740   0.00000  Uiso   1.00
H32    H     0.24300   0.85344   0.30959   0.00000  Uiso   1.00
H33    H     0.40766   0.93349   0.28266   0.00000  Uiso   1.00
H34    H     0.34381   0.02317   0.32296   0.00000  Uiso   1.00
H35    H     0.48323   0.42451   0.98968   0.00000  Uiso   1.00
H36    H     0.49710   0.92665   0.26623   0.00000  Uiso   1.00
H37    H     0.36245   0.11576   0.35121   0.00000  Uiso   1.00
O38    O     0.44650   0.35560   0.02894   0.00000  Uiso   1.00
O39    O     0.56869   0.91041   0.28777   0.00000  Uiso   1.00
O40    O     0.39204   0.15851   0.39927   0.00000  Uiso   1.00
N41    N     0.52839   0.41420   0.04488   0.00000  Uiso   1.00
N42    N     0.51967   0.90535   0.32512   0.00000  Uiso   1.00
N43    N     0.39380   0.08216   0.40457   0.00000  Uiso   1.00
N44    N     0.50528   0.42941   0.00582   0.00000  Uiso   1.00
N45    N     0.49656   0.92056   0.28607   0.00000  Uiso   1.00
N46    N     0.37069   0.09737   0.36552   0.00000  Uiso   1.00
C47    C     0.03818   0.24367   0.70608   0.00000  Uiso   1.00
C48    C     0.98390   0.20252   0.69804   0.00000  Uiso   1.00
C49    C     0.28447   0.82612   0.37970   0.00000  Uiso   1.00
C50    C     0.23636   0.79306   0.36886   0.00000  Uiso   1.00
C51    C     0.15433   0.72768   0.36017   0.00000  Uiso   1.00
C52    C     0.07336   0.24601   0.68341   0.00000  Uiso   1.00
C53    C     0.11582   0.23950   0.68610   0.00000  Uiso   1.00
C54    C     0.14302   0.24306   0.66294   0.00000  Uiso   1.00
C55    C     0.19991   0.24523   0.63154   0.00000  Uiso   1.00
C56    C     0.03866   0.29473   0.70531   0.00000  Uiso   1.00
C57    C     0.05196   0.32920   0.72641   0.00000  Uiso   1.00
C58    C     0.04996   0.37379   0.72168   0.00000  Uiso   1.00
C59    C     0.05297   0.45161   0.72428   0.00000  Uiso   1.00
C60    C     0.01101   0.26156   0.66015   0.00000  Uiso   1.00
C61    C     0.96914   0.21224   0.67310   0.00000  Uiso   1.00
C62    C     0.92107   0.17924   0.66223   0.00000  Uiso   1.00
C63    C     0.22157   0.80280   0.34387   0.00000  Uiso   1.00
C64    C     0.05861   0.25573   0.65846   0.00000  Uiso   1.00
C65    C     0.08576   0.25930   0.63529   0.00000  Uiso   1.00
C66    C     0.12824   0.25280   0.63795   0.00000  Uiso   1.00
C67    C     0.02391   0.30445   0.68036   0.00000  Uiso   1.00
C68    C     0.02189   0.34899   0.67560   0.00000  Uiso   1.00
C69    C     0.03518   0.38352   0.69669   0.00000  Uiso   1.00
H70    H     0.04967   0.23610   0.72549   0.00000  Uiso   1.00
H71    H     0.29590   0.81861   0.39901   0.00000  Uiso   1.00
H72    H     0.12723   0.23199   0.70541   0.00000  Uiso   1.00
H73    H     0.06338   0.32167   0.74571   0.00000  Uiso   1.00
H74    H     0.19283   0.72957   0.39559   0.00000  Uiso   1.00
H75    H     0.20671   0.23171   0.67214   0.00000  Uiso   1.00
H76    H     0.07206   0.42082   0.75712   0.00000  Uiso   1.00
H77    H     0.99952   0.26913   0.64073   0.00000  Uiso   1.00
H78    H     0.90966   0.18677   0.64292   0.00000  Uiso   1.00
H79    H     0.07433   0.26682   0.61599   0.00000  Uiso   1.00
H80    H     0.01047   0.35650   0.65629   0.00000  Uiso   1.00
H81    H     0.14989   0.75784   0.32301   0.00000  Uiso   1.00
H82    H     0.16377   0.25998   0.59956   0.00000  Uiso   1.00
H83    H     0.02912   0.44909   0.68455   0.00000  Uiso   1.00
O84    O     0.11316   0.68893   0.36227   0.00000  Uiso   1.00
O85    O     0.23536   0.24374   0.62111   0.00000  Uiso   1.00
O86    O     0.05870   0.49184   0.73260   0.00000  Uiso   1.00
N87    N     0.19505   0.74753   0.37821   0.00000  Uiso   1.00
N88    N     0.18634   0.23868   0.65845   0.00000  Uiso   1.00
N89    N     0.06047   0.41549   0.73790   0.00000  Uiso   1.00
N90    N     0.17195   0.76275   0.33916   0.00000  Uiso   1.00
N91    N     0.16323   0.25389   0.61940   0.00000  Uiso   1.00
N92    N     0.03736   0.43070   0.69885   0.00000  Uiso   1.00
C93    C     0.70485   0.57700   0.03941   0.00000  Uiso   1.00
C94    C     0.65057   0.53585   0.03137   0.00000  Uiso   1.00
C95    C     0.95113   0.15945   0.71304   0.00000  Uiso   1.00
C96    C     0.90303   0.12639   0.70219   0.00000  Uiso   1.00
C97    C     0.82100   0.06101   0.69350   0.00000  Uiso   1.00
C98    C     0.74003   0.57934   0.01674   0.00000  Uiso   1.00
C99    C     0.78248   0.57284   0.01943   0.00000  Uiso   1.00
C100   C     0.80969   0.57640   0.99627   0.00000  Uiso   1.00
C101   C     0.86657   0.57857   0.96487   0.00000  Uiso   1.00
C102   C     0.70533   0.62806   0.03864   0.00000  Uiso   1.00
C103   C     0.71863   0.66254   0.05974   0.00000  Uiso   1.00
C104   C     0.71663   0.70712   0.05501   0.00000  Uiso   1.00
C105   C     0.71964   0.78494   0.05761   0.00000  Uiso   1.00
C106   C     0.67768   0.59489   0.99348   0.00000  Uiso   1.00
C107   C     0.63581   0.54557   0.00643   0.00000  Uiso   1.00
C108   C     0.58774   0.51258   0.99556   0.00000  Uiso   1.00
C109   C     0.88824   0.13613   0.67720   0.00000  Uiso   1.00
C110   C     0.72527   0.58906   0.99180   0.00000  Uiso   1.00
C111   C     0.75242   0.59263   0.96862   0.00000  Uiso   1.00
C112   C     0.79491   0.58613   0.97128   0.00000  Uiso   1.00
C113   C     0.69057   0.63778   0.01369   0.00000  Uiso   1.00
C114   C     0.68856   0.68233   0.00893   0.00000  Uiso   1.00
C115   C     0.70185   0.71686   0.03002   0.00000  Uiso   1.00
H116   H     0.71634   0.56943   0.05883   0.00000  Uiso   1.00
H117   H     0.96257   0.15194   0.73234   0.00000  Uiso   1.00
H118   H     0.79390   0.56532   0.03874   0.00000  Uiso   1.00
H119   H     0.73004   0.65500   0.07904   0.00000  Uiso   1.00
H120   H     0.85950   0.06290   0.72892   0.00000  Uiso   1.00
H121   H     0.87337   0.56504   0.00547   0.00000  Uiso   1.00
H122   H     0.73873   0.75415   0.09045   0.00000  Uiso   1.00
H123   H     0.66619   0.60246   0.97406   0.00000  Uiso   1.00
H124   H     0.57633   0.52011   0.97626   0.00000  Uiso   1.00
H125   H     0.74099   0.60016   0.94933   0.00000  Uiso   1.00
H126   H     0.67714   0.68984   0.98963   0.00000  Uiso   1.00
H127   H     0.81656   0.09118   0.65635   0.00000  Uiso   1.00
H128   H     0.83044   0.59332   0.93290   0.00000  Uiso   1.00
H129   H     0.69579   0.78243   0.01788   0.00000  Uiso   1.00
O130   O     0.77983   0.02226   0.69560   0.00000  Uiso   1.00
O131   O     0.90203   0.57707   0.95444   0.00000  Uiso   1.00
O132   O     0.72537   0.82518   0.06593   0.00000  Uiso   1.00
N133   N     0.86172   0.08087   0.71154   0.00000  Uiso   1.00
N134   N     0.85300   0.57201   0.99179   0.00000  Uiso   1.00
N135   N     0.72713   0.74882   0.07124   0.00000  Uiso   1.00
N136   N     0.83861   0.09608   0.67249   0.00000  Uiso   1.00
N137   N     0.82990   0.58723   0.95274   0.00000  Uiso   1.00
N138   N     0.70403   0.76404   0.03218   0.00000  Uiso   1.00
C139   C     0.08967   0.46118   0.37274   0.00000  Uiso   1.00
C140   C     0.13081   0.44804   0.36471   0.00000  Uiso   1.00
C141   C     0.50722   0.12502   0.04637   0.00000  Uiso   1.00
C142   C     0.54027   0.10997   0.03553   0.00000  Uiso   1.00
C143   C     0.60565   0.09332   0.02684   0.00000  Uiso   1.00
C144   C     0.08733   0.49402   0.35007   0.00000  Uiso   1.00
C145   C     0.09383   0.54298   0.35277   0.00000  Uiso   1.00
C146   C     0.09027   0.56663   0.32961   0.00000  Uiso   1.00
C147   C     0.08810   0.62134   0.29820   0.00000  Uiso   1.00
C148   C     0.03860   0.41060   0.37197   0.00000  Uiso   1.00
C149   C     0.00413   0.38942   0.39308   0.00000  Uiso   1.00
C150   C     0.95954   0.34284   0.38835   0.00000  Uiso   1.00
C151   C     0.88173   0.26803   0.39094   0.00000  Uiso   1.00
C152   C     0.07177   0.41612   0.32682   0.00000  Uiso   1.00
C153   C     0.12109   0.42357   0.33976   0.00000  Uiso   1.00
C154   C     0.15409   0.40850   0.32889   0.00000  Uiso   1.00
C155   C     0.53054   0.08544   0.01054   0.00000  Uiso   1.00
C156   C     0.07761   0.46955   0.32513   0.00000  Uiso   1.00
C157   C     0.07403   0.49313   0.30196   0.00000  Uiso   1.00
C158   C     0.08053   0.54211   0.30462   0.00000  Uiso   1.00
C159   C     0.02888   0.38612   0.34703   0.00000  Uiso   1.00
C160   C     0.98434   0.33957   0.34226   0.00000  Uiso   1.00
C161   C     0.94981   0.31832   0.36336   0.00000  Uiso   1.00
H162   H     0.09723   0.48024   0.39216   0.00000  Uiso   1.00
H163   H     0.51473   0.14396   0.06567   0.00000  Uiso   1.00
H164   H     0.10134   0.56191   0.37207   0.00000  Uiso   1.00
H165   H     0.01167   0.40838   0.41238   0.00000  Uiso   1.00
H166   H     0.60376   0.12993   0.06225   0.00000  Uiso   1.00
H167   H     0.10162   0.64166   0.33880   0.00000  Uiso   1.00
H168   H     0.91251   0.31791   0.42379   0.00000  Uiso   1.00
H169   H     0.06421   0.39706   0.30740   0.00000  Uiso   1.00
H170   H     0.14656   0.38956   0.30959   0.00000  Uiso   1.00
H171   H     0.06651   0.47417   0.28266   0.00000  Uiso   1.00
H172   H     0.97683   0.32064   0.32296   0.00000  Uiso   1.00
H173   H     0.57549   0.05872   0.98968   0.00000  Uiso   1.00
H174   H     0.07335   0.57045   0.26623   0.00000  Uiso   1.00
H175   H     0.88424   0.24670   0.35121   0.00000  Uiso   1.00
O176   O     0.64440   0.09090   0.02894   0.00000  Uiso   1.00
O177   O     0.08959   0.65829   0.28777   0.00000  Uiso   1.00
O178   O     0.84149   0.23353   0.39927   0.00000  Uiso   1.00
N179   N     0.58580   0.11419   0.04488   0.00000  Uiso   1.00
N180   N     0.09465   0.61432   0.32512   0.00000  Uiso   1.00
N181   N     0.91784   0.31164   0.40457   0.00000  Uiso   1.00
N182   N     0.57059   0.07587   0.00582   0.00000  Uiso   1.00
N183   N     0.07944   0.57600   0.28607   0.00000  Uiso   1.00
N184   N     0.90263   0.27332   0.36552   0.00000  Uiso   1.00
C185   C     0.75633   0.79451   0.70608   0.00000  Uiso   1.00
C186   C     0.79748   0.78138   0.69804   0.00000  Uiso   1.00
C187   C     0.17388   0.45835   0.37970   0.00000  Uiso   1.00
C188   C     0.20694   0.44330   0.36886   0.00000  Uiso   1.00
C189   C     0.27232   0.42665   0.36017   0.00000  Uiso   1.00
C190   C     0.75399   0.82735   0.68341   0.00000  Uiso   1.00
C191   C     0.76050   0.87631   0.68610   0.00000  Uiso   1.00
C192   C     0.75694   0.89996   0.66294   0.00000  Uiso   1.00
C193   C     0.75477   0.95467   0.63154   0.00000  Uiso   1.00
C194   C     0.70527   0.74393   0.70531   0.00000  Uiso   1.00
C195   C     0.67080   0.72276   0.72641   0.00000  Uiso   1.00
C196   C     0.62621   0.67617   0.72168   0.00000  Uiso   1.00
C197   C     0.54839   0.60136   0.72428   0.00000  Uiso   1.00
C198   C     0.73844   0.74945   0.66015   0.00000  Uiso   1.00
C199   C     0.78776   0.75690   0.67310   0.00000  Uiso   1.00
C200   C     0.82076   0.74183   0.66223   0.00000  Uiso   1.00
C201   C     0.19720   0.41878   0.34387   0.00000  Uiso   1.00
C202   C     0.74427   0.80288   0.65846   0.00000  Uiso   1.00
C203   C     0.74070   0.82646   0.63529   0.00000  Uiso   1.00
C204   C     0.74720   0.87544   0.63795   0.00000  Uiso   1.00
C205   C     0.69555   0.71946   0.68036   0.00000  Uiso   1.00
C206   C     0.65101   0.67290   0.67560   0.00000  Uiso   1.00
C207   C     0.61648   0.65166   0.69669   0.00000  Uiso   1.00
H208   H     0.76390   0.81357   0.72549   0.00000  Uiso   1.00
H209   H     0.18139   0.47730   0.39901   0.00000  Uiso   1.00
H210   H     0.76801   0.89524   0.70541   0.00000  Uiso   1.00
H211   H     0.67833   0.74171   0.74571   0.00000  Uiso   1.00
H212   H     0.27043   0.46326   0.39559   0.00000  Uiso   1.00
H213   H     0.76829   0.97500   0.67214   0.00000  Uiso   1.00
H214   H     0.57918   0.65124   0.75712   0.00000  Uiso   1.00
H215   H     0.73087   0.73040   0.64073   0.00000  Uiso   1.00
H216   H     0.81323   0.72289   0.64292   0.00000  Uiso   1.00
H217   H     0.73318   0.80750   0.61599   0.00000  Uiso   1.00
H218   H     0.64350   0.65397   0.65629   0.00000  Uiso   1.00
H219   H     0.24216   0.39205   0.32301   0.00000  Uiso   1.00
H220   H     0.74002   0.90379   0.59956   0.00000  Uiso   1.00
H221   H     0.55091   0.58003   0.68455   0.00000  Uiso   1.00
O222   O     0.31107   0.42423   0.36227   0.00000  Uiso   1.00
O223   O     0.75626   0.99162   0.62111   0.00000  Uiso   1.00
O224   O     0.50816   0.56686   0.73260   0.00000  Uiso   1.00
N225   N     0.25247   0.44752   0.37821   0.00000  Uiso   1.00
N226   N     0.76132   0.94766   0.65845   0.00000  Uiso   1.00
N227   N     0.58451   0.64498   0.73790   0.00000  Uiso   1.00
N228   N     0.23725   0.40920   0.33916   0.00000  Uiso   1.00
N229   N     0.74611   0.90934   0.61940   0.00000  Uiso   1.00
N230   N     0.56930   0.60666   0.69885   0.00000  Uiso   1.00
C231   C     0.42300   0.12785   0.03941   0.00000  Uiso   1.00
C232   C     0.46415   0.11471   0.03137   0.00000  Uiso   1.00
C233   C     0.84055   0.79168   0.71304   0.00000  Uiso   1.00
C234   C     0.87361   0.77663   0.70219   0.00000  Uiso   1.00
C235   C     0.93899   0.75998   0.69350   0.00000  Uiso   1.00
C236   C     0.42066   0.16069   0.01674   0.00000  Uiso   1.00
C237   C     0.42716   0.20965   0.01943   0.00000  Uiso   1.00
C238   C     0.42360   0.23329   0.99627   0.00000  Uiso   1.00
C239   C     0.42143   0.28801   0.96487   0.00000  Uiso   1.00
C240   C     0.37194   0.07727   0.03864   0.00000  Uiso   1.00
C241   C     0.33746   0.05609   0.05974   0.00000  Uiso   1.00
C242   C     0.29288   0.00951   0.05501   0.00000  Uiso   1.00
C243   C     0.21506   0.93470   0.05761   0.00000  Uiso   1.00
C244   C     0.40511   0.08279   0.99348   0.00000  Uiso   1.00
C245   C     0.45443   0.09024   0.00643   0.00000  Uiso   1.00
C246   C     0.48742   0.07516   0.99556   0.00000  Uiso   1.00
C247   C     0.86387   0.75211   0.67720   0.00000  Uiso   1.00
C248   C     0.41094   0.13621   0.99180   0.00000  Uiso   1.00
C249   C     0.40737   0.15979   0.96862   0.00000  Uiso   1.00
C250   C     0.41387   0.20878   0.97128   0.00000  Uiso   1.00
C251   C     0.36222   0.05279   0.01369   0.00000  Uiso   1.00
C252   C     0.31767   0.00623   0.00893   0.00000  Uiso   1.00
C253   C     0.28314   0.98499   0.03002   0.00000  Uiso   1.00
H254   H     0.43057   0.14690   0.05883   0.00000  Uiso   1.00
H255   H     0.84806   0.81063   0.73234   0.00000  Uiso   1.00
H256   H     0.43468   0.22858   0.03874   0.00000  Uiso   1.00
H257   H     0.34500   0.07504   0.07904   0.00000  Uiso   1.00
H258   H     0.93710   0.79659   0.72892   0.00000  Uiso   1.00
H259   H     0.43496   0.30833   0.00547   0.00000  Uiso   1.00
H260   H     0.24585   0.98457   0.09045   0.00000  Uiso   1.00
H261   H     0.39754   0.06373   0.97406   0.00000  Uiso   1.00
H262   H     0.47989   0.05622   0.97626   0.00000  Uiso   1.00
H263   H     0.39984   0.14084   0.94933   0.00000  Uiso   1.00
H264   H     0.31016   0.98730   0.98963   0.00000  Uiso   1.00
H265   H     0.90882   0.72538   0.65635   0.00000  Uiso   1.00
H266   H     0.40668   0.23712   0.93290   0.00000  Uiso   1.00
H267   H     0.21757   0.91336   0.01788   0.00000  Uiso   1.00
O268   O     0.97774   0.75757   0.69560   0.00000  Uiso   1.00
O269   O     0.42293   0.32495   0.95444   0.00000  Uiso   1.00
O270   O     0.17482   0.90019   0.06593   0.00000  Uiso   1.00
N271   N     0.91913   0.78085   0.71154   0.00000  Uiso   1.00
N272   N     0.42799   0.28099   0.99179   0.00000  Uiso   1.00
N273   N     0.25118   0.97831   0.07124   0.00000  Uiso   1.00
N274   N     0.90392   0.74254   0.67249   0.00000  Uiso   1.00
N275   N     0.41277   0.24267   0.95274   0.00000  Uiso   1.00
N276   N     0.23596   0.93999   0.03218   0.00000  Uiso   1.00
C277   C     0.53882   0.62849   0.37274   0.00000  Uiso   1.00
C278   C     0.55196   0.68277   0.36471   0.00000  Uiso   1.00
C279   C     0.87498   0.38220   0.04637   0.00000  Uiso   1.00
C280   C     0.89003   0.43031   0.03553   0.00000  Uiso   1.00
C281   C     0.90668   0.51234   0.02684   0.00000  Uiso   1.00
C282   C     0.50598   0.59330   0.35007   0.00000  Uiso   1.00
C283   C     0.45702   0.55085   0.35277   0.00000  Uiso   1.00
C284   C     0.43337   0.52364   0.32961   0.00000  Uiso   1.00
C285   C     0.37866   0.46676   0.29820   0.00000  Uiso   1.00
C286   C     0.58940   0.62800   0.37197   0.00000  Uiso   1.00
C287   C     0.61058   0.61471   0.39308   0.00000  Uiso   1.00
C288   C     0.65716   0.61670   0.38835   0.00000  Uiso   1.00
C289   C     0.73197   0.61369   0.39094   0.00000  Uiso   1.00
C290   C     0.58388   0.65566   0.32682   0.00000  Uiso   1.00
C291   C     0.57643   0.69752   0.33976   0.00000  Uiso   1.00
C292   C     0.59150   0.74559   0.32889   0.00000  Uiso   1.00
C293   C     0.91456   0.44509   0.01054   0.00000  Uiso   1.00
C294   C     0.53045   0.60806   0.32513   0.00000  Uiso   1.00
C295   C     0.50687   0.58091   0.30196   0.00000  Uiso   1.00
C296   C     0.45789   0.53843   0.30462   0.00000  Uiso   1.00
C297   C     0.61388   0.64276   0.34703   0.00000  Uiso   1.00
C298   C     0.66043   0.64477   0.34226   0.00000  Uiso   1.00
C299   C     0.68168   0.63149   0.36336   0.00000  Uiso   1.00
H300   H     0.51976   0.61699   0.39216   0.00000  Uiso   1.00
H301   H     0.85604   0.37076   0.06567   0.00000  Uiso   1.00
H302   H     0.43809   0.53944   0.37207   0.00000  Uiso   1.00
H303   H     0.59162   0.60329   0.41238   0.00000  Uiso   1.00
H304   H     0.87007   0.47383   0.06225   0.00000  Uiso   1.00
H305   H     0.35834   0.45996   0.33880   0.00000  Uiso   1.00
H306   H     0.68209   0.59461   0.42379   0.00000  Uiso   1.00
H307   H     0.60294   0.66714   0.30740   0.00000  Uiso   1.00
H308   H     0.61044   0.75700   0.30959   0.00000  Uiso   1.00
H309   H     0.52583   0.59234   0.28266   0.00000  Uiso   1.00
H310   H     0.67936   0.65619   0.32296   0.00000  Uiso   1.00
H311   H     0.94128   0.51677   0.98968   0.00000  Uiso   1.00
H312   H     0.42955   0.50290   0.26623   0.00000  Uiso   1.00
H313   H     0.75330   0.63755   0.35121   0.00000  Uiso   1.00
O314   O     0.90910   0.55350   0.02894   0.00000  Uiso   1.00
O315   O     0.34171   0.43131   0.28777   0.00000  Uiso   1.00
O316   O     0.76647   0.60796   0.39927   0.00000  Uiso   1.00
N317   N     0.88581   0.47161   0.04488   0.00000  Uiso   1.00
N318   N     0.38568   0.48033   0.32512   0.00000  Uiso   1.00
N319   N     0.68836   0.60620   0.40457   0.00000  Uiso   1.00
N320   N     0.92413   0.49472   0.00582   0.00000  Uiso   1.00
N321   N     0.42400   0.50344   0.28607   0.00000  Uiso   1.00
N322   N     0.72668   0.62931   0.36552   0.00000  Uiso   1.00
C323   C     0.20549   0.96182   0.70608   0.00000  Uiso   1.00
C324   C     0.21862   0.01610   0.69804   0.00000  Uiso   1.00
C325   C     0.54165   0.71553   0.37970   0.00000  Uiso   1.00
C326   C     0.55670   0.76364   0.36886   0.00000  Uiso   1.00
C327   C     0.57335   0.84567   0.36017   0.00000  Uiso   1.00
C328   C     0.17265   0.92664   0.68341   0.00000  Uiso   1.00
C329   C     0.12369   0.88418   0.68610   0.00000  Uiso   1.00
C330   C     0.10004   0.85698   0.66294   0.00000  Uiso   1.00
C331   C     0.04533   0.80009   0.63154   0.00000  Uiso   1.00
C332   C     0.25607   0.96134   0.70531   0.00000  Uiso   1.00
C333   C     0.27724   0.94804   0.72641   0.00000  Uiso   1.00
C334   C     0.32383   0.95004   0.72168   0.00000  Uiso   1.00
C335   C     0.39864   0.94703   0.72428   0.00000  Uiso   1.00
C336   C     0.25055   0.98899   0.66015   0.00000  Uiso   1.00
C337   C     0.24310   0.03086   0.67310   0.00000  Uiso   1.00
C338   C     0.25817   0.07893   0.66223   0.00000  Uiso   1.00
C339   C     0.58122   0.77843   0.34387   0.00000  Uiso   1.00
C340   C     0.19712   0.94139   0.65846   0.00000  Uiso   1.00
C341   C     0.17354   0.91424   0.63529   0.00000  Uiso   1.00
C342   C     0.12456   0.87176   0.63795   0.00000  Uiso   1.00
C343   C     0.28054   0.97609   0.68036   0.00000  Uiso   1.00
C344   C     0.32710   0.97811   0.67560   0.00000  Uiso   1.00
C345   C     0.34834   0.96482   0.69669   0.00000  Uiso   1.00
H346   H     0.18643   0.95033   0.72549   0.00000  Uiso   1.00
H347   H     0.52270   0.70410   0.39901   0.00000  Uiso   1.00
H348   H     0.10476   0.87277   0.70541   0.00000  Uiso   1.00
H349   H     0.25829   0.93662   0.74571   0.00000  Uiso   1.00
H350   H     0.53674   0.80717   0.39559   0.00000  Uiso   1.00
H351   H     0.02500   0.79329   0.67214   0.00000  Uiso   1.00
H352   H     0.34876   0.92794   0.75712   0.00000  Uiso   1.00
H353   H     0.26960   0.00048   0.64073   0.00000  Uiso   1.00
H354   H     0.27711   0.09034   0.64292   0.00000  Uiso   1.00
H355   H     0.19250   0.92567   0.61599   0.00000  Uiso   1.00
H356   H     0.34603   0.98953   0.65629   0.00000  Uiso   1.00
H357   H     0.60795   0.85011   0.32301   0.00000  Uiso   1.00
H358   H     0.09621   0.83623   0.59956   0.00000  Uiso   1.00
H359   H     0.41997   0.97088   0.68455   0.00000  Uiso   1.00
O360   O     0.57577   0.88684   0.36227   0.00000  Uiso   1.00
O361   O     0.00838   0.76464   0.62111   0.00000  Uiso   1.00
O362   O     0.43314   0.94130   0.73260   0.00000  Uiso   1.00
N363   N     0.55248   0.80495   0.37821   0.00000  Uiso   1.00
N364   N     0.05234   0.81366   0.65845   0.00000  Uiso   1.00
N365   N     0.35502   0.93953   0.73790   0.00000  Uiso   1.00
N366   N     0.59080   0.82805   0.33916   0.00000  Uiso   1.00
N367   N     0.09066   0.83677   0.61940   0.00000  Uiso   1.00
N368   N     0.39334   0.96264   0.69885   0.00000  Uiso   1.00
C369   C     0.87215   0.29515   0.03941   0.00000  Uiso   1.00
C370   C     0.88529   0.34943   0.03137   0.00000  Uiso   1.00
C371   C     0.20832   0.04887   0.71304   0.00000  Uiso   1.00
C372   C     0.22337   0.09697   0.70219   0.00000  Uiso   1.00
C373   C     0.24002   0.17900   0.69350   0.00000  Uiso   1.00
C374   C     0.83931   0.25997   0.01674   0.00000  Uiso   1.00
C375   C     0.79035   0.21752   0.01943   0.00000  Uiso   1.00
C376   C     0.76671   0.19031   0.99627   0.00000  Uiso   1.00
C377   C     0.71199   0.13343   0.96487   0.00000  Uiso   1.00
C378   C     0.92273   0.29467   0.03864   0.00000  Uiso   1.00
C379   C     0.94391   0.28137   0.05974   0.00000  Uiso   1.00
C380   C     0.99049   0.28337   0.05501   0.00000  Uiso   1.00
C381   C     0.06530   0.28036   0.05761   0.00000  Uiso   1.00
C382   C     0.91721   0.32232   0.99348   0.00000  Uiso   1.00
C383   C     0.90976   0.36419   0.00643   0.00000  Uiso   1.00
C384   C     0.92484   0.41226   0.99556   0.00000  Uiso   1.00
C385   C     0.24789   0.11176   0.67720   0.00000  Uiso   1.00
C386   C     0.86379   0.27473   0.99180   0.00000  Uiso   1.00
C387   C     0.84021   0.24758   0.96862   0.00000  Uiso   1.00
C388   C     0.79122   0.20509   0.97128   0.00000  Uiso   1.00
C389   C     0.94721   0.30943   0.01369   0.00000  Uiso   1.00
C390   C     0.99377   0.31144   0.00893   0.00000  Uiso   1.00
C391   C     0.01501   0.29815   0.03002   0.00000  Uiso   1.00
H392   H     0.85310   0.28366   0.05883   0.00000  Uiso   1.00
H393   H     0.18937   0.03743   0.73234   0.00000  Uiso   1.00
H394   H     0.77142   0.20610   0.03874   0.00000  Uiso   1.00
H395   H     0.92496   0.26996   0.07904   0.00000  Uiso   1.00
H396   H     0.20341   0.14050   0.72892   0.00000  Uiso   1.00
H397   H     0.69167   0.12663   0.00547   0.00000  Uiso   1.00
H398   H     0.01543   0.26127   0.09045   0.00000  Uiso   1.00
H399   H     0.93627   0.33381   0.97406   0.00000  Uiso   1.00
H400   H     0.94378   0.42367   0.97626   0.00000  Uiso   1.00
H401   H     0.85916   0.25901   0.94933   0.00000  Uiso   1.00
H402   H     0.01270   0.32286   0.98963   0.00000  Uiso   1.00
H403   H     0.27462   0.18344   0.65635   0.00000  Uiso   1.00
H404   H     0.76288   0.16956   0.93290   0.00000  Uiso   1.00
H405   H     0.08664   0.30421   0.01788   0.00000  Uiso   1.00
O406   O     0.24243   0.22017   0.69560   0.00000  Uiso   1.00
O407   O     0.67505   0.09797   0.95444   0.00000  Uiso   1.00
O408   O     0.09981   0.27463   0.06593   0.00000  Uiso   1.00
N409   N     0.21915   0.13828   0.71154   0.00000  Uiso   1.00
N410   N     0.71901   0.14700   0.99179   0.00000  Uiso   1.00
N411   N     0.02169   0.27287   0.07124   0.00000  Uiso   1.00
N412   N     0.25746   0.16139   0.67249   0.00000  Uiso   1.00
N413   N     0.75733   0.17010   0.95274   0.00000  Uiso   1.00
N414   N     0.06001   0.29597   0.03218   0.00000  Uiso   1.00
C415   C     0.91033   0.37151   0.12726   0.00000  Uiso   1.00
C416   C     0.86919   0.31723   0.13529   0.00000  Uiso   1.00
C417   C     0.49278   0.61780   0.45363   0.00000  Uiso   1.00
C418   C     0.45973   0.56969   0.46447   0.00000  Uiso   1.00
C419   C     0.39435   0.48766   0.47316   0.00000  Uiso   1.00
C420   C     0.91267   0.40670   0.14993   0.00000  Uiso   1.00
C421   C     0.90617   0.44915   0.14723   0.00000  Uiso   1.00
C422   C     0.90973   0.47636   0.17039   0.00000  Uiso   1.00
C423   C     0.91190   0.53324   0.20180   0.00000  Uiso   1.00
C424   C     0.96140   0.37200   0.12803   0.00000  Uiso   1.00
C425   C     0.99587   0.38529   0.10692   0.00000  Uiso   1.00
C426   C     0.04046   0.38330   0.11165   0.00000  Uiso   1.00
C427   C     0.11827   0.38631   0.10906   0.00000  Uiso   1.00
C428   C     0.92823   0.34434   0.17318   0.00000  Uiso   1.00
C429   C     0.87891   0.30248   0.16024   0.00000  Uiso   1.00
C430   C     0.84591   0.25441   0.17111   0.00000  Uiso   1.00
C431   C     0.46946   0.55491   0.48946   0.00000  Uiso   1.00
C432   C     0.92239   0.39194   0.17487   0.00000  Uiso   1.00
C433   C     0.92597   0.41909   0.19804   0.00000  Uiso   1.00
C434   C     0.91947   0.46157   0.19538   0.00000  Uiso   1.00
C435   C     0.97112   0.35724   0.15297   0.00000  Uiso   1.00
C436   C     0.01566   0.35523   0.15774   0.00000  Uiso   1.00
C437   C     0.05019   0.36851   0.13664   0.00000  Uiso   1.00
H438   H     0.90277   0.38301   0.10784   0.00000  Uiso   1.00
H439   H     0.48527   0.62924   0.43433   0.00000  Uiso   1.00
H440   H     0.89866   0.46056   0.12793   0.00000  Uiso   1.00
H441   H     0.98833   0.39671   0.08762   0.00000  Uiso   1.00
H442   H     0.39624   0.52617   0.43775   0.00000  Uiso   1.00
H443   H     0.89838   0.54004   0.16120   0.00000  Uiso   1.00
H444   H     0.08749   0.40539   0.07621   0.00000  Uiso   1.00
H445   H     0.93579   0.33286   0.19260   0.00000  Uiso   1.00
H446   H     0.85344   0.24300   0.19041   0.00000  Uiso   1.00
H447   H     0.93349   0.40766   0.21734   0.00000  Uiso   1.00
H448   H     0.02317   0.34381   0.17704   0.00000  Uiso   1.00
H449   H     0.42451   0.48323   0.51032   0.00000  Uiso   1.00
H450   H     0.92665   0.49710   0.23377   0.00000  Uiso   1.00
H451   H     0.11576   0.36245   0.14879   0.00000  Uiso   1.00
O452   O     0.35560   0.44650   0.47106   0.00000  Uiso   1.00
O453   O     0.91041   0.56869   0.21223   0.00000  Uiso   1.00
O454   O     0.15851   0.39204   0.10073   0.00000  Uiso   1.00
N455   N     0.41420   0.52839   0.45512   0.00000  Uiso   1.00
N456   N     0.90535   0.51967   0.17488   0.00000  Uiso   1.00
N457   N     0.08216   0.39380   0.09543   0.00000  Uiso   1.00
N458   N     0.42941   0.50528   0.49418   0.00000  Uiso   1.00
N459   N     0.92056   0.49656   0.21393   0.00000  Uiso   1.00
N460   N     0.09737   0.37069   0.13448   0.00000  Uiso   1.00
C461   C     0.57700   0.70485   0.46059   0.00000  Uiso   1.00
C462   C     0.53585   0.65057   0.46863   0.00000  Uiso   1.00
C463   C     0.15945   0.95113   0.78696   0.00000  Uiso   1.00
C464   C     0.12639   0.90303   0.79781   0.00000  Uiso   1.00
C465   C     0.06101   0.82100   0.80650   0.00000  Uiso   1.00
C466   C     0.57934   0.74003   0.48326   0.00000  Uiso   1.00
C467   C     0.57284   0.78248   0.48057   0.00000  Uiso   1.00
C468   C     0.57640   0.80969   0.50373   0.00000  Uiso   1.00
C469   C     0.57857   0.86657   0.53513   0.00000  Uiso   1.00
C470   C     0.62806   0.70533   0.46136   0.00000  Uiso   1.00
C471   C     0.66254   0.71863   0.44026   0.00000  Uiso   1.00
C472   C     0.70712   0.71663   0.44499   0.00000  Uiso   1.00
C473   C     0.78494   0.71964   0.44239   0.00000  Uiso   1.00
C474   C     0.59489   0.67768   0.50652   0.00000  Uiso   1.00
C475   C     0.54557   0.63581   0.49357   0.00000  Uiso   1.00
C476   C     0.51258   0.58774   0.50444   0.00000  Uiso   1.00
C477   C     0.13613   0.88824   0.82280   0.00000  Uiso   1.00
C478   C     0.58906   0.72527   0.50820   0.00000  Uiso   1.00
C479   C     0.59263   0.75242   0.53138   0.00000  Uiso   1.00
C480   C     0.58613   0.79491   0.52872   0.00000  Uiso   1.00
C481   C     0.63778   0.69057   0.48631   0.00000  Uiso   1.00
C482   C     0.68233   0.68856   0.49107   0.00000  Uiso   1.00
C483   C     0.71686   0.70185   0.46998   0.00000  Uiso   1.00
H484   H     0.56943   0.71634   0.44117   0.00000  Uiso   1.00
H485   H     0.15194   0.96257   0.76766   0.00000  Uiso   1.00
H486   H     0.56532   0.79390   0.46126   0.00000  Uiso   1.00
H487   H     0.65500   0.73004   0.42096   0.00000  Uiso   1.00
H488   H     0.06290   0.85950   0.77108   0.00000  Uiso   1.00
H489   H     0.56504   0.87337   0.49453   0.00000  Uiso   1.00
H490   H     0.75415   0.73873   0.40955   0.00000  Uiso   1.00
H491   H     0.60246   0.66619   0.52594   0.00000  Uiso   1.00
H492   H     0.52011   0.57633   0.52374   0.00000  Uiso   1.00
H493   H     0.60016   0.74099   0.55067   0.00000  Uiso   1.00
H494   H     0.68984   0.67714   0.51037   0.00000  Uiso   1.00
H495   H     0.09118   0.81656   0.84365   0.00000  Uiso   1.00
H496   H     0.59332   0.83044   0.56710   0.00000  Uiso   1.00
H497   H     0.78243   0.69579   0.48212   0.00000  Uiso   1.00
O498   O     0.02226   0.77983   0.80440   0.00000  Uiso   1.00
O499   O     0.57707   0.90203   0.54556   0.00000  Uiso   1.00
O500   O     0.82518   0.72537   0.43407   0.00000  Uiso   1.00
N501   N     0.08087   0.86172   0.78846   0.00000  Uiso   1.00
N502   N     0.57201   0.85300   0.50821   0.00000  Uiso   1.00
N503   N     0.74882   0.72713   0.42876   0.00000  Uiso   1.00
N504   N     0.09608   0.83861   0.82751   0.00000  Uiso   1.00
N505   N     0.58723   0.82990   0.54726   0.00000  Uiso   1.00
N506   N     0.76404   0.70403   0.46782   0.00000  Uiso   1.00
C507   C     0.24367   0.03818   0.79392   0.00000  Uiso   1.00
C508   C     0.20252   0.98390   0.80196   0.00000  Uiso   1.00
C509   C     0.82612   0.28447   0.12030   0.00000  Uiso   1.00
C510   C     0.79306   0.23636   0.13114   0.00000  Uiso   1.00
C511   C     0.72768   0.15433   0.13983   0.00000  Uiso   1.00
C512   C     0.24601   0.07336   0.81659   0.00000  Uiso   1.00
C513   C     0.23950   0.11582   0.81390   0.00000  Uiso   1.00
C514   C     0.24306   0.14302   0.83706   0.00000  Uiso   1.00
C515   C     0.24523   0.19991   0.86846   0.00000  Uiso   1.00
C516   C     0.29473   0.03866   0.79469   0.00000  Uiso   1.00
C517   C     0.32920   0.05196   0.77359   0.00000  Uiso   1.00
C518   C     0.37379   0.04996   0.77832   0.00000  Uiso   1.00
C519   C     0.45161   0.05297   0.77572   0.00000  Uiso   1.00
C520   C     0.26156   0.01101   0.83985   0.00000  Uiso   1.00
C521   C     0.21224   0.96914   0.82690   0.00000  Uiso   1.00
C522   C     0.17924   0.92107   0.83777   0.00000  Uiso   1.00
C523   C     0.80280   0.22157   0.15613   0.00000  Uiso   1.00
C524   C     0.25573   0.05861   0.84154   0.00000  Uiso   1.00
C525   C     0.25930   0.08576   0.86471   0.00000  Uiso   1.00
C526   C     0.25280   0.12824   0.86205   0.00000  Uiso   1.00
C527   C     0.30445   0.02391   0.81964   0.00000  Uiso   1.00
C528   C     0.34899   0.02189   0.82440   0.00000  Uiso   1.00
C529   C     0.38352   0.03518   0.80331   0.00000  Uiso   1.00
H530   H     0.23610   0.04967   0.77451   0.00000  Uiso   1.00
H531   H     0.81861   0.29590   0.10099   0.00000  Uiso   1.00
H532   H     0.23199   0.12723   0.79459   0.00000  Uiso   1.00
H533   H     0.32167   0.06338   0.75429   0.00000  Uiso   1.00
H534   H     0.72957   0.19283   0.10441   0.00000  Uiso   1.00
H535   H     0.23171   0.20671   0.82786   0.00000  Uiso   1.00
H536   H     0.42082   0.07206   0.74288   0.00000  Uiso   1.00
H537   H     0.26913   0.99952   0.85927   0.00000  Uiso   1.00
H538   H     0.18677   0.90966   0.85708   0.00000  Uiso   1.00
H539   H     0.26682   0.07433   0.88401   0.00000  Uiso   1.00
H540   H     0.35650   0.01047   0.84371   0.00000  Uiso   1.00
H541   H     0.75784   0.14989   0.17699   0.00000  Uiso   1.00
H542   H     0.25998   0.16377   0.90044   0.00000  Uiso   1.00
H543   H     0.44909   0.02912   0.81545   0.00000  Uiso   1.00
O544   O     0.68893   0.11316   0.13773   0.00000  Uiso   1.00
O545   O     0.24374   0.23536   0.87889   0.00000  Uiso   1.00
O546   O     0.49184   0.05870   0.76740   0.00000  Uiso   1.00
N547   N     0.74753   0.19505   0.12179   0.00000  Uiso   1.00
N548   N     0.23868   0.18634   0.84155   0.00000  Uiso   1.00
N549   N     0.41549   0.06047   0.76210   0.00000  Uiso   1.00
N550   N     0.76275   0.17195   0.16084   0.00000  Uiso   1.00
N551   N     0.25389   0.16323   0.88060   0.00000  Uiso   1.00
N552   N     0.43070   0.03736   0.80115   0.00000  Uiso   1.00
C553   C     0.46118   0.08967   0.12726   0.00000  Uiso   1.00
C554   C     0.44804   0.13081   0.13529   0.00000  Uiso   1.00
C555   C     0.12502   0.50722   0.45363   0.00000  Uiso   1.00
C556   C     0.10997   0.54027   0.46447   0.00000  Uiso   1.00
C557   C     0.09332   0.60565   0.47316   0.00000  Uiso   1.00
C558   C     0.49402   0.08733   0.14993   0.00000  Uiso   1.00
C559   C     0.54298   0.09383   0.14723   0.00000  Uiso   1.00
C560   C     0.56663   0.09027   0.17039   0.00000  Uiso   1.00
C561   C     0.62134   0.08810   0.20180   0.00000  Uiso   1.00
C562   C     0.41060   0.03860   0.12803   0.00000  Uiso   1.00
C563   C     0.38942   0.00413   0.10692   0.00000  Uiso   1.00
C564   C     0.34284   0.95954   0.11165   0.00000  Uiso   1.00
C565   C     0.26803   0.88173   0.10906   0.00000  Uiso   1.00
C566   C     0.41612   0.07177   0.17318   0.00000  Uiso   1.00
C567   C     0.42357   0.12109   0.16024   0.00000  Uiso   1.00
C568   C     0.40850   0.15409   0.17111   0.00000  Uiso   1.00
C569   C     0.08544   0.53054   0.48946   0.00000  Uiso   1.00
C570   C     0.46955   0.07761   0.17487   0.00000  Uiso   1.00
C571   C     0.49313   0.07403   0.19804   0.00000  Uiso   1.00
C572   C     0.54211   0.08053   0.19538   0.00000  Uiso   1.00
C573   C     0.38612   0.02888   0.15297   0.00000  Uiso   1.00
C574   C     0.33957   0.98434   0.15774   0.00000  Uiso   1.00
C575   C     0.31832   0.94981   0.13664   0.00000  Uiso   1.00
H576   H     0.48024   0.09723   0.10784   0.00000  Uiso   1.00
H577   H     0.14396   0.51473   0.43433   0.00000  Uiso   1.00
H578   H     0.56191   0.10134   0.12793   0.00000  Uiso   1.00
H579   H     0.40838   0.01167   0.08762   0.00000  Uiso   1.00
H580   H     0.12993   0.60376   0.43775   0.00000  Uiso   1.00
H581   H     0.64166   0.10162   0.16120   0.00000  Uiso   1.00
H582   H     0.31791   0.91251   0.07621   0.00000  Uiso   1.00
H583   H     0.39706   0.06421   0.19260   0.00000  Uiso   1.00
H584   H     0.38956   0.14656   0.19041   0.00000  Uiso   1.00
H585   H     0.47417   0.06651   0.21734   0.00000  Uiso   1.00
H586   H     0.32064   0.97683   0.17704   0.00000  Uiso   1.00
H587   H     0.05872   0.57549   0.51032   0.00000  Uiso   1.00
H588   H     0.57045   0.07335   0.23377   0.00000  Uiso   1.00
H589   H     0.24670   0.88424   0.14879   0.00000  Uiso   1.00
O590   O     0.09090   0.64440   0.47106   0.00000  Uiso   1.00
O591   O     0.65829   0.08959   0.21223   0.00000  Uiso   1.00
O592   O     0.23353   0.84149   0.10073   0.00000  Uiso   1.00
N593   N     0.11419   0.58580   0.45512   0.00000  Uiso   1.00
N594   N     0.61432   0.09465   0.17488   0.00000  Uiso   1.00
N595   N     0.31164   0.91784   0.09543   0.00000  Uiso   1.00
N596   N     0.07587   0.57059   0.49418   0.00000  Uiso   1.00
N597   N     0.57600   0.07944   0.21393   0.00000  Uiso   1.00
N598   N     0.27332   0.90263   0.13448   0.00000  Uiso   1.00
C599   C     0.12785   0.42300   0.46059   0.00000  Uiso   1.00
C600   C     0.11471   0.46415   0.46863   0.00000  Uiso   1.00
C601   C     0.79168   0.84055   0.78696   0.00000  Uiso   1.00
C602   C     0.77663   0.87361   0.79781   0.00000  Uiso   1.00
C603   C     0.75998   0.93899   0.80650   0.00000  Uiso   1.00
C604   C     0.16069   0.42066   0.48326   0.00000  Uiso   1.00
C605   C     0.20965   0.42716   0.48057   0.00000  Uiso   1.00
C606   C     0.23329   0.42360   0.50373   0.00000  Uiso   1.00
C607   C     0.28801   0.42143   0.53513   0.00000  Uiso   1.00
C608   C     0.07727   0.37194   0.46136   0.00000  Uiso   1.00
C609   C     0.05609   0.33746   0.44026   0.00000  Uiso   1.00
C610   C     0.00951   0.29288   0.44499   0.00000  Uiso   1.00
C611   C     0.93470   0.21506   0.44239   0.00000  Uiso   1.00
C612   C     0.08279   0.40511   0.50652   0.00000  Uiso   1.00
C613   C     0.09024   0.45443   0.49357   0.00000  Uiso   1.00
C614   C     0.07516   0.48742   0.50444   0.00000  Uiso   1.00
C615   C     0.75211   0.86387   0.82280   0.00000  Uiso   1.00
C616   C     0.13621   0.41094   0.50820   0.00000  Uiso   1.00
C617   C     0.15979   0.40737   0.53138   0.00000  Uiso   1.00
C618   C     0.20878   0.41387   0.52872   0.00000  Uiso   1.00
C619   C     0.05279   0.36222   0.48631   0.00000  Uiso   1.00
C620   C     0.00623   0.31767   0.49107   0.00000  Uiso   1.00
C621   C     0.98499   0.28314   0.46998   0.00000  Uiso   1.00
H622   H     0.14690   0.43057   0.44117   0.00000  Uiso   1.00
H623   H     0.81063   0.84806   0.76766   0.00000  Uiso   1.00
H624   H     0.22858   0.43468   0.46126   0.00000  Uiso   1.00
H625   H     0.07504   0.34500   0.42096   0.00000  Uiso   1.00
H626   H     0.79659   0.93710   0.77108   0.00000  Uiso   1.00
H627   H     0.30833   0.43496   0.49453   0.00000  Uiso   1.00
H628   H     0.98457   0.24585   0.40955   0.00000  Uiso   1.00
H629   H     0.06373   0.39754   0.52594   0.00000  Uiso   1.00
H630   H     0.05622   0.47989   0.52374   0.00000  Uiso   1.00
H631   H     0.14084   0.39984   0.55067   0.00000  Uiso   1.00
H632   H     0.98730   0.31016   0.51037   0.00000  Uiso   1.00
H633   H     0.72538   0.90882   0.84365   0.00000  Uiso   1.00
H634   H     0.23712   0.40668   0.56710   0.00000  Uiso   1.00
H635   H     0.91336   0.21757   0.48212   0.00000  Uiso   1.00
O636   O     0.75757   0.97774   0.80440   0.00000  Uiso   1.00
O637   O     0.32495   0.42293   0.54556   0.00000  Uiso   1.00
O638   O     0.90019   0.17482   0.43407   0.00000  Uiso   1.00
N639   N     0.78085   0.91913   0.78846   0.00000  Uiso   1.00
N640   N     0.28099   0.42799   0.50821   0.00000  Uiso   1.00
N641   N     0.97831   0.25118   0.42876   0.00000  Uiso   1.00
N642   N     0.74254   0.90392   0.82751   0.00000  Uiso   1.00
N643   N     0.24267   0.41277   0.54726   0.00000  Uiso   1.00
N644   N     0.93999   0.23596   0.46782   0.00000  Uiso   1.00
C645   C     0.79451   0.75633   0.79392   0.00000  Uiso   1.00
C646   C     0.78138   0.79748   0.80196   0.00000  Uiso   1.00
C647   C     0.45835   0.17388   0.12030   0.00000  Uiso   1.00
C648   C     0.44330   0.20694   0.13114   0.00000  Uiso   1.00
C649   C     0.42665   0.27232   0.13983   0.00000  Uiso   1.00
C650   C     0.82735   0.75399   0.81659   0.00000  Uiso   1.00
C651   C     0.87631   0.76050   0.81390   0.00000  Uiso   1.00
C652   C     0.89996   0.75694   0.83706   0.00000  Uiso   1.00
C653   C     0.95467   0.75477   0.86846   0.00000  Uiso   1.00
C654   C     0.74393   0.70527   0.79469   0.00000  Uiso   1.00
C655   C     0.72276   0.67080   0.77359   0.00000  Uiso   1.00
C656   C     0.67617   0.62621   0.77832   0.00000  Uiso   1.00
C657   C     0.60136   0.54839   0.77572   0.00000  Uiso   1.00
C658   C     0.74945   0.73844   0.83985   0.00000  Uiso   1.00
C659   C     0.75690   0.78776   0.82690   0.00000  Uiso   1.00
C660   C     0.74183   0.82076   0.83777   0.00000  Uiso   1.00
C661   C     0.41878   0.19720   0.15613   0.00000  Uiso   1.00
C662   C     0.80288   0.74427   0.84154   0.00000  Uiso   1.00
C663   C     0.82646   0.74070   0.86471   0.00000  Uiso   1.00
C664   C     0.87544   0.74720   0.86205   0.00000  Uiso   1.00
C665   C     0.71946   0.69555   0.81964   0.00000  Uiso   1.00
C666   C     0.67290   0.65101   0.82440   0.00000  Uiso   1.00
C667   C     0.65166   0.61648   0.80331   0.00000  Uiso   1.00
H668   H     0.81357   0.76390   0.77451   0.00000  Uiso   1.00
H669   H     0.47730   0.18139   0.10099   0.00000  Uiso   1.00
H670   H     0.89524   0.76801   0.79459   0.00000  Uiso   1.00
H671   H     0.74171   0.67833   0.75429   0.00000  Uiso   1.00
H672   H     0.46326   0.27043   0.10441   0.00000  Uiso   1.00
H673   H     0.97500   0.76829   0.82786   0.00000  Uiso   1.00
H674   H     0.65124   0.57918   0.74288   0.00000  Uiso   1.00
H675   H     0.73040   0.73087   0.85927   0.00000  Uiso   1.00
H676   H     0.72289   0.81323   0.85708   0.00000  Uiso   1.00
H677   H     0.80750   0.73318   0.88401   0.00000  Uiso   1.00
H678   H     0.65397   0.64350   0.84371   0.00000  Uiso   1.00
H679   H     0.39205   0.24216   0.17699   0.00000  Uiso   1.00
H680   H     0.90379   0.74002   0.90044   0.00000  Uiso   1.00
H681   H     0.58003   0.55091   0.81545   0.00000  Uiso   1.00
O682   O     0.42423   0.31107   0.13773   0.00000  Uiso   1.00
O683   O     0.99162   0.75626   0.87889   0.00000  Uiso   1.00
O684   O     0.56686   0.50816   0.76740   0.00000  Uiso   1.00
N685   N     0.44752   0.25247   0.12179   0.00000  Uiso   1.00
N686   N     0.94766   0.76132   0.84155   0.00000  Uiso   1.00
N687   N     0.64498   0.58451   0.76210   0.00000  Uiso   1.00
N688   N     0.40920   0.23725   0.16084   0.00000  Uiso   1.00
N689   N     0.90934   0.74611   0.88060   0.00000  Uiso   1.00
N690   N     0.60666   0.56930   0.80115   0.00000  Uiso   1.00
C691   C     0.62849   0.53882   0.12726   0.00000  Uiso   1.00
C692   C     0.68277   0.55196   0.13529   0.00000  Uiso   1.00
C693   C     0.38220   0.87498   0.45363   0.00000  Uiso   1.00
C694   C     0.43031   0.89003   0.46447   0.00000  Uiso   1.00
C695   C     0.51234   0.90668   0.47316   0.00000  Uiso   1.00
C696   C     0.59330   0.50598   0.14993   0.00000  Uiso   1.00
C697   C     0.55085   0.45702   0.14723   0.00000  Uiso   1.00
C698   C     0.52364   0.43337   0.17039   0.00000  Uiso   1.00
C699   C     0.46676   0.37866   0.20180   0.00000  Uiso   1.00
C700   C     0.62800   0.58940   0.12803   0.00000  Uiso   1.00
C701   C     0.61471   0.61058   0.10692   0.00000  Uiso   1.00
C702   C     0.61670   0.65716   0.11165   0.00000  Uiso   1.00
C703   C     0.61369   0.73197   0.10906   0.00000  Uiso   1.00
C704   C     0.65566   0.58388   0.17318   0.00000  Uiso   1.00
C705   C     0.69752   0.57643   0.16024   0.00000  Uiso   1.00
C706   C     0.74559   0.59150   0.17111   0.00000  Uiso   1.00
C707   C     0.44509   0.91456   0.48946   0.00000  Uiso   1.00
C708   C     0.60806   0.53045   0.17487   0.00000  Uiso   1.00
C709   C     0.58091   0.50687   0.19804   0.00000  Uiso   1.00
C710   C     0.53843   0.45789   0.19538   0.00000  Uiso   1.00
C711   C     0.64276   0.61388   0.15297   0.00000  Uiso   1.00
C712   C     0.64477   0.66043   0.15774   0.00000  Uiso   1.00
C713   C     0.63149   0.68168   0.13664   0.00000  Uiso   1.00
H714   H     0.61699   0.51976   0.10784   0.00000  Uiso   1.00
H715   H     0.37076   0.85604   0.43433   0.00000  Uiso   1.00
H716   H     0.53944   0.43809   0.12793   0.00000  Uiso   1.00
H717   H     0.60329   0.59162   0.08762   0.00000  Uiso   1.00
H718   H     0.47383   0.87007   0.43775   0.00000  Uiso   1.00
H719   H     0.45996   0.35834   0.16120   0.00000  Uiso   1.00
H720   H     0.59461   0.68209   0.07621   0.00000  Uiso   1.00
H721   H     0.66714   0.60294   0.19260   0.00000  Uiso   1.00
H722   H     0.75700   0.61044   0.19041   0.00000  Uiso   1.00
H723   H     0.59234   0.52583   0.21734   0.00000  Uiso   1.00
H724   H     0.65619   0.67936   0.17704   0.00000  Uiso   1.00
H725   H     0.51677   0.94128   0.51032   0.00000  Uiso   1.00
H726   H     0.50290   0.42955   0.23377   0.00000  Uiso   1.00
H727   H     0.63755   0.75330   0.14879   0.00000  Uiso   1.00
O728   O     0.55350   0.90910   0.47106   0.00000  Uiso   1.00
O729   O     0.43131   0.34171   0.21223   0.00000  Uiso   1.00
O730   O     0.60796   0.76647   0.10073   0.00000  Uiso   1.00
N731   N     0.47161   0.88581   0.45512   0.00000  Uiso   1.00
N732   N     0.48033   0.38568   0.17488   0.00000  Uiso   1.00
N733   N     0.60620   0.68836   0.09543   0.00000  Uiso   1.00
N734   N     0.49472   0.92413   0.49418   0.00000  Uiso   1.00
N735   N     0.50344   0.42400   0.21393   0.00000  Uiso   1.00
N736   N     0.62931   0.72668   0.13448   0.00000  Uiso   1.00
C737   C     0.29515   0.87215   0.46059   0.00000  Uiso   1.00
C738   C     0.34943   0.88529   0.46863   0.00000  Uiso   1.00
C739   C     0.04887   0.20832   0.78696   0.00000  Uiso   1.00
C740   C     0.09697   0.22337   0.79781   0.00000  Uiso   1.00
C741   C     0.17900   0.24002   0.80650   0.00000  Uiso   1.00
C742   C     0.25997   0.83931   0.48326   0.00000  Uiso   1.00
C743   C     0.21752   0.79035   0.48057   0.00000  Uiso   1.00
C744   C     0.19031   0.76671   0.50373   0.00000  Uiso   1.00
C745   C     0.13343   0.71199   0.53513   0.00000  Uiso   1.00
C746   C     0.29467   0.92273   0.46136   0.00000  Uiso   1.00
C747   C     0.28137   0.94391   0.44026   0.00000  Uiso   1.00
C748   C     0.28337   0.99049   0.44499   0.00000  Uiso   1.00
C749   C     0.28036   0.06530   0.44239   0.00000  Uiso   1.00
C750   C     0.32232   0.91721   0.50652   0.00000  Uiso   1.00
C751   C     0.36419   0.90976   0.49357   0.00000  Uiso   1.00
C752   C     0.41226   0.92484   0.50444   0.00000  Uiso   1.00
C753   C     0.11176   0.24789   0.82280   0.00000  Uiso   1.00
C754   C     0.27473   0.86379   0.50820   0.00000  Uiso   1.00
C755   C     0.24758   0.84021   0.53138   0.00000  Uiso   1.00
C756   C     0.20509   0.79122   0.52872   0.00000  Uiso   1.00
C757   C     0.30943   0.94721   0.48631   0.00000  Uiso   1.00
C758   C     0.31144   0.99377   0.49107   0.00000  Uiso   1.00
C759   C     0.29815   0.01501   0.46998   0.00000  Uiso   1.00
H760   H     0.28366   0.85310   0.44117   0.00000  Uiso   1.00
H761   H     0.03743   0.18937   0.76766   0.00000  Uiso   1.00
H762   H     0.20610   0.77142   0.46126   0.00000  Uiso   1.00
H763   H     0.26996   0.92496   0.42096   0.00000  Uiso   1.00
H764   H     0.14050   0.20341   0.77108   0.00000  Uiso   1.00
H765   H     0.12663   0.69167   0.49453   0.00000  Uiso   1.00
H766   H     0.26127   0.01543   0.40955   0.00000  Uiso   1.00
H767   H     0.33381   0.93627   0.52594   0.00000  Uiso   1.00
H768   H     0.42367   0.94378   0.52374   0.00000  Uiso   1.00
H769   H     0.25901   0.85916   0.55067   0.00000  Uiso   1.00
H770   H     0.32286   0.01270   0.51037   0.00000  Uiso   1.00
H771   H     0.18344   0.27462   0.84365   0.00000  Uiso   1.00
H772   H     0.16956   0.76288   0.56710   0.00000  Uiso   1.00
H773   H     0.30421   0.08664   0.48212   0.00000  Uiso   1.00
O774   O     0.22017   0.24243   0.80440   0.00000  Uiso   1.00
O775   O     0.09797   0.67505   0.54556   0.00000  Uiso   1.00
O776   O     0.27463   0.09981   0.43407   0.00000  Uiso   1.00
N777   N     0.13828   0.21915   0.78846   0.00000  Uiso   1.00
N778   N     0.14700   0.71901   0.50821   0.00000  Uiso   1.00
N779   N     0.27287   0.02169   0.42876   0.00000  Uiso   1.00
N780   N     0.16139   0.25746   0.82751   0.00000  Uiso   1.00
N781   N     0.17010   0.75733   0.54726   0.00000  Uiso   1.00
N782   N     0.29597   0.06001   0.46782   0.00000  Uiso   1.00
C783   C     0.96182   0.20549   0.79392   0.00000  Uiso   1.00
C784   C     0.01610   0.21862   0.80196   0.00000  Uiso   1.00
C785   C     0.71553   0.54165   0.12030   0.00000  Uiso   1.00
C786   C     0.76364   0.55670   0.13114   0.00000  Uiso   1.00
C787   C     0.84567   0.57335   0.13983   0.00000  Uiso   1.00
C788   C     0.92664   0.17265   0.81659   0.00000  Uiso   1.00
C789   C     0.88418   0.12369   0.81390   0.00000  Uiso   1.00
C790   C     0.85698   0.10004   0.83706   0.00000  Uiso   1.00
C791   C     0.80009   0.04533   0.86846   0.00000  Uiso   1.00
C792   C     0.96134   0.25607   0.79469   0.00000  Uiso   1.00
C793   C     0.94804   0.27724   0.77359   0.00000  Uiso   1.00
C794   C     0.95004   0.32383   0.77832   0.00000  Uiso   1.00
C795   C     0.94703   0.39864   0.77572   0.00000  Uiso   1.00
C796   C     0.98899   0.25055   0.83985   0.00000  Uiso   1.00
C797   C     0.03086   0.24310   0.82690   0.00000  Uiso   1.00
C798   C     0.07893   0.25817   0.83777   0.00000  Uiso   1.00
C799   C     0.77843   0.58122   0.15613   0.00000  Uiso   1.00
C800   C     0.94139   0.19712   0.84154   0.00000  Uiso   1.00
C801   C     0.91424   0.17354   0.86471   0.00000  Uiso   1.00
C802   C     0.87176   0.12456   0.86205   0.00000  Uiso   1.00
C803   C     0.97609   0.28054   0.81964   0.00000  Uiso   1.00
C804   C     0.97811   0.32710   0.82440   0.00000  Uiso   1.00
C805   C     0.96482   0.34834   0.80331   0.00000  Uiso   1.00
H806   H     0.95033   0.18643   0.77451   0.00000  Uiso   1.00
H807   H     0.70410   0.52270   0.10099   0.00000  Uiso   1.00
H808   H     0.87277   0.10476   0.79459   0.00000  Uiso   1.00
H809   H     0.93662   0.25829   0.75429   0.00000  Uiso   1.00
H810   H     0.80717   0.53674   0.10441   0.00000  Uiso   1.00
H811   H     0.79329   0.02500   0.82786   0.00000  Uiso   1.00
H812   H     0.92794   0.34876   0.74288   0.00000  Uiso   1.00
H813   H     0.00048   0.26960   0.85927   0.00000  Uiso   1.00
H814   H     0.09034   0.27711   0.85708   0.00000  Uiso   1.00
H815   H     0.92567   0.19250   0.88401   0.00000  Uiso   1.00
H816   H     0.98953   0.34603   0.84371   0.00000  Uiso   1.00
H817   H     0.85011   0.60795   0.17699   0.00000  Uiso   1.00
H818   H     0.83623   0.09621   0.90044   0.00000  Uiso   1.00
H819   H     0.97088   0.41997   0.81545   0.00000  Uiso   1.00
O820   O     0.88684   0.57577   0.13773   0.00000  Uiso   1.00
O821   O     0.76464   0.00838   0.87889   0.00000  Uiso   1.00
O822   O     0.94130   0.43314   0.76740   0.00000  Uiso   1.00
N823   N     0.80495   0.55248   0.12179   0.00000  Uiso   1.00
N824   N     0.81366   0.05234   0.84155   0.00000  Uiso   1.00
N825   N     0.93953   0.35502   0.76210   0.00000  Uiso   1.00
N826   N     0.82805   0.59080   0.16084   0.00000  Uiso   1.00
N827   N     0.83677   0.09066   0.88060   0.00000  Uiso   1.00
N828   N     0.96264   0.39334   0.80115   0.00000  Uiso   1.00
C829   C     0.62849   0.08967   0.62726   0.00000  Uiso   1.00
C830   C     0.68277   0.13081   0.63529   0.00000  Uiso   1.00
C831   C     0.38220   0.50722   0.95363   0.00000  Uiso   1.00
C832   C     0.43031   0.54027   0.96447   0.00000  Uiso   1.00
C833   C     0.51234   0.60565   0.97316   0.00000  Uiso   1.00
C834   C     0.59330   0.08733   0.64993   0.00000  Uiso   1.00
C835   C     0.55085   0.09383   0.64723   0.00000  Uiso   1.00
C836   C     0.52364   0.09027   0.67039   0.00000  Uiso   1.00
C837   C     0.46676   0.08810   0.70180   0.00000  Uiso   1.00
C838   C     0.62800   0.03860   0.62803   0.00000  Uiso   1.00
C839   C     0.61471   0.00413   0.60692   0.00000  Uiso   1.00
C840   C     0.61670   0.95954   0.61165   0.00000  Uiso   1.00
C841   C     0.61369   0.88173   0.60906   0.00000  Uiso   1.00
C842   C     0.65566   0.07177   0.67318   0.00000  Uiso   1.00
C843   C     0.69752   0.12109   0.66024   0.00000  Uiso   1.00
C844   C     0.74559   0.15409   0.67111   0.00000  Uiso   1.00
C845   C     0.44509   0.53054   0.98946   0.00000  Uiso   1.00
C846   C     0.60806   0.07761   0.67487   0.00000  Uiso   1.00
C847   C     0.58091   0.07403   0.69804   0.00000  Uiso   1.00
C848   C     0.53843   0.08053   0.69538   0.00000  Uiso   1.00
C849   C     0.64276   0.02888   0.65297   0.00000  Uiso   1.00
C850   C     0.64477   0.98434   0.65774   0.00000  Uiso   1.00
C851   C     0.63149   0.94981   0.63664   0.00000  Uiso   1.00
H852   H     0.61699   0.09723   0.60784   0.00000  Uiso   1.00
H853   H     0.37076   0.51473   0.93433   0.00000  Uiso   1.00
H854   H     0.53944   0.10134   0.62793   0.00000  Uiso   1.00
H855   H     0.60329   0.01167   0.58762   0.00000  Uiso   1.00
H856   H     0.47383   0.60376   0.93775   0.00000  Uiso   1.00
H857   H     0.45996   0.10162   0.66120   0.00000  Uiso   1.00
H858   H     0.59461   0.91251   0.57621   0.00000  Uiso   1.00
H859   H     0.66714   0.06421   0.69260   0.00000  Uiso   1.00
H860   H     0.75700   0.14656   0.69041   0.00000  Uiso   1.00
H861   H     0.59234   0.06651   0.71734   0.00000  Uiso   1.00
H862   H     0.65619   0.97683   0.67704   0.00000  Uiso   1.00
H863   H     0.51677   0.57549   0.01032   0.00000  Uiso   1.00
H864   H     0.50290   0.07335   0.73377   0.00000  Uiso   1.00
H865   H     0.63755   0.88424   0.64879   0.00000  Uiso   1.00
O866   O     0.55350   0.64440   0.97106   0.00000  Uiso   1.00
O867   O     0.43131   0.08959   0.71223   0.00000  Uiso   1.00
O868   O     0.60796   0.84149   0.60073   0.00000  Uiso   1.00
N869   N     0.47161   0.58580   0.95512   0.00000  Uiso   1.00
N870   N     0.48033   0.09465   0.67488   0.00000  Uiso   1.00
N871   N     0.60620   0.91784   0.59543   0.00000  Uiso   1.00
N872   N     0.49472   0.57059   0.99418   0.00000  Uiso   1.00
N873   N     0.50344   0.07944   0.71393   0.00000  Uiso   1.00
N874   N     0.62931   0.90263   0.63448   0.00000  Uiso   1.00
C875   C     0.29515   0.42300   0.96059   0.00000  Uiso   1.00
C876   C     0.34943   0.46415   0.96863   0.00000  Uiso   1.00
C877   C     0.04887   0.84055   0.28696   0.00000  Uiso   1.00
C878   C     0.09697   0.87361   0.29781   0.00000  Uiso   1.00
C879   C     0.17900   0.93899   0.30650   0.00000  Uiso   1.00
C880   C     0.25997   0.42066   0.98326   0.00000  Uiso   1.00
C881   C     0.21752   0.42716   0.98057   0.00000  Uiso   1.00
C882   C     0.19031   0.42360   0.00373   0.00000  Uiso   1.00
C883   C     0.13343   0.42143   0.03513   0.00000  Uiso   1.00
C884   C     0.29467   0.37194   0.96136   0.00000  Uiso   1.00
C885   C     0.28137   0.33746   0.94026   0.00000  Uiso   1.00
C886   C     0.28337   0.29288   0.94499   0.00000  Uiso   1.00
C887   C     0.28036   0.21506   0.94239   0.00000  Uiso   1.00
C888   C     0.32232   0.40511   0.00652   0.00000  Uiso   1.00
C889   C     0.36419   0.45443   0.99357   0.00000  Uiso   1.00
C890   C     0.41226   0.48742   0.00444   0.00000  Uiso   1.00
C891   C     0.11176   0.86387   0.32280   0.00000  Uiso   1.00
C892   C     0.27473   0.41094   0.00820   0.00000  Uiso   1.00
C893   C     0.24758   0.40737   0.03138   0.00000  Uiso   1.00
C894   C     0.20509   0.41387   0.02872   0.00000  Uiso   1.00
C895   C     0.30943   0.36222   0.98631   0.00000  Uiso   1.00
C896   C     0.31144   0.31767   0.99107   0.00000  Uiso   1.00
C897   C     0.29815   0.28314   0.96998   0.00000  Uiso   1.00
H898   H     0.28366   0.43057   0.94117   0.00000  Uiso   1.00
H899   H     0.03743   0.84806   0.26766   0.00000  Uiso   1.00
H900   H     0.20610   0.43468   0.96126   0.00000  Uiso   1.00
H901   H     0.26996   0.34500   0.92096   0.00000  Uiso   1.00
H902   H     0.14050   0.93710   0.27108   0.00000  Uiso   1.00
H903   H     0.12663   0.43496   0.99453   0.00000  Uiso   1.00
H904   H     0.26127   0.24585   0.90955   0.00000  Uiso   1.00
H905   H     0.33381   0.39754   0.02594   0.00000  Uiso   1.00
H906   H     0.42367   0.47989   0.02374   0.00000  Uiso   1.00
H907   H     0.25901   0.39984   0.05067   0.00000  Uiso   1.00
H908   H     0.32286   0.31016   0.01037   0.00000  Uiso   1.00
H909   H     0.18344   0.90882   0.34365   0.00000  Uiso   1.00
H910   H     0.16956   0.40668   0.06710   0.00000  Uiso   1.00
H911   H     0.30421   0.21757   0.98212   0.00000  Uiso   1.00
O912   O     0.22017   0.97774   0.30440   0.00000  Uiso   1.00
O913   O     0.09797   0.42293   0.04556   0.00000  Uiso   1.00
O914   O     0.27463   0.17482   0.93407   0.00000  Uiso   1.00
N915   N     0.13828   0.91913   0.28846   0.00000  Uiso   1.00
N916   N     0.14700   0.42799   0.00821   0.00000  Uiso   1.00
N917   N     0.27287   0.25118   0.92876   0.00000  Uiso   1.00
N918   N     0.16139   0.90392   0.32751   0.00000  Uiso   1.00
N919   N     0.17010   0.41277   0.04726   0.00000  Uiso   1.00
N920   N     0.29597   0.23596   0.96782   0.00000  Uiso   1.00
C921   C     0.96182   0.75633   0.29392   0.00000  Uiso   1.00
C922   C     0.01610   0.79748   0.30196   0.00000  Uiso   1.00
C923   C     0.71553   0.17388   0.62030   0.00000  Uiso   1.00
C924   C     0.76364   0.20694   0.63114   0.00000  Uiso   1.00
C925   C     0.84567   0.27232   0.63983   0.00000  Uiso   1.00
C926   C     0.92664   0.75399   0.31659   0.00000  Uiso   1.00
C927   C     0.88418   0.76050   0.31390   0.00000  Uiso   1.00
C928   C     0.85698   0.75694   0.33706   0.00000  Uiso   1.00
C929   C     0.80009   0.75477   0.36846   0.00000  Uiso   1.00
C930   C     0.96134   0.70527   0.29469   0.00000  Uiso   1.00
C931   C     0.94804   0.67080   0.27359   0.00000  Uiso   1.00
C932   C     0.95004   0.62621   0.27832   0.00000  Uiso   1.00
C933   C     0.94703   0.54839   0.27572   0.00000  Uiso   1.00
C934   C     0.98899   0.73844   0.33985   0.00000  Uiso   1.00
C935   C     0.03086   0.78776   0.32690   0.00000  Uiso   1.00
C936   C     0.07893   0.82076   0.33777   0.00000  Uiso   1.00
C937   C     0.77843   0.19720   0.65613   0.00000  Uiso   1.00
C938   C     0.94139   0.74427   0.34154   0.00000  Uiso   1.00
C939   C     0.91424   0.74070   0.36471   0.00000  Uiso   1.00
C940   C     0.87176   0.74720   0.36205   0.00000  Uiso   1.00
C941   C     0.97609   0.69555   0.31964   0.00000  Uiso   1.00
C942   C     0.97811   0.65101   0.32440   0.00000  Uiso   1.00
C943   C     0.96482   0.61648   0.30331   0.00000  Uiso   1.00
H944   H     0.95033   0.76390   0.27451   0.00000  Uiso   1.00
H945   H     0.70410   0.18139   0.60099   0.00000  Uiso   1.00
H946   H     0.87277   0.76801   0.29459   0.00000  Uiso   1.00
H947   H     0.93662   0.67833   0.25429   0.00000  Uiso   1.00
H948   H     0.80717   0.27043   0.60441   0.00000  Uiso   1.00
H949   H     0.79329   0.76829   0.32786   0.00000  Uiso   1.00
H950   H     0.92794   0.57918   0.24288   0.00000  Uiso   1.00
H951   H     0.00048   0.73087   0.35927   0.00000  Uiso   1.00
H952   H     0.09034   0.81323   0.35708   0.00000  Uiso   1.00
H953   H     0.92567   0.73318   0.38401   0.00000  Uiso   1.00
H954   H     0.98953   0.64350   0.34371   0.00000  Uiso   1.00
H955   H     0.85011   0.24216   0.67699   0.00000  Uiso   1.00
H956   H     0.83623   0.74002   0.40044   0.00000  Uiso   1.00
H957   H     0.97088   0.55091   0.31545   0.00000  Uiso   1.00
O958   O     0.88684   0.31107   0.63773   0.00000  Uiso   1.00
O959   O     0.76464   0.75626   0.37889   0.00000  Uiso   1.00
O960   O     0.94130   0.50816   0.26740   0.00000  Uiso   1.00
N961   N     0.80495   0.25247   0.62179   0.00000  Uiso   1.00
N962   N     0.81366   0.76132   0.34155   0.00000  Uiso   1.00
N963   N     0.93953   0.58451   0.26210   0.00000  Uiso   1.00
N964   N     0.82805   0.23725   0.66084   0.00000  Uiso   1.00
N965   N     0.83677   0.74611   0.38060   0.00000  Uiso   1.00
N966   N     0.96264   0.56930   0.30115   0.00000  Uiso   1.00
C967   C     0.91033   0.53882   0.62726   0.00000  Uiso   1.00
C968   C     0.86919   0.55196   0.63529   0.00000  Uiso   1.00
C969   C     0.49278   0.87498   0.95363   0.00000  Uiso   1.00
C970   C     0.45973   0.89003   0.96447   0.00000  Uiso   1.00
C971   C     0.39435   0.90668   0.97316   0.00000  Uiso   1.00
C972   C     0.91267   0.50598   0.64993   0.00000  Uiso   1.00
C973   C     0.90617   0.45702   0.64723   0.00000  Uiso   1.00
C974   C     0.90973   0.43337   0.67039   0.00000  Uiso   1.00
C975   C     0.91190   0.37866   0.70180   0.00000  Uiso   1.00
C976   C     0.96140   0.58940   0.62803   0.00000  Uiso   1.00
C977   C     0.99587   0.61058   0.60692   0.00000  Uiso   1.00
C978   C     0.04046   0.65716   0.61165   0.00000  Uiso   1.00
C979   C     0.11827   0.73197   0.60906   0.00000  Uiso   1.00
C980   C     0.92823   0.58388   0.67318   0.00000  Uiso   1.00
C981   C     0.87891   0.57643   0.66024   0.00000  Uiso   1.00
C982   C     0.84591   0.59150   0.67111   0.00000  Uiso   1.00
C983   C     0.46946   0.91456   0.98946   0.00000  Uiso   1.00
C984   C     0.92239   0.53045   0.67487   0.00000  Uiso   1.00
C985   C     0.92597   0.50687   0.69804   0.00000  Uiso   1.00
C986   C     0.91947   0.45789   0.69538   0.00000  Uiso   1.00
C987   C     0.97112   0.61388   0.65297   0.00000  Uiso   1.00
C988   C     0.01566   0.66043   0.65774   0.00000  Uiso   1.00
C989   C     0.05019   0.68168   0.63664   0.00000  Uiso   1.00
H990   H     0.90277   0.51976   0.60784   0.00000  Uiso   1.00
H991   H     0.48527   0.85604   0.93433   0.00000  Uiso   1.00
H992   H     0.89866   0.43809   0.62793   0.00000  Uiso   1.00
H993   H     0.98833   0.59162   0.58762   0.00000  Uiso   1.00
H994   H     0.39624   0.87007   0.93775   0.00000  Uiso   1.00
H995   H     0.89838   0.35834   0.66120   0.00000  Uiso   1.00
H996   H     0.08749   0.68209   0.57621   0.00000  Uiso   1.00
H997   H     0.93579   0.60294   0.69260   0.00000  Uiso   1.00
H998   H     0.85344   0.61044   0.69041   0.00000  Uiso   1.00
H999   H     0.93349   0.52583   0.71734   0.00000  Uiso   1.00
H1000  H     0.02317   0.67936   0.67704   0.00000  Uiso   1.00
H1001  H     0.42451   0.94128   0.01032   0.00000  Uiso   1.00
H1002  H     0.92665   0.42955   0.73377   0.00000  Uiso   1.00
H1003  H     0.11576   0.75330   0.64879   0.00000  Uiso   1.00
O1004  O     0.35560   0.90910   0.97106   0.00000  Uiso   1.00
O1005  O     0.91041   0.34171   0.71223   0.00000  Uiso   1.00
O1006  O     0.15851   0.76647   0.60073   0.00000  Uiso   1.00
N1007  N     0.41420   0.88581   0.95512   0.00000  Uiso   1.00
N1008  N     0.90535   0.38568   0.67488   0.00000  Uiso   1.00
N1009  N     0.08216   0.68836   0.59543   0.00000  Uiso   1.00
N1010  N     0.42941   0.92413   0.99418   0.00000  Uiso   1.00
N1011  N     0.92056   0.42400   0.71393   0.00000  Uiso   1.00
N1012  N     0.09737   0.72668   0.63448   0.00000  Uiso   1.00
C1013  C     0.57700   0.87215   0.96059   0.00000  Uiso   1.00
C1014  C     0.53585   0.88529   0.96863   0.00000  Uiso   1.00
C1015  C     0.15945   0.20832   0.28696   0.00000  Uiso   1.00
C1016  C     0.12639   0.22337   0.29781   0.00000  Uiso   1.00
C1017  C     0.06101   0.24002   0.30650   0.00000  Uiso   1.00
C1018  C     0.57934   0.83931   0.98326   0.00000  Uiso   1.00
C1019  C     0.57284   0.79035   0.98057   0.00000  Uiso   1.00
C1020  C     0.57640   0.76671   0.00373   0.00000  Uiso   1.00
C1021  C     0.57857   0.71199   0.03513   0.00000  Uiso   1.00
C1022  C     0.62806   0.92273   0.96136   0.00000  Uiso   1.00
C1023  C     0.66254   0.94391   0.94026   0.00000  Uiso   1.00
C1024  C     0.70712   0.99049   0.94499   0.00000  Uiso   1.00
C1025  C     0.78494   0.06530   0.94239   0.00000  Uiso   1.00
C1026  C     0.59489   0.91721   0.00652   0.00000  Uiso   1.00
C1027  C     0.54557   0.90976   0.99357   0.00000  Uiso   1.00
C1028  C     0.51258   0.92484   0.00444   0.00000  Uiso   1.00
C1029  C     0.13613   0.24789   0.32280   0.00000  Uiso   1.00
C1030  C     0.58906   0.86379   0.00820   0.00000  Uiso   1.00
C1031  C     0.59263   0.84021   0.03138   0.00000  Uiso   1.00
C1032  C     0.58613   0.79122   0.02872   0.00000  Uiso   1.00
C1033  C     0.63778   0.94721   0.98631   0.00000  Uiso   1.00
C1034  C     0.68233   0.99377   0.99107   0.00000  Uiso   1.00
C1035  C     0.71686   0.01501   0.96998   0.00000  Uiso   1.00
H1036  H     0.56943   0.85310   0.94117   0.00000  Uiso   1.00
H1037  H     0.15194   0.18937   0.26766   0.00000  Uiso   1.00
H1038  H     0.56532   0.77142   0.96126   0.00000  Uiso   1.00
H1039  H     0.65500   0.92496   0.92096   0.00000  Uiso   1.00
H1040  H     0.06290   0.20341   0.27108   0.00000  Uiso   1.00
H1041  H     0.56504   0.69167   0.99453   0.00000  Uiso   1.00
H1042  H     0.75415   0.01543   0.90955   0.00000  Uiso   1.00
H1043  H     0.60246   0.93627   0.02594   0.00000  Uiso   1.00
H1044  H     0.52011   0.94378   0.02374   0.00000  Uiso   1.00
H1045  H     0.60016   0.85916   0.05067   0.00000  Uiso   1.00
H1046  H     0.68984   0.01270   0.01037   0.00000  Uiso   1.00
H1047  H     0.09118   0.27462   0.34365   0.00000  Uiso   1.00
H1048  H     0.59332   0.76288   0.06710   0.00000  Uiso   1.00
H1049  H     0.78243   0.08664   0.98212   0.00000  Uiso   1.00
O1050  O     0.02226   0.24243   0.30440   0.00000  Uiso   1.00
O1051  O     0.57707   0.67505   0.04556   0.00000  Uiso   1.00
O1052  O     0.82518   0.09981   0.93407   0.00000  Uiso   1.00
N1053  N     0.08087   0.21915   0.28846   0.00000  Uiso   1.00
N1054  N     0.57201   0.71901   0.00821   0.00000  Uiso   1.00
N1055  N     0.74882   0.02169   0.92876   0.00000  Uiso   1.00
N1056  N     0.09608   0.25746   0.32751   0.00000  Uiso   1.00
N1057  N     0.58723   0.75733   0.04726   0.00000  Uiso   1.00
N1058  N     0.76404   0.06001   0.96782   0.00000  Uiso   1.00
C1059  C     0.24367   0.20549   0.29392   0.00000  Uiso   1.00
C1060  C     0.20252   0.21862   0.30196   0.00000  Uiso   1.00
C1061  C     0.82612   0.54165   0.62030   0.00000  Uiso   1.00
C1062  C     0.79306   0.55670   0.63114   0.00000  Uiso   1.00
C1063  C     0.72768   0.57335   0.63983   0.00000  Uiso   1.00
C1064  C     0.24601   0.17265   0.31659   0.00000  Uiso   1.00
C1065  C     0.23950   0.12369   0.31390   0.00000  Uiso   1.00
C1066  C     0.24306   0.10004   0.33706   0.00000  Uiso   1.00
C1067  C     0.24523   0.04533   0.36846   0.00000  Uiso   1.00
C1068  C     0.29473   0.25607   0.29469   0.00000  Uiso   1.00
C1069  C     0.32920   0.27724   0.27359   0.00000  Uiso   1.00
C1070  C     0.37379   0.32383   0.27832   0.00000  Uiso   1.00
C1071  C     0.45161   0.39864   0.27572   0.00000  Uiso   1.00
C1072  C     0.26156   0.25055   0.33985   0.00000  Uiso   1.00
C1073  C     0.21224   0.24310   0.32690   0.00000  Uiso   1.00
C1074  C     0.17924   0.25817   0.33777   0.00000  Uiso   1.00
C1075  C     0.80280   0.58122   0.65613   0.00000  Uiso   1.00
C1076  C     0.25573   0.19712   0.34154   0.00000  Uiso   1.00
C1077  C     0.25930   0.17354   0.36471   0.00000  Uiso   1.00
C1078  C     0.25280   0.12456   0.36205   0.00000  Uiso   1.00
C1079  C     0.30445   0.28054   0.31964   0.00000  Uiso   1.00
C1080  C     0.34899   0.32710   0.32440   0.00000  Uiso   1.00
C1081  C     0.38352   0.34834   0.30331   0.00000  Uiso   1.00
H1082  H     0.23610   0.18643   0.27451   0.00000  Uiso   1.00
H1083  H     0.81861   0.52270   0.60099   0.00000  Uiso   1.00
H1084  H     0.23199   0.10476   0.29459   0.00000  Uiso   1.00
H1085  H     0.32167   0.25829   0.25429   0.00000  Uiso   1.00
H1086  H     0.72957   0.53674   0.60441   0.00000  Uiso   1.00
H1087  H     0.23171   0.02500   0.32786   0.00000  Uiso   1.00
H1088  H     0.42082   0.34876   0.24288   0.00000  Uiso   1.00
H1089  H     0.26913   0.26960   0.35927   0.00000  Uiso   1.00
H1090  H     0.18677   0.27711   0.35708   0.00000  Uiso   1.00
H1091  H     0.26682   0.19250   0.38401   0.00000  Uiso   1.00
H1092  H     0.35650   0.34603   0.34371   0.00000  Uiso   1.00
H1093  H     0.75784   0.60795   0.67699   0.00000  Uiso   1.00
H1094  H     0.25998   0.09621   0.40044   0.00000  Uiso   1.00
H1095  H     0.44909   0.41997   0.31545   0.00000  Uiso   1.00
O1096  O     0.68893   0.57577   0.63773   0.00000  Uiso   1.00
O1097  O     0.24374   0.00838   0.37889   0.00000  Uiso   1.00
O1098  O     0.49184   0.43314   0.26740   0.00000  Uiso   1.00
N1099  N     0.74753   0.55248   0.62179   0.00000  Uiso   1.00
N1100  N     0.23868   0.05234   0.34155   0.00000  Uiso   1.00
N1101  N     0.41549   0.35502   0.26210   0.00000  Uiso   1.00
N1102  N     0.76275   0.59080   0.66084   0.00000  Uiso   1.00
N1103  N     0.25389   0.09066   0.38060   0.00000  Uiso   1.00
N1104  N     0.43070   0.39334   0.30115   0.00000  Uiso   1.00
C1105  C     0.46118   0.37151   0.62726   0.00000  Uiso   1.00
C1106  C     0.44804   0.31723   0.63529   0.00000  Uiso   1.00
C1107  C     0.12502   0.61780   0.95363   0.00000  Uiso   1.00
C1108  C     0.10997   0.56969   0.96447   0.00000  Uiso   1.00
C1109  C     0.09332   0.48766   0.97316   0.00000  Uiso   1.00
C1110  C     0.49402   0.40670   0.64993   0.00000  Uiso   1.00
C1111  C     0.54298   0.44915   0.64723   0.00000  Uiso   1.00
C1112  C     0.56663   0.47636   0.67039   0.00000  Uiso   1.00
C1113  C     0.62134   0.53324   0.70180   0.00000  Uiso   1.00
C1114  C     0.41060   0.37200   0.62803   0.00000  Uiso   1.00
C1115  C     0.38942   0.38529   0.60692   0.00000  Uiso   1.00
C1116  C     0.34284   0.38330   0.61165   0.00000  Uiso   1.00
C1117  C     0.26803   0.38631   0.60906   0.00000  Uiso   1.00
C1118  C     0.41612   0.34434   0.67318   0.00000  Uiso   1.00
C1119  C     0.42357   0.30248   0.66024   0.00000  Uiso   1.00
C1120  C     0.40850   0.25441   0.67111   0.00000  Uiso   1.00
C1121  C     0.08544   0.55491   0.98946   0.00000  Uiso   1.00
C1122  C     0.46955   0.39194   0.67487   0.00000  Uiso   1.00
C1123  C     0.49313   0.41909   0.69804   0.00000  Uiso   1.00
C1124  C     0.54211   0.46157   0.69538   0.00000  Uiso   1.00
C1125  C     0.38612   0.35724   0.65297   0.00000  Uiso   1.00
C1126  C     0.33957   0.35523   0.65774   0.00000  Uiso   1.00
C1127  C     0.31832   0.36851   0.63664   0.00000  Uiso   1.00
H1128  H     0.48024   0.38301   0.60784   0.00000  Uiso   1.00
H1129  H     0.14396   0.62924   0.93433   0.00000  Uiso   1.00
H1130  H     0.56191   0.46056   0.62793   0.00000  Uiso   1.00
H1131  H     0.40838   0.39671   0.58762   0.00000  Uiso   1.00
H1132  H     0.12993   0.52617   0.93775   0.00000  Uiso   1.00
H1133  H     0.64166   0.54004   0.66120   0.00000  Uiso   1.00
H1134  H     0.31791   0.40539   0.57621   0.00000  Uiso   1.00
H1135  H     0.39706   0.33286   0.69260   0.00000  Uiso   1.00
H1136  H     0.38956   0.24300   0.69041   0.00000  Uiso   1.00
H1137  H     0.47417   0.40766   0.71734   0.00000  Uiso   1.00
H1138  H     0.32064   0.34381   0.67704   0.00000  Uiso   1.00
H1139  H     0.05872   0.48323   0.01032   0.00000  Uiso   1.00
H1140  H     0.57045   0.49710   0.73377   0.00000  Uiso   1.00
H1141  H     0.24670   0.36245   0.64879   0.00000  Uiso   1.00
O1142  O     0.09090   0.44650   0.97106   0.00000  Uiso   1.00
O1143  O     0.65829   0.56869   0.71223   0.00000  Uiso   1.00
O1144  O     0.23353   0.39204   0.60073   0.00000  Uiso   1.00
N1145  N     0.11419   0.52839   0.95512   0.00000  Uiso   1.00
N1146  N     0.61432   0.51967   0.67488   0.00000  Uiso   1.00
N1147  N     0.31164   0.39380   0.59543   0.00000  Uiso   1.00
N1148  N     0.07587   0.50528   0.99418   0.00000  Uiso   1.00
N1149  N     0.57600   0.49656   0.71393   0.00000  Uiso   1.00
N1150  N     0.27332   0.37069   0.63448   0.00000  Uiso   1.00
C1151  C     0.12785   0.70485   0.96059   0.00000  Uiso   1.00
C1152  C     0.11471   0.65057   0.96863   0.00000  Uiso   1.00
C1153  C     0.79168   0.95113   0.28696   0.00000  Uiso   1.00
C1154  C     0.77663   0.90303   0.29781   0.00000  Uiso   1.00
C1155  C     0.75998   0.82100   0.30650   0.00000  Uiso   1.00
C1156  C     0.16069   0.74003   0.98326   0.00000  Uiso   1.00
C1157  C     0.20965   0.78248   0.98057   0.00000  Uiso   1.00
C1158  C     0.23329   0.80969   0.00373   0.00000  Uiso   1.00
C1159  C     0.28801   0.86657   0.03513   0.00000  Uiso   1.00
C1160  C     0.07727   0.70533   0.96136   0.00000  Uiso   1.00
C1161  C     0.05609   0.71863   0.94026   0.00000  Uiso   1.00
C1162  C     0.00951   0.71663   0.94499   0.00000  Uiso   1.00
C1163  C     0.93470   0.71964   0.94239   0.00000  Uiso   1.00
C1164  C     0.08279   0.67768   0.00652   0.00000  Uiso   1.00
C1165  C     0.09024   0.63581   0.99357   0.00000  Uiso   1.00
C1166  C     0.07516   0.58774   0.00444   0.00000  Uiso   1.00
C1167  C     0.75211   0.88824   0.32280   0.00000  Uiso   1.00
C1168  C     0.13621   0.72527   0.00820   0.00000  Uiso   1.00
C1169  C     0.15979   0.75242   0.03138   0.00000  Uiso   1.00
C1170  C     0.20878   0.79491   0.02872   0.00000  Uiso   1.00
C1171  C     0.05279   0.69057   0.98631   0.00000  Uiso   1.00
C1172  C     0.00623   0.68856   0.99107   0.00000  Uiso   1.00
C1173  C     0.98499   0.70185   0.96998   0.00000  Uiso   1.00
H1174  H     0.14690   0.71634   0.94117   0.00000  Uiso   1.00
H1175  H     0.81063   0.96257   0.26766   0.00000  Uiso   1.00
H1176  H     0.22858   0.79390   0.96126   0.00000  Uiso   1.00
H1177  H     0.07504   0.73004   0.92096   0.00000  Uiso   1.00
H1178  H     0.79659   0.85950   0.27108   0.00000  Uiso   1.00
H1179  H     0.30833   0.87337   0.99453   0.00000  Uiso   1.00
H1180  H     0.98457   0.73873   0.90955   0.00000  Uiso   1.00
H1181  H     0.06373   0.66619   0.02594   0.00000  Uiso   1.00
H1182  H     0.05622   0.57633   0.02374   0.00000  Uiso   1.00
H1183  H     0.14084   0.74099   0.05067   0.00000  Uiso   1.00
H1184  H     0.98730   0.67714   0.01037   0.00000  Uiso   1.00
H1185  H     0.72538   0.81656   0.34365   0.00000  Uiso   1.00
H1186  H     0.23712   0.83044   0.06710   0.00000  Uiso   1.00
H1187  H     0.91336   0.69579   0.98212   0.00000  Uiso   1.00
O1188  O     0.75757   0.77983   0.30440   0.00000  Uiso   1.00
O1189  O     0.32495   0.90203   0.04556   0.00000  Uiso   1.00
O1190  O     0.90019   0.72537   0.93407   0.00000  Uiso   1.00
N1191  N     0.78085   0.86172   0.28846   0.00000  Uiso   1.00
N1192  N     0.28099   0.85300   0.00821   0.00000  Uiso   1.00
N1193  N     0.97831   0.72713   0.92876   0.00000  Uiso   1.00
N1194  N     0.74254   0.83861   0.32751   0.00000  Uiso   1.00
N1195  N     0.24267   0.82990   0.04726   0.00000  Uiso   1.00
N1196  N     0.93999   0.70403   0.96782   0.00000  Uiso   1.00
C1197  C     0.79451   0.03818   0.29392   0.00000  Uiso   1.00
C1198  C     0.78138   0.98390   0.30196   0.00000  Uiso   1.00
C1199  C     0.45835   0.28447   0.62030   0.00000  Uiso   1.00
C1200  C     0.44330   0.23636   0.63114   0.00000  Uiso   1.00
C1201  C     0.42665   0.15433   0.63983   0.00000  Uiso   1.00
C1202  C     0.82735   0.07336   0.31659   0.00000  Uiso   1.00
C1203  C     0.87631   0.11582   0.31390   0.00000  Uiso   1.00
C1204  C     0.89996   0.14302   0.33706   0.00000  Uiso   1.00
C1205  C     0.95467   0.19991   0.36846   0.00000  Uiso   1.00
C1206  C     0.74393   0.03866   0.29469   0.00000  Uiso   1.00
C1207  C     0.72276   0.05196   0.27359   0.00000  Uiso   1.00
C1208  C     0.67617   0.04996   0.27832   0.00000  Uiso   1.00
C1209  C     0.60136   0.05297   0.27572   0.00000  Uiso   1.00
C1210  C     0.74945   0.01101   0.33985   0.00000  Uiso   1.00
C1211  C     0.75690   0.96914   0.32690   0.00000  Uiso   1.00
C1212  C     0.74183   0.92107   0.33777   0.00000  Uiso   1.00
C1213  C     0.41878   0.22157   0.65613   0.00000  Uiso   1.00
C1214  C     0.80288   0.05861   0.34154   0.00000  Uiso   1.00
C1215  C     0.82646   0.08576   0.36471   0.00000  Uiso   1.00
C1216  C     0.87544   0.12824   0.36205   0.00000  Uiso   1.00
C1217  C     0.71946   0.02391   0.31964   0.00000  Uiso   1.00
C1218  C     0.67290   0.02189   0.32440   0.00000  Uiso   1.00
C1219  C     0.65166   0.03518   0.30331   0.00000  Uiso   1.00
H1220  H     0.81357   0.04967   0.27451   0.00000  Uiso   1.00
H1221  H     0.47730   0.29590   0.60099   0.00000  Uiso   1.00
H1222  H     0.89524   0.12723   0.29459   0.00000  Uiso   1.00
H1223  H     0.74171   0.06338   0.25429   0.00000  Uiso   1.00
H1224  H     0.46326   0.19283   0.60441   0.00000  Uiso   1.00
H1225  H     0.97500   0.20671   0.32786   0.00000  Uiso   1.00
H1226  H     0.65124   0.07206   0.24288   0.00000  Uiso   1.00
H1227  H     0.73040   0.99952   0.35927   0.00000  Uiso   1.00
H1228  H     0.72289   0.90966   0.35708   0.00000  Uiso   1.00
H1229  H     0.80750   0.07433   0.38401   0.00000  Uiso   1.00
H1230  H     0.65397   0.01047   0.34371   0.00000  Uiso   1.00
H1231  H     0.39205   0.14989   0.67699   0.00000  Uiso   1.00
H1232  H     0.90379   0.16377   0.40044   0.00000  Uiso   1.00
H1233  H     0.58003   0.02912   0.31545   0.00000  Uiso   1.00
O1234  O     0.42423   0.11316   0.63773   0.00000  Uiso   1.00
O1235  O     0.99162   0.23536   0.37889   0.00000  Uiso   1.00
O1236  O     0.56686   0.05870   0.26740   0.00000  Uiso   1.00
N1237  N     0.44752   0.19505   0.62179   0.00000  Uiso   1.00
N1238  N     0.94766   0.18634   0.34155   0.00000  Uiso   1.00
N1239  N     0.64498   0.06047   0.26210   0.00000  Uiso   1.00
N1240  N     0.40920   0.17195   0.66084   0.00000  Uiso   1.00
N1241  N     0.90934   0.16323   0.38060   0.00000  Uiso   1.00
N1242  N     0.60666   0.03736   0.30115   0.00000  Uiso   1.00
C1243  C     0.08967   0.62849   0.87274   0.00000  Uiso   1.00
C1244  C     0.13081   0.68277   0.86471   0.00000  Uiso   1.00
C1245  C     0.50722   0.38220   0.54637   0.00000  Uiso   1.00
C1246  C     0.54027   0.43031   0.53553   0.00000  Uiso   1.00
C1247  C     0.60565   0.51234   0.52684   0.00000  Uiso   1.00
C1248  C     0.08733   0.59330   0.85007   0.00000  Uiso   1.00
C1249  C     0.09383   0.55085   0.85277   0.00000  Uiso   1.00
C1250  C     0.09027   0.52364   0.82961   0.00000  Uiso   1.00
C1251  C     0.08810   0.46676   0.79820   0.00000  Uiso   1.00
C1252  C     0.03860   0.62800   0.87197   0.00000  Uiso   1.00
C1253  C     0.00413   0.61471   0.89308   0.00000  Uiso   1.00
C1254  C     0.95954   0.61670   0.88835   0.00000  Uiso   1.00
C1255  C     0.88173   0.61369   0.89094   0.00000  Uiso   1.00
C1256  C     0.07177   0.65566   0.82682   0.00000  Uiso   1.00
C1257  C     0.12109   0.69752   0.83976   0.00000  Uiso   1.00
C1258  C     0.15409   0.74559   0.82889   0.00000  Uiso   1.00
C1259  C     0.53054   0.44509   0.51054   0.00000  Uiso   1.00
C1260  C     0.07761   0.60806   0.82513   0.00000  Uiso   1.00
C1261  C     0.07403   0.58091   0.80196   0.00000  Uiso   1.00
C1262  C     0.08053   0.53843   0.80462   0.00000  Uiso   1.00
C1263  C     0.02888   0.64276   0.84703   0.00000  Uiso   1.00
C1264  C     0.98434   0.64477   0.84226   0.00000  Uiso   1.00
C1265  C     0.94981   0.63149   0.86336   0.00000  Uiso   1.00
H1266  H     0.09723   0.61699   0.89216   0.00000  Uiso   1.00
H1267  H     0.51473   0.37076   0.56567   0.00000  Uiso   1.00
H1268  H     0.10134   0.53944   0.87207   0.00000  Uiso   1.00
H1269  H     0.01167   0.60329   0.91238   0.00000  Uiso   1.00
H1270  H     0.60376   0.47383   0.56225   0.00000  Uiso   1.00
H1271  H     0.10162   0.45996   0.83880   0.00000  Uiso   1.00
H1272  H     0.91251   0.59461   0.92379   0.00000  Uiso   1.00
H1273  H     0.06421   0.66714   0.80740   0.00000  Uiso   1.00
H1274  H     0.14656   0.75700   0.80959   0.00000  Uiso   1.00
H1275  H     0.06651   0.59234   0.78266   0.00000  Uiso   1.00
H1276  H     0.97683   0.65619   0.82296   0.00000  Uiso   1.00
H1277  H     0.57549   0.51677   0.48968   0.00000  Uiso   1.00
H1278  H     0.07335   0.50290   0.76623   0.00000  Uiso   1.00
H1279  H     0.88424   0.63755   0.85121   0.00000  Uiso   1.00
O1280  O     0.64440   0.55350   0.52894   0.00000  Uiso   1.00
O1281  O     0.08959   0.43131   0.78777   0.00000  Uiso   1.00
O1282  O     0.84149   0.60796   0.89927   0.00000  Uiso   1.00
N1283  N     0.58580   0.47161   0.54488   0.00000  Uiso   1.00
N1284  N     0.09465   0.48033   0.82512   0.00000  Uiso   1.00
N1285  N     0.91784   0.60620   0.90457   0.00000  Uiso   1.00
N1286  N     0.57059   0.49472   0.50582   0.00000  Uiso   1.00
N1287  N     0.07944   0.50344   0.78607   0.00000  Uiso   1.00
N1288  N     0.90263   0.62931   0.86552   0.00000  Uiso   1.00
C1289  C     0.75633   0.96182   0.20608   0.00000  Uiso   1.00
C1290  C     0.79748   0.01610   0.19804   0.00000  Uiso   1.00
C1291  C     0.17388   0.71553   0.87970   0.00000  Uiso   1.00
C1292  C     0.20694   0.76364   0.86886   0.00000  Uiso   1.00
C1293  C     0.27232   0.84567   0.86017   0.00000  Uiso   1.00
C1294  C     0.75399   0.92664   0.18341   0.00000  Uiso   1.00
C1295  C     0.76050   0.88418   0.18610   0.00000  Uiso   1.00
C1296  C     0.75694   0.85698   0.16294   0.00000  Uiso   1.00
C1297  C     0.75477   0.80009   0.13154   0.00000  Uiso   1.00
C1298  C     0.70527   0.96134   0.20531   0.00000  Uiso   1.00
C1299  C     0.67080   0.94804   0.22641   0.00000  Uiso   1.00
C1300  C     0.62621   0.95004   0.22168   0.00000  Uiso   1.00
C1301  C     0.54839   0.94703   0.22428   0.00000  Uiso   1.00
C1302  C     0.73844   0.98899   0.16015   0.00000  Uiso   1.00
C1303  C     0.78776   0.03086   0.17310   0.00000  Uiso   1.00
C1304  C     0.82076   0.07893   0.16223   0.00000  Uiso   1.00
C1305  C     0.19720   0.77843   0.84387   0.00000  Uiso   1.00
C1306  C     0.74427   0.94139   0.15846   0.00000  Uiso   1.00
C1307  C     0.74070   0.91424   0.13529   0.00000  Uiso   1.00
C1308  C     0.74720   0.87176   0.13795   0.00000  Uiso   1.00
C1309  C     0.69555   0.97609   0.18036   0.00000  Uiso   1.00
C1310  C     0.65101   0.97811   0.17560   0.00000  Uiso   1.00
C1311  C     0.61648   0.96482   0.19669   0.00000  Uiso   1.00
H1312  H     0.76390   0.95033   0.22549   0.00000  Uiso   1.00
H1313  H     0.18139   0.70410   0.89901   0.00000  Uiso   1.00
H1314  H     0.76801   0.87277   0.20541   0.00000  Uiso   1.00
H1315  H     0.67833   0.93662   0.24571   0.00000  Uiso   1.00
H1316  H     0.27043   0.80717   0.89559   0.00000  Uiso   1.00
H1317  H     0.76829   0.79329   0.17214   0.00000  Uiso   1.00
H1318  H     0.57918   0.92794   0.25712   0.00000  Uiso   1.00
H1319  H     0.73087   0.00048   0.14073   0.00000  Uiso   1.00
H1320  H     0.81323   0.09034   0.14292   0.00000  Uiso   1.00
H1321  H     0.73318   0.92567   0.11599   0.00000  Uiso   1.00
H1322  H     0.64350   0.98953   0.15629   0.00000  Uiso   1.00
H1323  H     0.24216   0.85011   0.82301   0.00000  Uiso   1.00
H1324  H     0.74002   0.83623   0.09956   0.00000  Uiso   1.00
H1325  H     0.55091   0.97088   0.18455   0.00000  Uiso   1.00
O1326  O     0.31107   0.88684   0.86227   0.00000  Uiso   1.00
O1327  O     0.75626   0.76464   0.12111   0.00000  Uiso   1.00
O1328  O     0.50816   0.94130   0.23260   0.00000  Uiso   1.00
N1329  N     0.25247   0.80495   0.87821   0.00000  Uiso   1.00
N1330  N     0.76132   0.81366   0.15845   0.00000  Uiso   1.00
N1331  N     0.58451   0.93953   0.23790   0.00000  Uiso   1.00
N1332  N     0.23725   0.82805   0.83916   0.00000  Uiso   1.00
N1333  N     0.74611   0.83677   0.11940   0.00000  Uiso   1.00
N1334  N     0.56930   0.96264   0.19885   0.00000  Uiso   1.00
C1335  C     0.42300   0.29515   0.53941   0.00000  Uiso   1.00
C1336  C     0.46415   0.34943   0.53137   0.00000  Uiso   1.00
C1337  C     0.84055   0.04887   0.21304   0.00000  Uiso   1.00
C1338  C     0.87361   0.09697   0.20219   0.00000  Uiso   1.00
C1339  C     0.93899   0.17900   0.19350   0.00000  Uiso   1.00
C1340  C     0.42066   0.25997   0.51674   0.00000  Uiso   1.00
C1341  C     0.42716   0.21752   0.51943   0.00000  Uiso   1.00
C1342  C     0.42360   0.19031   0.49627   0.00000  Uiso   1.00
C1343  C     0.42143   0.13343   0.46487   0.00000  Uiso   1.00
C1344  C     0.37194   0.29467   0.53864   0.00000  Uiso   1.00
C1345  C     0.33746   0.28137   0.55974   0.00000  Uiso   1.00
C1346  C     0.29288   0.28337   0.55501   0.00000  Uiso   1.00
C1347  C     0.21506   0.28036   0.55761   0.00000  Uiso   1.00
C1348  C     0.40511   0.32232   0.49348   0.00000  Uiso   1.00
C1349  C     0.45443   0.36419   0.50643   0.00000  Uiso   1.00
C1350  C     0.48742   0.41226   0.49556   0.00000  Uiso   1.00
C1351  C     0.86387   0.11176   0.17720   0.00000  Uiso   1.00
C1352  C     0.41094   0.27473   0.49180   0.00000  Uiso   1.00
C1353  C     0.40737   0.24758   0.46862   0.00000  Uiso   1.00
C1354  C     0.41387   0.20509   0.47128   0.00000  Uiso   1.00
C1355  C     0.36222   0.30943   0.51369   0.00000  Uiso   1.00
C1356  C     0.31767   0.31144   0.50893   0.00000  Uiso   1.00
C1357  C     0.28314   0.29815   0.53002   0.00000  Uiso   1.00
H1358  H     0.43057   0.28366   0.55883   0.00000  Uiso   1.00
H1359  H     0.84806   0.03743   0.23234   0.00000  Uiso   1.00
H1360  H     0.43468   0.20610   0.53874   0.00000  Uiso   1.00
H1361  H     0.34500   0.26996   0.57904   0.00000  Uiso   1.00
H1362  H     0.93710   0.14050   0.22892   0.00000  Uiso   1.00
H1363  H     0.43496   0.12663   0.50547   0.00000  Uiso   1.00
H1364  H     0.24585   0.26127   0.59045   0.00000  Uiso   1.00
H1365  H     0.39754   0.33381   0.47406   0.00000  Uiso   1.00
H1366  H     0.47989   0.42367   0.47626   0.00000  Uiso   1.00
H1367  H     0.39984   0.25901   0.44933   0.00000  Uiso   1.00
H1368  H     0.31016   0.32286   0.48963   0.00000  Uiso   1.00
H1369  H     0.90882   0.18344   0.15635   0.00000  Uiso   1.00
H1370  H     0.40668   0.16956   0.43290   0.00000  Uiso   1.00
H1371  H     0.21757   0.30421   0.51788   0.00000  Uiso   1.00
O1372  O     0.97774   0.22017   0.19560   0.00000  Uiso   1.00
O1373  O     0.42293   0.09797   0.45444   0.00000  Uiso   1.00
O1374  O     0.17482   0.27463   0.56593   0.00000  Uiso   1.00
N1375  N     0.91913   0.13828   0.21154   0.00000  Uiso   1.00
N1376  N     0.42799   0.14700   0.49179   0.00000  Uiso   1.00
N1377  N     0.25118   0.27287   0.57124   0.00000  Uiso   1.00
N1378  N     0.90392   0.16139   0.17249   0.00000  Uiso   1.00
N1379  N     0.41277   0.17010   0.45274   0.00000  Uiso   1.00
N1380  N     0.23596   0.29597   0.53218   0.00000  Uiso   1.00
C1381  C     0.53882   0.91033   0.87274   0.00000  Uiso   1.00
C1382  C     0.55196   0.86919   0.86471   0.00000  Uiso   1.00
C1383  C     0.87498   0.49278   0.54637   0.00000  Uiso   1.00
C1384  C     0.89003   0.45973   0.53553   0.00000  Uiso   1.00
C1385  C     0.90668   0.39435   0.52684   0.00000  Uiso   1.00
C1386  C     0.50598   0.91267   0.85007   0.00000  Uiso   1.00
C1387  C     0.45702   0.90617   0.85277   0.00000  Uiso   1.00
C1388  C     0.43337   0.90973   0.82961   0.00000  Uiso   1.00
C1389  C     0.37866   0.91190   0.79820   0.00000  Uiso   1.00
C1390  C     0.58940   0.96140   0.87197   0.00000  Uiso   1.00
C1391  C     0.61058   0.99587   0.89308   0.00000  Uiso   1.00
C1392  C     0.65716   0.04046   0.88835   0.00000  Uiso   1.00
C1393  C     0.73197   0.11827   0.89094   0.00000  Uiso   1.00
C1394  C     0.58388   0.92823   0.82682   0.00000  Uiso   1.00
C1395  C     0.57643   0.87891   0.83976   0.00000  Uiso   1.00
C1396  C     0.59150   0.84591   0.82889   0.00000  Uiso   1.00
C1397  C     0.91456   0.46946   0.51054   0.00000  Uiso   1.00
C1398  C     0.53045   0.92239   0.82513   0.00000  Uiso   1.00
C1399  C     0.50687   0.92597   0.80196   0.00000  Uiso   1.00
C1400  C     0.45789   0.91947   0.80462   0.00000  Uiso   1.00
C1401  C     0.61388   0.97112   0.84703   0.00000  Uiso   1.00
C1402  C     0.66043   0.01566   0.84226   0.00000  Uiso   1.00
C1403  C     0.68168   0.05019   0.86336   0.00000  Uiso   1.00
H1404  H     0.51976   0.90277   0.89216   0.00000  Uiso   1.00
H1405  H     0.85604   0.48527   0.56567   0.00000  Uiso   1.00
H1406  H     0.43809   0.89866   0.87207   0.00000  Uiso   1.00
H1407  H     0.59162   0.98833   0.91238   0.00000  Uiso   1.00
H1408  H     0.87007   0.39624   0.56225   0.00000  Uiso   1.00
H1409  H     0.35834   0.89838   0.83880   0.00000  Uiso   1.00
H1410  H     0.68209   0.08749   0.92379   0.00000  Uiso   1.00
H1411  H     0.60294   0.93579   0.80740   0.00000  Uiso   1.00
H1412  H     0.61044   0.85344   0.80959   0.00000  Uiso   1.00
H1413  H     0.52583   0.93349   0.78266   0.00000  Uiso   1.00
H1414  H     0.67936   0.02317   0.82296   0.00000  Uiso   1.00
H1415  H     0.94128   0.42451   0.48968   0.00000  Uiso   1.00
H1416  H     0.42955   0.92665   0.76623   0.00000  Uiso   1.00
H1417  H     0.75330   0.11576   0.85121   0.00000  Uiso   1.00
O1418  O     0.90910   0.35560   0.52894   0.00000  Uiso   1.00
O1419  O     0.34171   0.91041   0.78777   0.00000  Uiso   1.00
O1420  O     0.76647   0.15851   0.89927   0.00000  Uiso   1.00
N1421  N     0.88581   0.41420   0.54488   0.00000  Uiso   1.00
N1422  N     0.38568   0.90535   0.82512   0.00000  Uiso   1.00
N1423  N     0.68836   0.08216   0.90457   0.00000  Uiso   1.00
N1424  N     0.92413   0.42941   0.50582   0.00000  Uiso   1.00
N1425  N     0.42400   0.92056   0.78607   0.00000  Uiso   1.00
N1426  N     0.72668   0.09737   0.86552   0.00000  Uiso   1.00
C1427  C     0.20549   0.24367   0.20608   0.00000  Uiso   1.00
C1428  C     0.21862   0.20252   0.19804   0.00000  Uiso   1.00
C1429  C     0.54165   0.82612   0.87970   0.00000  Uiso   1.00
C1430  C     0.55670   0.79306   0.86886   0.00000  Uiso   1.00
C1431  C     0.57335   0.72768   0.86017   0.00000  Uiso   1.00
C1432  C     0.17265   0.24601   0.18341   0.00000  Uiso   1.00
C1433  C     0.12369   0.23950   0.18610   0.00000  Uiso   1.00
C1434  C     0.10004   0.24306   0.16294   0.00000  Uiso   1.00
C1435  C     0.04533   0.24523   0.13154   0.00000  Uiso   1.00
C1436  C     0.25607   0.29473   0.20531   0.00000  Uiso   1.00
C1437  C     0.27724   0.32920   0.22641   0.00000  Uiso   1.00
C1438  C     0.32383   0.37379   0.22168   0.00000  Uiso   1.00
C1439  C     0.39864   0.45161   0.22428   0.00000  Uiso   1.00
C1440  C     0.25055   0.26156   0.16015   0.00000  Uiso   1.00
C1441  C     0.24310   0.21224   0.17310   0.00000  Uiso   1.00
C1442  C     0.25817   0.17924   0.16223   0.00000  Uiso   1.00
C1443  C     0.58122   0.80280   0.84387   0.00000  Uiso   1.00
C1444  C     0.19712   0.25573   0.15846   0.00000  Uiso   1.00
C1445  C     0.17354   0.25930   0.13529   0.00000  Uiso   1.00
C1446  C     0.12456   0.25280   0.13795   0.00000  Uiso   1.00
C1447  C     0.28054   0.30445   0.18036   0.00000  Uiso   1.00
C1448  C     0.32710   0.34899   0.17560   0.00000  Uiso   1.00
C1449  C     0.34834   0.38352   0.19669   0.00000  Uiso   1.00
H1450  H     0.18643   0.23610   0.22549   0.00000  Uiso   1.00
H1451  H     0.52270   0.81861   0.89901   0.00000  Uiso   1.00
H1452  H     0.10476   0.23199   0.20541   0.00000  Uiso   1.00
H1453  H     0.25829   0.32167   0.24571   0.00000  Uiso   1.00
H1454  H     0.53674   0.72957   0.89559   0.00000  Uiso   1.00
H1455  H     0.02500   0.23171   0.17214   0.00000  Uiso   1.00
H1456  H     0.34876   0.42082   0.25712   0.00000  Uiso   1.00
H1457  H     0.26960   0.26913   0.14073   0.00000  Uiso   1.00
H1458  H     0.27711   0.18677   0.14292   0.00000  Uiso   1.00
H1459  H     0.19250   0.26682   0.11599   0.00000  Uiso   1.00
H1460  H     0.34603   0.35650   0.15629   0.00000  Uiso   1.00
H1461  H     0.60795   0.75784   0.82301   0.00000  Uiso   1.00
H1462  H     0.09621   0.25998   0.09956   0.00000  Uiso   1.00
H1463  H     0.41997   0.44909   0.18455   0.00000  Uiso   1.00
O1464  O     0.57577   0.68893   0.86227   0.00000  Uiso   1.00
O1465  O     0.00838   0.24374   0.12111   0.00000  Uiso   1.00
O1466  O     0.43314   0.49184   0.23260   0.00000  Uiso   1.00
N1467  N     0.55248   0.74753   0.87821   0.00000  Uiso   1.00
N1468  N     0.05234   0.23868   0.15845   0.00000  Uiso   1.00
N1469  N     0.35502   0.41549   0.23790   0.00000  Uiso   1.00
N1470  N     0.59080   0.76275   0.83916   0.00000  Uiso   1.00
N1471  N     0.09066   0.25389   0.11940   0.00000  Uiso   1.00
N1472  N     0.39334   0.43070   0.19885   0.00000  Uiso   1.00
C1473  C     0.87215   0.57700   0.53941   0.00000  Uiso   1.00
C1474  C     0.88529   0.53585   0.53137   0.00000  Uiso   1.00
C1475  C     0.20832   0.15945   0.21304   0.00000  Uiso   1.00
C1476  C     0.22337   0.12639   0.20219   0.00000  Uiso   1.00
C1477  C     0.24002   0.06101   0.19350   0.00000  Uiso   1.00
C1478  C     0.83931   0.57934   0.51674   0.00000  Uiso   1.00
C1479  C     0.79035   0.57284   0.51943   0.00000  Uiso   1.00
C1480  C     0.76671   0.57640   0.49627   0.00000  Uiso   1.00
C1481  C     0.71199   0.57857   0.46487   0.00000  Uiso   1.00
C1482  C     0.92273   0.62806   0.53864   0.00000  Uiso   1.00
C1483  C     0.94391   0.66254   0.55974   0.00000  Uiso   1.00
C1484  C     0.99049   0.70712   0.55501   0.00000  Uiso   1.00
C1485  C     0.06530   0.78494   0.55761   0.00000  Uiso   1.00
C1486  C     0.91721   0.59489   0.49348   0.00000  Uiso   1.00
C1487  C     0.90976   0.54557   0.50643   0.00000  Uiso   1.00
C1488  C     0.92484   0.51258   0.49556   0.00000  Uiso   1.00
C1489  C     0.24789   0.13613   0.17720   0.00000  Uiso   1.00
C1490  C     0.86379   0.58906   0.49180   0.00000  Uiso   1.00
C1491  C     0.84021   0.59263   0.46862   0.00000  Uiso   1.00
C1492  C     0.79122   0.58613   0.47128   0.00000  Uiso   1.00
C1493  C     0.94721   0.63778   0.51369   0.00000  Uiso   1.00
C1494  C     0.99377   0.68233   0.50893   0.00000  Uiso   1.00
C1495  C     0.01501   0.71686   0.53002   0.00000  Uiso   1.00
H1496  H     0.85310   0.56943   0.55883   0.00000  Uiso   1.00
H1497  H     0.18937   0.15194   0.23234   0.00000  Uiso   1.00
H1498  H     0.77142   0.56532   0.53874   0.00000  Uiso   1.00
H1499  H     0.92496   0.65500   0.57904   0.00000  Uiso   1.00
H1500  H     0.20341   0.06290   0.22892   0.00000  Uiso   1.00
H1501  H     0.69167   0.56504   0.50547   0.00000  Uiso   1.00
H1502  H     0.01543   0.75415   0.59045   0.00000  Uiso   1.00
H1503  H     0.93627   0.60246   0.47406   0.00000  Uiso   1.00
H1504  H     0.94378   0.52011   0.47626   0.00000  Uiso   1.00
H1505  H     0.85916   0.60016   0.44933   0.00000  Uiso   1.00
H1506  H     0.01270   0.68984   0.48963   0.00000  Uiso   1.00
H1507  H     0.27462   0.09118   0.15635   0.00000  Uiso   1.00
H1508  H     0.76288   0.59332   0.43290   0.00000  Uiso   1.00
H1509  H     0.08664   0.78243   0.51788   0.00000  Uiso   1.00
O1510  O     0.24243   0.02226   0.19560   0.00000  Uiso   1.00
O1511  O     0.67505   0.57707   0.45444   0.00000  Uiso   1.00
O1512  O     0.09981   0.82518   0.56593   0.00000  Uiso   1.00
N1513  N     0.21915   0.08087   0.21154   0.00000  Uiso   1.00
N1514  N     0.71901   0.57201   0.49179   0.00000  Uiso   1.00
N1515  N     0.02169   0.74882   0.57124   0.00000  Uiso   1.00
N1516  N     0.25746   0.09608   0.17249   0.00000  Uiso   1.00
N1517  N     0.75733   0.58723   0.45274   0.00000  Uiso   1.00
N1518  N     0.06001   0.76404   0.53218   0.00000  Uiso   1.00
C1519  C     0.37151   0.46118   0.87274   0.00000  Uiso   1.00
C1520  C     0.31723   0.44804   0.86471   0.00000  Uiso   1.00
C1521  C     0.61780   0.12502   0.54637   0.00000  Uiso   1.00
C1522  C     0.56969   0.10997   0.53553   0.00000  Uiso   1.00
C1523  C     0.48766   0.09332   0.52684   0.00000  Uiso   1.00
C1524  C     0.40670   0.49402   0.85007   0.00000  Uiso   1.00
C1525  C     0.44915   0.54298   0.85277   0.00000  Uiso   1.00
C1526  C     0.47636   0.56663   0.82961   0.00000  Uiso   1.00
C1527  C     0.53324   0.62134   0.79820   0.00000  Uiso   1.00
C1528  C     0.37200   0.41060   0.87197   0.00000  Uiso   1.00
C1529  C     0.38529   0.38942   0.89308   0.00000  Uiso   1.00
C1530  C     0.38330   0.34284   0.88835   0.00000  Uiso   1.00
C1531  C     0.38631   0.26803   0.89094   0.00000  Uiso   1.00
C1532  C     0.34434   0.41612   0.82682   0.00000  Uiso   1.00
C1533  C     0.30248   0.42357   0.83976   0.00000  Uiso   1.00
C1534  C     0.25441   0.40850   0.82889   0.00000  Uiso   1.00
C1535  C     0.55491   0.08544   0.51054   0.00000  Uiso   1.00
C1536  C     0.39194   0.46955   0.82513   0.00000  Uiso   1.00
C1537  C     0.41909   0.49313   0.80196   0.00000  Uiso   1.00
C1538  C     0.46157   0.54211   0.80462   0.00000  Uiso   1.00
C1539  C     0.35724   0.38612   0.84703   0.00000  Uiso   1.00
C1540  C     0.35523   0.33957   0.84226   0.00000  Uiso   1.00
C1541  C     0.36851   0.31832   0.86336   0.00000  Uiso   1.00
H1542  H     0.38301   0.48024   0.89216   0.00000  Uiso   1.00
H1543  H     0.62924   0.14396   0.56567   0.00000  Uiso   1.00
H1544  H     0.46056   0.56191   0.87207   0.00000  Uiso   1.00
H1545  H     0.39671   0.40838   0.91238   0.00000  Uiso   1.00
H1546  H     0.52617   0.12993   0.56225   0.00000  Uiso   1.00
H1547  H     0.54004   0.64166   0.83880   0.00000  Uiso   1.00
H1548  H     0.40539   0.31791   0.92379   0.00000  Uiso   1.00
H1549  H     0.33286   0.39706   0.80740   0.00000  Uiso   1.00
H1550  H     0.24300   0.38956   0.80959   0.00000  Uiso   1.00
H1551  H     0.40766   0.47417   0.78266   0.00000  Uiso   1.00
H1552  H     0.34381   0.32064   0.82296   0.00000  Uiso   1.00
H1553  H     0.48323   0.05872   0.48968   0.00000  Uiso   1.00
H1554  H     0.49710   0.57045   0.76623   0.00000  Uiso   1.00
H1555  H     0.36245   0.24670   0.85121   0.00000  Uiso   1.00
O1556  O     0.44650   0.09090   0.52894   0.00000  Uiso   1.00
O1557  O     0.56869   0.65829   0.78777   0.00000  Uiso   1.00
O1558  O     0.39204   0.23353   0.89927   0.00000  Uiso   1.00
N1559  N     0.52839   0.11419   0.54488   0.00000  Uiso   1.00
N1560  N     0.51967   0.61432   0.82512   0.00000  Uiso   1.00
N1561  N     0.39380   0.31164   0.90457   0.00000  Uiso   1.00
N1562  N     0.50528   0.07587   0.50582   0.00000  Uiso   1.00
N1563  N     0.49656   0.57600   0.78607   0.00000  Uiso   1.00
N1564  N     0.37069   0.27332   0.86552   0.00000  Uiso   1.00
C1565  C     0.03818   0.79451   0.20608   0.00000  Uiso   1.00
C1566  C     0.98390   0.78138   0.19804   0.00000  Uiso   1.00
C1567  C     0.28447   0.45835   0.87970   0.00000  Uiso   1.00
C1568  C     0.23636   0.44330   0.86886   0.00000  Uiso   1.00
C1569  C     0.15433   0.42665   0.86017   0.00000  Uiso   1.00
C1570  C     0.07336   0.82735   0.18341   0.00000  Uiso   1.00
C1571  C     0.11582   0.87631   0.18610   0.00000  Uiso   1.00
C1572  C     0.14302   0.89996   0.16294   0.00000  Uiso   1.00
C1573  C     0.19991   0.95467   0.13154   0.00000  Uiso   1.00
C1574  C     0.03866   0.74393   0.20531   0.00000  Uiso   1.00
C1575  C     0.05196   0.72276   0.22641   0.00000  Uiso   1.00
C1576  C     0.04996   0.67617   0.22168   0.00000  Uiso   1.00
C1577  C     0.05297   0.60136   0.22428   0.00000  Uiso   1.00
C1578  C     0.01101   0.74945   0.16015   0.00000  Uiso   1.00
C1579  C     0.96914   0.75690   0.17310   0.00000  Uiso   1.00
C1580  C     0.92107   0.74183   0.16223   0.00000  Uiso   1.00
C1581  C     0.22157   0.41878   0.84387   0.00000  Uiso   1.00
C1582  C     0.05861   0.80288   0.15846   0.00000  Uiso   1.00
C1583  C     0.08576   0.82646   0.13529   0.00000  Uiso   1.00
C1584  C     0.12824   0.87544   0.13795   0.00000  Uiso   1.00
C1585  C     0.02391   0.71946   0.18036   0.00000  Uiso   1.00
C1586  C     0.02189   0.67290   0.17560   0.00000  Uiso   1.00
C1587  C     0.03518   0.65166   0.19669   0.00000  Uiso   1.00
H1588  H     0.04967   0.81357   0.22549   0.00000  Uiso   1.00
H1589  H     0.29590   0.47730   0.89901   0.00000  Uiso   1.00
H1590  H     0.12723   0.89524   0.20541   0.00000  Uiso   1.00
H1591  H     0.06338   0.74171   0.24571   0.00000  Uiso   1.00
H1592  H     0.19283   0.46326   0.89559   0.00000  Uiso   1.00
H1593  H     0.20671   0.97500   0.17214   0.00000  Uiso   1.00
H1594  H     0.07206   0.65124   0.25712   0.00000  Uiso   1.00
H1595  H     0.99952   0.73040   0.14073   0.00000  Uiso   1.00
H1596  H     0.90966   0.72289   0.14292   0.00000  Uiso   1.00
H1597  H     0.07433   0.80750   0.11599   0.00000  Uiso   1.00
H1598  H     0.01047   0.65397   0.15629   0.00000  Uiso   1.00
H1599  H     0.14989   0.39205   0.82301   0.00000  Uiso   1.00
H1600  H     0.16377   0.90379   0.09956   0.00000  Uiso   1.00
H1601  H     0.02912   0.58003   0.18455   0.00000  Uiso   1.00
O1602  O     0.11316   0.42423   0.86227   0.00000  Uiso   1.00
O1603  O     0.23536   0.99162   0.12111   0.00000  Uiso   1.00
O1604  O     0.05870   0.56686   0.23260   0.00000  Uiso   1.00
N1605  N     0.19505   0.44752   0.87821   0.00000  Uiso   1.00
N1606  N     0.18634   0.94766   0.15845   0.00000  Uiso   1.00
N1607  N     0.06047   0.64498   0.23790   0.00000  Uiso   1.00
N1608  N     0.17195   0.40920   0.83916   0.00000  Uiso   1.00
N1609  N     0.16323   0.90934   0.11940   0.00000  Uiso   1.00
N1610  N     0.03736   0.60666   0.19885   0.00000  Uiso   1.00
C1611  C     0.70485   0.12785   0.53941   0.00000  Uiso   1.00
C1612  C     0.65057   0.11471   0.53137   0.00000  Uiso   1.00
C1613  C     0.95113   0.79168   0.21304   0.00000  Uiso   1.00
C1614  C     0.90303   0.77663   0.20219   0.00000  Uiso   1.00
C1615  C     0.82100   0.75998   0.19350   0.00000  Uiso   1.00
C1616  C     0.74003   0.16069   0.51674   0.00000  Uiso   1.00
C1617  C     0.78248   0.20965   0.51943   0.00000  Uiso   1.00
C1618  C     0.80969   0.23329   0.49627   0.00000  Uiso   1.00
C1619  C     0.86657   0.28801   0.46487   0.00000  Uiso   1.00
C1620  C     0.70533   0.07727   0.53864   0.00000  Uiso   1.00
C1621  C     0.71863   0.05609   0.55974   0.00000  Uiso   1.00
C1622  C     0.71663   0.00951   0.55501   0.00000  Uiso   1.00
C1623  C     0.71964   0.93470   0.55761   0.00000  Uiso   1.00
C1624  C     0.67768   0.08279   0.49348   0.00000  Uiso   1.00
C1625  C     0.63581   0.09024   0.50643   0.00000  Uiso   1.00
C1626  C     0.58774   0.07516   0.49556   0.00000  Uiso   1.00
C1627  C     0.88824   0.75211   0.17720   0.00000  Uiso   1.00
C1628  C     0.72527   0.13621   0.49180   0.00000  Uiso   1.00
C1629  C     0.75242   0.15979   0.46862   0.00000  Uiso   1.00
C1630  C     0.79491   0.20878   0.47128   0.00000  Uiso   1.00
C1631  C     0.69057   0.05279   0.51369   0.00000  Uiso   1.00
C1632  C     0.68856   0.00623   0.50893   0.00000  Uiso   1.00
C1633  C     0.70185   0.98499   0.53002   0.00000  Uiso   1.00
H1634  H     0.71634   0.14690   0.55883   0.00000  Uiso   1.00
H1635  H     0.96257   0.81063   0.23234   0.00000  Uiso   1.00
H1636  H     0.79390   0.22858   0.53874   0.00000  Uiso   1.00
H1637  H     0.73004   0.07504   0.57904   0.00000  Uiso   1.00
H1638  H     0.85950   0.79659   0.22892   0.00000  Uiso   1.00
H1639  H     0.87337   0.30833   0.50547   0.00000  Uiso   1.00
H1640  H     0.73873   0.98457   0.59045   0.00000  Uiso   1.00
H1641  H     0.66619   0.06373   0.47406   0.00000  Uiso   1.00
H1642  H     0.57633   0.05622   0.47626   0.00000  Uiso   1.00
H1643  H     0.74099   0.14084   0.44933   0.00000  Uiso   1.00
H1644  H     0.67714   0.98730   0.48963   0.00000  Uiso   1.00
H1645  H     0.81656   0.72538   0.15635   0.00000  Uiso   1.00
H1646  H     0.83044   0.23712   0.43290   0.00000  Uiso   1.00
H1647  H     0.69579   0.91336   0.51788   0.00000  Uiso   1.00
O1648  O     0.77983   0.75757   0.19560   0.00000  Uiso   1.00
O1649  O     0.90203   0.32495   0.45444   0.00000  Uiso   1.00
O1650  O     0.72537   0.90019   0.56593   0.00000  Uiso   1.00
N1651  N     0.86172   0.78085   0.21154   0.00000  Uiso   1.00
N1652  N     0.85300   0.28099   0.49179   0.00000  Uiso   1.00
N1653  N     0.72713   0.97831   0.57124   0.00000  Uiso   1.00
N1654  N     0.83861   0.74254   0.17249   0.00000  Uiso   1.00
N1655  N     0.82990   0.24267   0.45274   0.00000  Uiso   1.00
N1656  N     0.70403   0.93999   0.53218   0.00000  Uiso   1.00
