data_job_04876
_audit_creation_date              2018-12-19
_audit_creation_method            'Materials Studio'
_symmetry_space_group_name_H-M    'P1'
_symmetry_Int_Tables_number       1
_symmetry_cell_setting            triclinic
loop_
_symmetry_equiv_pos_as_xyz
  x,y,z
_cell_length_a                    22.4483
_cell_length_b                    17.3738
_cell_length_c                    24.0369
_cell_angle_alpha                 90.0000
_cell_angle_beta                  90.0000
_cell_angle_gamma                 90.0000
loop_
_atom_site_label
_atom_site_type_symbol
_atom_site_fract_x
_atom_site_fract_y
_atom_site_fract_z
_atom_site_U_iso_or_equiv
_atom_site_adp_type
_atom_site_occupancy
C1     C     0.18387   0.50045   0.69292   0.00000  Uiso   1.00
C2     C     0.16881   0.42516   0.66350   0.00000  Uiso   1.00
C3     C     0.18428   0.35202   0.68165   0.00000  Uiso   1.00
C4     C     0.16633   0.29049   0.64883   0.00000  Uiso   1.00
C5     C     0.14786   0.17188   0.61061   0.00000  Uiso   1.00
C6     C     0.21748   0.54920   0.65052   0.00000  Uiso   1.00
C7     C     0.27387   0.58036   0.65777   0.00000  Uiso   1.00
C8     C     0.29689   0.62326   0.61403   0.00000  Uiso   1.00
C9     C     0.35397   0.69727   0.55568   0.00000  Uiso   1.00
C10    C     0.12464   0.54121   0.70269   0.00000  Uiso   1.00
C11    C     0.10297   0.56568   0.75379   0.00000  Uiso   1.00
C12    C     0.04783   0.60186   0.75397   0.00000  Uiso   1.00
C13    C     0.96076   0.66347   0.77661   0.00000  Uiso   1.00
C14    C     0.12447   0.52123   0.60236   0.00000  Uiso   1.00
C15    C     0.13654   0.43646   0.61431   0.00000  Uiso   1.00
C16    C     0.11855   0.37502   0.58145   0.00000  Uiso   1.00
C17    C     0.13400   0.30180   0.59955   0.00000  Uiso   1.00
C18    C     0.18521   0.56050   0.60133   0.00000  Uiso   1.00
C19    C     0.20814   0.60336   0.55757   0.00000  Uiso   1.00
C20    C     0.26456   0.63457   0.56475   0.00000  Uiso   1.00
C21    C     0.09236   0.55251   0.65350   0.00000  Uiso   1.00
C22    C     0.03724   0.58867   0.65359   0.00000  Uiso   1.00
C23    C     0.01550   0.61318   0.70469   0.00000  Uiso   1.00
H24    H     0.20900   0.49166   0.73122   0.00000  Uiso   1.00
H25    H     0.20926   0.34331   0.71972   0.00000  Uiso   1.00
H26    H     0.29883   0.57162   0.69584   0.00000  Uiso   1.00
H27    H     0.12796   0.55693   0.79185   0.00000  Uiso   1.00
H28    H     0.19534   0.18381   0.68526   0.00000  Uiso   1.00
H29    H     0.38420   0.66525   0.63493   0.00000  Uiso   1.00
H30    H     0.02388   0.63427   0.83738   0.00000  Uiso   1.00
H31    H     0.09934   0.53003   0.56406   0.00000  Uiso   1.00
H32    H     0.09358   0.38378   0.54339   0.00000  Uiso   1.00
H33    H     0.18316   0.61209   0.51952   0.00000  Uiso   1.00
H34    H     0.01228   0.59740   0.61552   0.00000  Uiso   1.00
H35    H     0.10145   0.21666   0.54215   0.00000  Uiso   1.00
H36    H     0.29031   0.69810   0.49181   0.00000  Uiso   1.00
H37    H     0.92999   0.66712   0.69426   0.00000  Uiso   1.00
O38    O     0.14660   0.10334   0.60311   0.00000  Uiso   1.00
O39    O     0.39437   0.73497   0.53708   0.00000  Uiso   1.00
O40    O     0.92164   0.69432   0.80269   0.00000  Uiso   1.00
N41    N     0.17402   0.21161   0.65442   0.00000  Uiso   1.00
N42    N     0.35060   0.66171   0.60736   0.00000  Uiso   1.00
N43    N     0.01373   0.63277   0.79663   0.00000  Uiso   1.00
N44    N     0.12350   0.22929   0.57741   0.00000  Uiso   1.00
N45    N     0.30008   0.67939   0.53035   0.00000  Uiso   1.00
N46    N     0.96322   0.65045   0.71962   0.00000  Uiso   1.00
C47    C     0.68387   0.00045   0.69292   0.00000  Uiso   1.00
C48    C     0.66881   0.92516   0.66350   0.00000  Uiso   1.00
C49    C     0.68428   0.85202   0.68165   0.00000  Uiso   1.00
C50    C     0.66633   0.79049   0.64883   0.00000  Uiso   1.00
C51    C     0.64786   0.67188   0.61061   0.00000  Uiso   1.00
C52    C     0.71748   0.04920   0.65052   0.00000  Uiso   1.00
C53    C     0.77387   0.08036   0.65777   0.00000  Uiso   1.00
C54    C     0.79689   0.12326   0.61403   0.00000  Uiso   1.00
C55    C     0.85397   0.19727   0.55568   0.00000  Uiso   1.00
C56    C     0.62464   0.04121   0.70269   0.00000  Uiso   1.00
C57    C     0.60297   0.06568   0.75379   0.00000  Uiso   1.00
C58    C     0.54783   0.10186   0.75397   0.00000  Uiso   1.00
C59    C     0.46076   0.16347   0.77661   0.00000  Uiso   1.00
C60    C     0.62447   0.02123   0.60236   0.00000  Uiso   1.00
C61    C     0.63654   0.93646   0.61431   0.00000  Uiso   1.00
C62    C     0.61855   0.87502   0.58145   0.00000  Uiso   1.00
C63    C     0.63400   0.80180   0.59955   0.00000  Uiso   1.00
C64    C     0.68521   0.06050   0.60133   0.00000  Uiso   1.00
C65    C     0.70814   0.10336   0.55757   0.00000  Uiso   1.00
C66    C     0.76456   0.13457   0.56475   0.00000  Uiso   1.00
C67    C     0.59236   0.05251   0.65350   0.00000  Uiso   1.00
C68    C     0.53724   0.08867   0.65359   0.00000  Uiso   1.00
C69    C     0.51550   0.11318   0.70469   0.00000  Uiso   1.00
H70    H     0.70900   0.99166   0.73122   0.00000  Uiso   1.00
H71    H     0.70926   0.84331   0.71972   0.00000  Uiso   1.00
H72    H     0.79883   0.07162   0.69584   0.00000  Uiso   1.00
H73    H     0.62796   0.05693   0.79185   0.00000  Uiso   1.00
H74    H     0.69534   0.68381   0.68526   0.00000  Uiso   1.00
H75    H     0.88420   0.16525   0.63493   0.00000  Uiso   1.00
H76    H     0.52388   0.13427   0.83738   0.00000  Uiso   1.00
H77    H     0.59934   0.03003   0.56406   0.00000  Uiso   1.00
H78    H     0.59358   0.88378   0.54339   0.00000  Uiso   1.00
H79    H     0.68316   0.11209   0.51952   0.00000  Uiso   1.00
H80    H     0.51228   0.09740   0.61552   0.00000  Uiso   1.00
H81    H     0.60145   0.71666   0.54215   0.00000  Uiso   1.00
H82    H     0.79031   0.19810   0.49181   0.00000  Uiso   1.00
H83    H     0.42999   0.16712   0.69426   0.00000  Uiso   1.00
O84    O     0.64660   0.60334   0.60311   0.00000  Uiso   1.00
O85    O     0.89437   0.23497   0.53708   0.00000  Uiso   1.00
O86    O     0.42164   0.19432   0.80269   0.00000  Uiso   1.00
N87    N     0.67402   0.71161   0.65442   0.00000  Uiso   1.00
N88    N     0.85060   0.16171   0.60736   0.00000  Uiso   1.00
N89    N     0.51373   0.13277   0.79663   0.00000  Uiso   1.00
N90    N     0.62350   0.72929   0.57741   0.00000  Uiso   1.00
N91    N     0.80008   0.17939   0.53035   0.00000  Uiso   1.00
N92    N     0.46322   0.15045   0.71962   0.00000  Uiso   1.00
C93    C     0.31613   0.99955   0.69292   0.00000  Uiso   1.00
C94    C     0.33119   0.07484   0.66350   0.00000  Uiso   1.00
C95    C     0.31572   0.14798   0.68165   0.00000  Uiso   1.00
C96    C     0.33367   0.20951   0.64883   0.00000  Uiso   1.00
C97    C     0.35214   0.32812   0.61061   0.00000  Uiso   1.00
C98    C     0.28252   0.95080   0.65052   0.00000  Uiso   1.00
C99    C     0.22613   0.91964   0.65777   0.00000  Uiso   1.00
C100   C     0.20311   0.87674   0.61403   0.00000  Uiso   1.00
C101   C     0.14603   0.80273   0.55568   0.00000  Uiso   1.00
C102   C     0.37536   0.95879   0.70269   0.00000  Uiso   1.00
C103   C     0.39703   0.93432   0.75379   0.00000  Uiso   1.00
C104   C     0.45217   0.89814   0.75397   0.00000  Uiso   1.00
C105   C     0.53924   0.83653   0.77661   0.00000  Uiso   1.00
C106   C     0.37553   0.97877   0.60236   0.00000  Uiso   1.00
C107   C     0.36346   0.06354   0.61431   0.00000  Uiso   1.00
C108   C     0.38145   0.12498   0.58145   0.00000  Uiso   1.00
C109   C     0.36600   0.19820   0.59955   0.00000  Uiso   1.00
C110   C     0.31479   0.93950   0.60133   0.00000  Uiso   1.00
C111   C     0.29186   0.89664   0.55757   0.00000  Uiso   1.00
C112   C     0.23544   0.86543   0.56475   0.00000  Uiso   1.00
C113   C     0.40764   0.94749   0.65350   0.00000  Uiso   1.00
C114   C     0.46276   0.91133   0.65359   0.00000  Uiso   1.00
C115   C     0.48450   0.88682   0.70469   0.00000  Uiso   1.00
H116   H     0.29100   0.00834   0.73122   0.00000  Uiso   1.00
H117   H     0.29074   0.15669   0.71972   0.00000  Uiso   1.00
H118   H     0.20117   0.92838   0.69584   0.00000  Uiso   1.00
H119   H     0.37204   0.94307   0.79185   0.00000  Uiso   1.00
H120   H     0.30466   0.31619   0.68526   0.00000  Uiso   1.00
H121   H     0.11580   0.83475   0.63493   0.00000  Uiso   1.00
H122   H     0.47612   0.86573   0.83738   0.00000  Uiso   1.00
H123   H     0.40066   0.96997   0.56406   0.00000  Uiso   1.00
H124   H     0.40642   0.11622   0.54339   0.00000  Uiso   1.00
H125   H     0.31684   0.88791   0.51952   0.00000  Uiso   1.00
H126   H     0.48772   0.90260   0.61552   0.00000  Uiso   1.00
H127   H     0.39855   0.28334   0.54215   0.00000  Uiso   1.00
H128   H     0.20969   0.80190   0.49181   0.00000  Uiso   1.00
H129   H     0.57001   0.83288   0.69426   0.00000  Uiso   1.00
O130   O     0.35340   0.39666   0.60311   0.00000  Uiso   1.00
O131   O     0.10563   0.76503   0.53708   0.00000  Uiso   1.00
O132   O     0.57836   0.80568   0.80269   0.00000  Uiso   1.00
N133   N     0.32598   0.28839   0.65442   0.00000  Uiso   1.00
N134   N     0.14940   0.83829   0.60736   0.00000  Uiso   1.00
N135   N     0.48627   0.86723   0.79663   0.00000  Uiso   1.00
N136   N     0.37650   0.27071   0.57741   0.00000  Uiso   1.00
N137   N     0.19992   0.82061   0.53035   0.00000  Uiso   1.00
N138   N     0.53678   0.84955   0.71962   0.00000  Uiso   1.00
C139   C     0.81613   0.49955   0.69292   0.00000  Uiso   1.00
C140   C     0.83119   0.57484   0.66350   0.00000  Uiso   1.00
C141   C     0.81572   0.64798   0.68165   0.00000  Uiso   1.00
C142   C     0.83367   0.70951   0.64883   0.00000  Uiso   1.00
C143   C     0.85214   0.82812   0.61061   0.00000  Uiso   1.00
C144   C     0.78252   0.45080   0.65052   0.00000  Uiso   1.00
C145   C     0.72613   0.41964   0.65777   0.00000  Uiso   1.00
C146   C     0.70311   0.37674   0.61403   0.00000  Uiso   1.00
C147   C     0.64603   0.30273   0.55568   0.00000  Uiso   1.00
C148   C     0.87536   0.45879   0.70269   0.00000  Uiso   1.00
C149   C     0.89703   0.43432   0.75379   0.00000  Uiso   1.00
C150   C     0.95217   0.39814   0.75397   0.00000  Uiso   1.00
C151   C     0.03924   0.33653   0.77661   0.00000  Uiso   1.00
C152   C     0.87553   0.47877   0.60236   0.00000  Uiso   1.00
C153   C     0.86346   0.56354   0.61431   0.00000  Uiso   1.00
C154   C     0.88145   0.62498   0.58145   0.00000  Uiso   1.00
C155   C     0.86600   0.69820   0.59955   0.00000  Uiso   1.00
C156   C     0.81479   0.43950   0.60133   0.00000  Uiso   1.00
C157   C     0.79186   0.39664   0.55757   0.00000  Uiso   1.00
C158   C     0.73544   0.36543   0.56475   0.00000  Uiso   1.00
C159   C     0.90764   0.44749   0.65350   0.00000  Uiso   1.00
C160   C     0.96276   0.41133   0.65359   0.00000  Uiso   1.00
C161   C     0.98450   0.38682   0.70469   0.00000  Uiso   1.00
H162   H     0.79100   0.50834   0.73122   0.00000  Uiso   1.00
H163   H     0.79074   0.65669   0.71972   0.00000  Uiso   1.00
H164   H     0.70117   0.42838   0.69584   0.00000  Uiso   1.00
H165   H     0.87204   0.44307   0.79185   0.00000  Uiso   1.00
H166   H     0.80466   0.81619   0.68526   0.00000  Uiso   1.00
H167   H     0.61580   0.33475   0.63493   0.00000  Uiso   1.00
H168   H     0.97612   0.36573   0.83738   0.00000  Uiso   1.00
H169   H     0.90066   0.46997   0.56406   0.00000  Uiso   1.00
H170   H     0.90642   0.61622   0.54339   0.00000  Uiso   1.00
H171   H     0.81684   0.38791   0.51952   0.00000  Uiso   1.00
H172   H     0.98772   0.40260   0.61552   0.00000  Uiso   1.00
H173   H     0.89855   0.78334   0.54215   0.00000  Uiso   1.00
H174   H     0.70969   0.30190   0.49181   0.00000  Uiso   1.00
H175   H     0.07001   0.33288   0.69426   0.00000  Uiso   1.00
O176   O     0.85340   0.89666   0.60311   0.00000  Uiso   1.00
O177   O     0.60563   0.26503   0.53708   0.00000  Uiso   1.00
O178   O     0.07836   0.30568   0.80269   0.00000  Uiso   1.00
N179   N     0.82598   0.78839   0.65442   0.00000  Uiso   1.00
N180   N     0.64940   0.33829   0.60736   0.00000  Uiso   1.00
N181   N     0.98627   0.36723   0.79663   0.00000  Uiso   1.00
N182   N     0.87650   0.77071   0.57741   0.00000  Uiso   1.00
N183   N     0.69992   0.32061   0.53035   0.00000  Uiso   1.00
N184   N     0.03678   0.34955   0.71962   0.00000  Uiso   1.00
C185   C     0.81613   0.50045   0.30708   0.00000  Uiso   1.00
C186   C     0.83119   0.42516   0.33650   0.00000  Uiso   1.00
C187   C     0.81572   0.35202   0.31835   0.00000  Uiso   1.00
C188   C     0.83367   0.29049   0.35117   0.00000  Uiso   1.00
C189   C     0.85214   0.17188   0.38939   0.00000  Uiso   1.00
C190   C     0.78252   0.54920   0.34948   0.00000  Uiso   1.00
C191   C     0.72613   0.58036   0.34223   0.00000  Uiso   1.00
C192   C     0.70311   0.62326   0.38597   0.00000  Uiso   1.00
C193   C     0.64603   0.69727   0.44432   0.00000  Uiso   1.00
C194   C     0.87536   0.54121   0.29731   0.00000  Uiso   1.00
C195   C     0.89703   0.56568   0.24621   0.00000  Uiso   1.00
C196   C     0.95217   0.60186   0.24603   0.00000  Uiso   1.00
C197   C     0.03924   0.66347   0.22339   0.00000  Uiso   1.00
C198   C     0.87553   0.52123   0.39764   0.00000  Uiso   1.00
C199   C     0.86346   0.43646   0.38569   0.00000  Uiso   1.00
C200   C     0.88145   0.37502   0.41855   0.00000  Uiso   1.00
C201   C     0.86600   0.30180   0.40045   0.00000  Uiso   1.00
C202   C     0.81479   0.56050   0.39867   0.00000  Uiso   1.00
C203   C     0.79186   0.60336   0.44243   0.00000  Uiso   1.00
C204   C     0.73544   0.63457   0.43525   0.00000  Uiso   1.00
C205   C     0.90764   0.55251   0.34650   0.00000  Uiso   1.00
C206   C     0.96276   0.58867   0.34641   0.00000  Uiso   1.00
C207   C     0.98450   0.61318   0.29531   0.00000  Uiso   1.00
H208   H     0.79100   0.49166   0.26878   0.00000  Uiso   1.00
H209   H     0.79074   0.34331   0.28028   0.00000  Uiso   1.00
H210   H     0.70117   0.57162   0.30416   0.00000  Uiso   1.00
H211   H     0.87204   0.55693   0.20815   0.00000  Uiso   1.00
H212   H     0.80466   0.18381   0.31474   0.00000  Uiso   1.00
H213   H     0.61580   0.66525   0.36507   0.00000  Uiso   1.00
H214   H     0.97612   0.63427   0.16262   0.00000  Uiso   1.00
H215   H     0.90066   0.53003   0.43594   0.00000  Uiso   1.00
H216   H     0.90642   0.38378   0.45661   0.00000  Uiso   1.00
H217   H     0.81684   0.61209   0.48048   0.00000  Uiso   1.00
H218   H     0.98772   0.59740   0.38448   0.00000  Uiso   1.00
H219   H     0.89855   0.21666   0.45785   0.00000  Uiso   1.00
H220   H     0.70969   0.69810   0.50819   0.00000  Uiso   1.00
H221   H     0.07001   0.66712   0.30574   0.00000  Uiso   1.00
O222   O     0.85340   0.10334   0.39689   0.00000  Uiso   1.00
O223   O     0.60563   0.73497   0.46292   0.00000  Uiso   1.00
O224   O     0.07836   0.69432   0.19731   0.00000  Uiso   1.00
N225   N     0.82598   0.21161   0.34558   0.00000  Uiso   1.00
N226   N     0.64940   0.66171   0.39264   0.00000  Uiso   1.00
N227   N     0.98627   0.63277   0.20337   0.00000  Uiso   1.00
N228   N     0.87650   0.22929   0.42259   0.00000  Uiso   1.00
N229   N     0.69992   0.67939   0.46965   0.00000  Uiso   1.00
N230   N     0.03678   0.65045   0.28038   0.00000  Uiso   1.00
C231   C     0.31613   0.00045   0.30708   0.00000  Uiso   1.00
C232   C     0.33119   0.92516   0.33650   0.00000  Uiso   1.00
C233   C     0.31572   0.85202   0.31835   0.00000  Uiso   1.00
C234   C     0.33367   0.79049   0.35117   0.00000  Uiso   1.00
C235   C     0.35214   0.67188   0.38939   0.00000  Uiso   1.00
C236   C     0.28252   0.04920   0.34948   0.00000  Uiso   1.00
C237   C     0.22613   0.08036   0.34223   0.00000  Uiso   1.00
C238   C     0.20311   0.12326   0.38597   0.00000  Uiso   1.00
C239   C     0.14603   0.19727   0.44432   0.00000  Uiso   1.00
C240   C     0.37536   0.04121   0.29731   0.00000  Uiso   1.00
C241   C     0.39703   0.06568   0.24621   0.00000  Uiso   1.00
C242   C     0.45217   0.10186   0.24603   0.00000  Uiso   1.00
C243   C     0.53924   0.16347   0.22339   0.00000  Uiso   1.00
C244   C     0.37553   0.02123   0.39764   0.00000  Uiso   1.00
C245   C     0.36346   0.93646   0.38569   0.00000  Uiso   1.00
C246   C     0.38145   0.87502   0.41855   0.00000  Uiso   1.00
C247   C     0.36600   0.80180   0.40045   0.00000  Uiso   1.00
C248   C     0.31479   0.06050   0.39867   0.00000  Uiso   1.00
C249   C     0.29186   0.10336   0.44243   0.00000  Uiso   1.00
C250   C     0.23544   0.13457   0.43525   0.00000  Uiso   1.00
C251   C     0.40764   0.05251   0.34650   0.00000  Uiso   1.00
C252   C     0.46276   0.08867   0.34641   0.00000  Uiso   1.00
C253   C     0.48450   0.11318   0.29531   0.00000  Uiso   1.00
H254   H     0.29100   0.99166   0.26878   0.00000  Uiso   1.00
H255   H     0.29074   0.84331   0.28028   0.00000  Uiso   1.00
H256   H     0.20117   0.07162   0.30416   0.00000  Uiso   1.00
H257   H     0.37204   0.05693   0.20815   0.00000  Uiso   1.00
H258   H     0.30466   0.68381   0.31474   0.00000  Uiso   1.00
H259   H     0.11580   0.16525   0.36507   0.00000  Uiso   1.00
H260   H     0.47612   0.13427   0.16262   0.00000  Uiso   1.00
H261   H     0.40066   0.03003   0.43594   0.00000  Uiso   1.00
H262   H     0.40642   0.88378   0.45661   0.00000  Uiso   1.00
H263   H     0.31684   0.11209   0.48048   0.00000  Uiso   1.00
H264   H     0.48772   0.09740   0.38448   0.00000  Uiso   1.00
H265   H     0.39855   0.71666   0.45785   0.00000  Uiso   1.00
H266   H     0.20969   0.19810   0.50819   0.00000  Uiso   1.00
H267   H     0.57001   0.16712   0.30574   0.00000  Uiso   1.00
O268   O     0.35340   0.60334   0.39689   0.00000  Uiso   1.00
O269   O     0.10563   0.23497   0.46292   0.00000  Uiso   1.00
O270   O     0.57836   0.19432   0.19731   0.00000  Uiso   1.00
N271   N     0.32598   0.71161   0.34558   0.00000  Uiso   1.00
N272   N     0.14940   0.16171   0.39264   0.00000  Uiso   1.00
N273   N     0.48627   0.13277   0.20337   0.00000  Uiso   1.00
N274   N     0.37650   0.72929   0.42259   0.00000  Uiso   1.00
N275   N     0.19992   0.17939   0.46965   0.00000  Uiso   1.00
N276   N     0.53678   0.15045   0.28038   0.00000  Uiso   1.00
C277   C     0.68387   0.99955   0.30708   0.00000  Uiso   1.00
C278   C     0.66881   0.07484   0.33650   0.00000  Uiso   1.00
C279   C     0.68428   0.14798   0.31835   0.00000  Uiso   1.00
C280   C     0.66633   0.20951   0.35117   0.00000  Uiso   1.00
C281   C     0.64786   0.32812   0.38939   0.00000  Uiso   1.00
C282   C     0.71748   0.95080   0.34948   0.00000  Uiso   1.00
C283   C     0.77387   0.91964   0.34223   0.00000  Uiso   1.00
C284   C     0.79689   0.87674   0.38597   0.00000  Uiso   1.00
C285   C     0.85397   0.80273   0.44432   0.00000  Uiso   1.00
C286   C     0.62464   0.95879   0.29731   0.00000  Uiso   1.00
C287   C     0.60297   0.93432   0.24621   0.00000  Uiso   1.00
C288   C     0.54783   0.89814   0.24603   0.00000  Uiso   1.00
C289   C     0.46076   0.83653   0.22339   0.00000  Uiso   1.00
C290   C     0.62447   0.97877   0.39764   0.00000  Uiso   1.00
C291   C     0.63654   0.06354   0.38569   0.00000  Uiso   1.00
C292   C     0.61855   0.12498   0.41855   0.00000  Uiso   1.00
C293   C     0.63400   0.19820   0.40045   0.00000  Uiso   1.00
C294   C     0.68521   0.93950   0.39867   0.00000  Uiso   1.00
C295   C     0.70814   0.89664   0.44243   0.00000  Uiso   1.00
C296   C     0.76456   0.86543   0.43525   0.00000  Uiso   1.00
C297   C     0.59236   0.94749   0.34650   0.00000  Uiso   1.00
C298   C     0.53724   0.91133   0.34641   0.00000  Uiso   1.00
C299   C     0.51550   0.88682   0.29531   0.00000  Uiso   1.00
H300   H     0.70900   0.00834   0.26878   0.00000  Uiso   1.00
H301   H     0.70926   0.15669   0.28028   0.00000  Uiso   1.00
H302   H     0.79883   0.92838   0.30416   0.00000  Uiso   1.00
H303   H     0.62796   0.94307   0.20815   0.00000  Uiso   1.00
H304   H     0.69534   0.31619   0.31474   0.00000  Uiso   1.00
H305   H     0.88420   0.83475   0.36507   0.00000  Uiso   1.00
H306   H     0.52388   0.86573   0.16262   0.00000  Uiso   1.00
H307   H     0.59934   0.96997   0.43594   0.00000  Uiso   1.00
H308   H     0.59358   0.11622   0.45661   0.00000  Uiso   1.00
H309   H     0.68316   0.88791   0.48048   0.00000  Uiso   1.00
H310   H     0.51228   0.90260   0.38448   0.00000  Uiso   1.00
H311   H     0.60145   0.28334   0.45785   0.00000  Uiso   1.00
H312   H     0.79031   0.80190   0.50819   0.00000  Uiso   1.00
H313   H     0.42999   0.83288   0.30574   0.00000  Uiso   1.00
O314   O     0.64660   0.39666   0.39689   0.00000  Uiso   1.00
O315   O     0.89437   0.76503   0.46292   0.00000  Uiso   1.00
O316   O     0.42164   0.80568   0.19731   0.00000  Uiso   1.00
N317   N     0.67402   0.28839   0.34558   0.00000  Uiso   1.00
N318   N     0.85060   0.83829   0.39264   0.00000  Uiso   1.00
N319   N     0.51373   0.86723   0.20337   0.00000  Uiso   1.00
N320   N     0.62350   0.27071   0.42259   0.00000  Uiso   1.00
N321   N     0.80008   0.82061   0.46965   0.00000  Uiso   1.00
N322   N     0.46322   0.84955   0.28038   0.00000  Uiso   1.00
C323   C     0.18387   0.49955   0.30708   0.00000  Uiso   1.00
C324   C     0.16881   0.57484   0.33650   0.00000  Uiso   1.00
C325   C     0.18428   0.64798   0.31835   0.00000  Uiso   1.00
C326   C     0.16633   0.70951   0.35117   0.00000  Uiso   1.00
C327   C     0.14786   0.82812   0.38939   0.00000  Uiso   1.00
C328   C     0.21748   0.45080   0.34948   0.00000  Uiso   1.00
C329   C     0.27387   0.41964   0.34223   0.00000  Uiso   1.00
C330   C     0.29689   0.37674   0.38597   0.00000  Uiso   1.00
C331   C     0.35397   0.30273   0.44432   0.00000  Uiso   1.00
C332   C     0.12464   0.45879   0.29731   0.00000  Uiso   1.00
C333   C     0.10297   0.43432   0.24621   0.00000  Uiso   1.00
C334   C     0.04783   0.39814   0.24603   0.00000  Uiso   1.00
C335   C     0.96076   0.33653   0.22339   0.00000  Uiso   1.00
C336   C     0.12447   0.47877   0.39764   0.00000  Uiso   1.00
C337   C     0.13654   0.56354   0.38569   0.00000  Uiso   1.00
C338   C     0.11855   0.62498   0.41855   0.00000  Uiso   1.00
C339   C     0.13400   0.69820   0.40045   0.00000  Uiso   1.00
C340   C     0.18521   0.43950   0.39867   0.00000  Uiso   1.00
C341   C     0.20814   0.39664   0.44243   0.00000  Uiso   1.00
C342   C     0.26456   0.36543   0.43525   0.00000  Uiso   1.00
C343   C     0.09236   0.44749   0.34650   0.00000  Uiso   1.00
C344   C     0.03724   0.41133   0.34641   0.00000  Uiso   1.00
C345   C     0.01550   0.38682   0.29531   0.00000  Uiso   1.00
H346   H     0.20900   0.50834   0.26878   0.00000  Uiso   1.00
H347   H     0.20926   0.65669   0.28028   0.00000  Uiso   1.00
H348   H     0.29883   0.42838   0.30416   0.00000  Uiso   1.00
H349   H     0.12796   0.44307   0.20815   0.00000  Uiso   1.00
H350   H     0.19534   0.81619   0.31474   0.00000  Uiso   1.00
H351   H     0.38420   0.33475   0.36507   0.00000  Uiso   1.00
H352   H     0.02388   0.36573   0.16262   0.00000  Uiso   1.00
H353   H     0.09934   0.46997   0.43594   0.00000  Uiso   1.00
H354   H     0.09358   0.61622   0.45661   0.00000  Uiso   1.00
H355   H     0.18316   0.38791   0.48048   0.00000  Uiso   1.00
H356   H     0.01228   0.40260   0.38448   0.00000  Uiso   1.00
H357   H     0.10145   0.78334   0.45785   0.00000  Uiso   1.00
H358   H     0.29031   0.30190   0.50819   0.00000  Uiso   1.00
H359   H     0.92999   0.33288   0.30574   0.00000  Uiso   1.00
O360   O     0.14660   0.89666   0.39689   0.00000  Uiso   1.00
O361   O     0.39437   0.26503   0.46292   0.00000  Uiso   1.00
O362   O     0.92164   0.30568   0.19731   0.00000  Uiso   1.00
N363   N     0.17402   0.78839   0.34558   0.00000  Uiso   1.00
N364   N     0.35060   0.33829   0.39264   0.00000  Uiso   1.00
N365   N     0.01373   0.36723   0.20337   0.00000  Uiso   1.00
N366   N     0.12350   0.77071   0.42259   0.00000  Uiso   1.00
N367   N     0.30008   0.32061   0.46965   0.00000  Uiso   1.00
N368   N     0.96322   0.34955   0.28038   0.00000  Uiso   1.00
C369   C     0.81613   0.99955   0.80708   0.00000  Uiso   1.00
C370   C     0.83119   0.07484   0.83650   0.00000  Uiso   1.00
C371   C     0.81572   0.14798   0.81835   0.00000  Uiso   1.00
C372   C     0.83367   0.20951   0.85117   0.00000  Uiso   1.00
C373   C     0.85214   0.32812   0.88939   0.00000  Uiso   1.00
C374   C     0.78252   0.95080   0.84948   0.00000  Uiso   1.00
C375   C     0.72613   0.91964   0.84223   0.00000  Uiso   1.00
C376   C     0.70311   0.87674   0.88597   0.00000  Uiso   1.00
C377   C     0.64603   0.80273   0.94432   0.00000  Uiso   1.00
C378   C     0.87536   0.95879   0.79731   0.00000  Uiso   1.00
C379   C     0.89703   0.93432   0.74621   0.00000  Uiso   1.00
C380   C     0.95217   0.89814   0.74603   0.00000  Uiso   1.00
C381   C     0.03924   0.83653   0.72339   0.00000  Uiso   1.00
C382   C     0.87553   0.97877   0.89764   0.00000  Uiso   1.00
C383   C     0.86346   0.06354   0.88569   0.00000  Uiso   1.00
C384   C     0.88145   0.12498   0.91855   0.00000  Uiso   1.00
C385   C     0.86600   0.19820   0.90045   0.00000  Uiso   1.00
C386   C     0.81479   0.93950   0.89867   0.00000  Uiso   1.00
C387   C     0.79186   0.89664   0.94243   0.00000  Uiso   1.00
C388   C     0.73544   0.86543   0.93525   0.00000  Uiso   1.00
C389   C     0.90764   0.94749   0.84650   0.00000  Uiso   1.00
C390   C     0.96276   0.91133   0.84641   0.00000  Uiso   1.00
C391   C     0.98450   0.88682   0.79531   0.00000  Uiso   1.00
H392   H     0.79100   0.00834   0.76878   0.00000  Uiso   1.00
H393   H     0.79074   0.15669   0.78028   0.00000  Uiso   1.00
H394   H     0.70117   0.92838   0.80416   0.00000  Uiso   1.00
H395   H     0.87204   0.94307   0.70815   0.00000  Uiso   1.00
H396   H     0.80466   0.31619   0.81474   0.00000  Uiso   1.00
H397   H     0.61580   0.83475   0.86507   0.00000  Uiso   1.00
H398   H     0.97612   0.86573   0.66262   0.00000  Uiso   1.00
H399   H     0.90066   0.96997   0.93594   0.00000  Uiso   1.00
H400   H     0.90642   0.11622   0.95661   0.00000  Uiso   1.00
H401   H     0.81684   0.88791   0.98048   0.00000  Uiso   1.00
H402   H     0.98772   0.90260   0.88448   0.00000  Uiso   1.00
H403   H     0.89855   0.28334   0.95785   0.00000  Uiso   1.00
H404   H     0.70969   0.80190   0.00819   0.00000  Uiso   1.00
H405   H     0.07001   0.83288   0.80574   0.00000  Uiso   1.00
O406   O     0.85340   0.39666   0.89689   0.00000  Uiso   1.00
O407   O     0.60563   0.76503   0.96292   0.00000  Uiso   1.00
O408   O     0.07836   0.80568   0.69731   0.00000  Uiso   1.00
N409   N     0.82598   0.28839   0.84558   0.00000  Uiso   1.00
N410   N     0.64940   0.83829   0.89264   0.00000  Uiso   1.00
N411   N     0.98627   0.86723   0.70337   0.00000  Uiso   1.00
N412   N     0.87650   0.27071   0.92259   0.00000  Uiso   1.00
N413   N     0.69992   0.82061   0.96965   0.00000  Uiso   1.00
N414   N     0.03678   0.84955   0.78038   0.00000  Uiso   1.00
C415   C     0.31613   0.49955   0.80708   0.00000  Uiso   1.00
C416   C     0.33119   0.57484   0.83650   0.00000  Uiso   1.00
C417   C     0.31572   0.64798   0.81835   0.00000  Uiso   1.00
C418   C     0.33367   0.70951   0.85117   0.00000  Uiso   1.00
C419   C     0.35214   0.82812   0.88939   0.00000  Uiso   1.00
C420   C     0.28252   0.45080   0.84948   0.00000  Uiso   1.00
C421   C     0.22613   0.41964   0.84223   0.00000  Uiso   1.00
C422   C     0.20311   0.37674   0.88597   0.00000  Uiso   1.00
C423   C     0.14603   0.30273   0.94432   0.00000  Uiso   1.00
C424   C     0.37536   0.45879   0.79731   0.00000  Uiso   1.00
C425   C     0.39703   0.43432   0.74621   0.00000  Uiso   1.00
C426   C     0.45217   0.39814   0.74603   0.00000  Uiso   1.00
C427   C     0.53924   0.33653   0.72339   0.00000  Uiso   1.00
C428   C     0.37553   0.47877   0.89764   0.00000  Uiso   1.00
C429   C     0.36346   0.56354   0.88569   0.00000  Uiso   1.00
C430   C     0.38145   0.62498   0.91855   0.00000  Uiso   1.00
C431   C     0.36600   0.69820   0.90045   0.00000  Uiso   1.00
C432   C     0.31479   0.43950   0.89867   0.00000  Uiso   1.00
C433   C     0.29186   0.39664   0.94243   0.00000  Uiso   1.00
C434   C     0.23544   0.36543   0.93525   0.00000  Uiso   1.00
C435   C     0.40764   0.44749   0.84650   0.00000  Uiso   1.00
C436   C     0.46276   0.41133   0.84641   0.00000  Uiso   1.00
C437   C     0.48450   0.38682   0.79531   0.00000  Uiso   1.00
H438   H     0.29100   0.50834   0.76878   0.00000  Uiso   1.00
H439   H     0.29074   0.65669   0.78028   0.00000  Uiso   1.00
H440   H     0.20117   0.42838   0.80416   0.00000  Uiso   1.00
H441   H     0.37204   0.44307   0.70815   0.00000  Uiso   1.00
H442   H     0.30466   0.81619   0.81474   0.00000  Uiso   1.00
H443   H     0.11580   0.33475   0.86507   0.00000  Uiso   1.00
H444   H     0.47612   0.36573   0.66262   0.00000  Uiso   1.00
H445   H     0.40066   0.46997   0.93594   0.00000  Uiso   1.00
H446   H     0.40642   0.61622   0.95661   0.00000  Uiso   1.00
H447   H     0.31684   0.38791   0.98048   0.00000  Uiso   1.00
H448   H     0.48772   0.40260   0.88448   0.00000  Uiso   1.00
H449   H     0.39855   0.78334   0.95785   0.00000  Uiso   1.00
H450   H     0.20969   0.30190   0.00819   0.00000  Uiso   1.00
H451   H     0.57001   0.33288   0.80574   0.00000  Uiso   1.00
O452   O     0.35340   0.89666   0.89689   0.00000  Uiso   1.00
O453   O     0.10563   0.26503   0.96292   0.00000  Uiso   1.00
O454   O     0.57836   0.30568   0.69731   0.00000  Uiso   1.00
N455   N     0.32598   0.78839   0.84558   0.00000  Uiso   1.00
N456   N     0.14940   0.33829   0.89264   0.00000  Uiso   1.00
N457   N     0.48627   0.36723   0.70337   0.00000  Uiso   1.00
N458   N     0.37650   0.77071   0.92259   0.00000  Uiso   1.00
N459   N     0.19992   0.32061   0.96965   0.00000  Uiso   1.00
N460   N     0.53678   0.34955   0.78038   0.00000  Uiso   1.00
C461   C     0.68387   0.50045   0.80708   0.00000  Uiso   1.00
C462   C     0.66881   0.42516   0.83650   0.00000  Uiso   1.00
C463   C     0.68428   0.35202   0.81835   0.00000  Uiso   1.00
C464   C     0.66633   0.29049   0.85117   0.00000  Uiso   1.00
C465   C     0.64786   0.17188   0.88939   0.00000  Uiso   1.00
C466   C     0.71748   0.54920   0.84948   0.00000  Uiso   1.00
C467   C     0.77387   0.58036   0.84223   0.00000  Uiso   1.00
C468   C     0.79689   0.62326   0.88597   0.00000  Uiso   1.00
C469   C     0.85397   0.69727   0.94432   0.00000  Uiso   1.00
C470   C     0.62464   0.54121   0.79731   0.00000  Uiso   1.00
C471   C     0.60297   0.56568   0.74621   0.00000  Uiso   1.00
C472   C     0.54783   0.60186   0.74603   0.00000  Uiso   1.00
C473   C     0.46076   0.66347   0.72339   0.00000  Uiso   1.00
C474   C     0.62447   0.52123   0.89764   0.00000  Uiso   1.00
C475   C     0.63654   0.43646   0.88569   0.00000  Uiso   1.00
C476   C     0.61855   0.37502   0.91855   0.00000  Uiso   1.00
C477   C     0.63400   0.30180   0.90045   0.00000  Uiso   1.00
C478   C     0.68521   0.56050   0.89867   0.00000  Uiso   1.00
C479   C     0.70814   0.60336   0.94243   0.00000  Uiso   1.00
C480   C     0.76456   0.63457   0.93525   0.00000  Uiso   1.00
C481   C     0.59236   0.55251   0.84650   0.00000  Uiso   1.00
C482   C     0.53724   0.58867   0.84641   0.00000  Uiso   1.00
C483   C     0.51550   0.61318   0.79531   0.00000  Uiso   1.00
H484   H     0.70900   0.49166   0.76878   0.00000  Uiso   1.00
H485   H     0.70926   0.34331   0.78028   0.00000  Uiso   1.00
H486   H     0.79883   0.57162   0.80416   0.00000  Uiso   1.00
H487   H     0.62796   0.55693   0.70815   0.00000  Uiso   1.00
H488   H     0.69534   0.18381   0.81474   0.00000  Uiso   1.00
H489   H     0.88420   0.66525   0.86507   0.00000  Uiso   1.00
H490   H     0.52388   0.63427   0.66262   0.00000  Uiso   1.00
H491   H     0.59934   0.53003   0.93594   0.00000  Uiso   1.00
H492   H     0.59358   0.38378   0.95661   0.00000  Uiso   1.00
H493   H     0.68316   0.61209   0.98048   0.00000  Uiso   1.00
H494   H     0.51228   0.59740   0.88448   0.00000  Uiso   1.00
H495   H     0.60145   0.21666   0.95785   0.00000  Uiso   1.00
H496   H     0.79031   0.69810   0.00819   0.00000  Uiso   1.00
H497   H     0.42999   0.66712   0.80574   0.00000  Uiso   1.00
O498   O     0.64660   0.10334   0.89689   0.00000  Uiso   1.00
O499   O     0.89437   0.73497   0.96292   0.00000  Uiso   1.00
O500   O     0.42164   0.69432   0.69731   0.00000  Uiso   1.00
N501   N     0.67402   0.21161   0.84558   0.00000  Uiso   1.00
N502   N     0.85060   0.66171   0.89264   0.00000  Uiso   1.00
N503   N     0.51373   0.63277   0.70337   0.00000  Uiso   1.00
N504   N     0.62350   0.22929   0.92259   0.00000  Uiso   1.00
N505   N     0.80008   0.67939   0.96965   0.00000  Uiso   1.00
N506   N     0.46322   0.65045   0.78038   0.00000  Uiso   1.00
C507   C     0.18387   0.00045   0.80708   0.00000  Uiso   1.00
C508   C     0.16881   0.92516   0.83650   0.00000  Uiso   1.00
C509   C     0.18428   0.85202   0.81835   0.00000  Uiso   1.00
C510   C     0.16633   0.79049   0.85117   0.00000  Uiso   1.00
C511   C     0.14786   0.67188   0.88939   0.00000  Uiso   1.00
C512   C     0.21748   0.04920   0.84948   0.00000  Uiso   1.00
C513   C     0.27387   0.08036   0.84223   0.00000  Uiso   1.00
C514   C     0.29689   0.12326   0.88597   0.00000  Uiso   1.00
C515   C     0.35397   0.19727   0.94432   0.00000  Uiso   1.00
C516   C     0.12464   0.04121   0.79731   0.00000  Uiso   1.00
C517   C     0.10297   0.06568   0.74621   0.00000  Uiso   1.00
C518   C     0.04783   0.10186   0.74603   0.00000  Uiso   1.00
C519   C     0.96076   0.16347   0.72339   0.00000  Uiso   1.00
C520   C     0.12447   0.02123   0.89764   0.00000  Uiso   1.00
C521   C     0.13654   0.93646   0.88569   0.00000  Uiso   1.00
C522   C     0.11855   0.87502   0.91855   0.00000  Uiso   1.00
C523   C     0.13400   0.80180   0.90045   0.00000  Uiso   1.00
C524   C     0.18521   0.06050   0.89867   0.00000  Uiso   1.00
C525   C     0.20814   0.10336   0.94243   0.00000  Uiso   1.00
C526   C     0.26456   0.13457   0.93525   0.00000  Uiso   1.00
C527   C     0.09236   0.05251   0.84650   0.00000  Uiso   1.00
C528   C     0.03724   0.08867   0.84641   0.00000  Uiso   1.00
C529   C     0.01550   0.11318   0.79531   0.00000  Uiso   1.00
H530   H     0.20900   0.99166   0.76878   0.00000  Uiso   1.00
H531   H     0.20926   0.84331   0.78028   0.00000  Uiso   1.00
H532   H     0.29883   0.07162   0.80416   0.00000  Uiso   1.00
H533   H     0.12796   0.05693   0.70815   0.00000  Uiso   1.00
H534   H     0.19534   0.68381   0.81474   0.00000  Uiso   1.00
H535   H     0.38420   0.16525   0.86507   0.00000  Uiso   1.00
H536   H     0.02388   0.13427   0.66262   0.00000  Uiso   1.00
H537   H     0.09934   0.03003   0.93594   0.00000  Uiso   1.00
H538   H     0.09358   0.88378   0.95661   0.00000  Uiso   1.00
H539   H     0.18316   0.11209   0.98048   0.00000  Uiso   1.00
H540   H     0.01228   0.09740   0.88448   0.00000  Uiso   1.00
H541   H     0.10145   0.71666   0.95785   0.00000  Uiso   1.00
H542   H     0.29031   0.19810   0.00819   0.00000  Uiso   1.00
H543   H     0.92999   0.16712   0.80574   0.00000  Uiso   1.00
O544   O     0.14660   0.60334   0.89689   0.00000  Uiso   1.00
O545   O     0.39437   0.23497   0.96292   0.00000  Uiso   1.00
O546   O     0.92164   0.19432   0.69731   0.00000  Uiso   1.00
N547   N     0.17402   0.71161   0.84558   0.00000  Uiso   1.00
N548   N     0.35060   0.16171   0.89264   0.00000  Uiso   1.00
N549   N     0.01373   0.13277   0.70337   0.00000  Uiso   1.00
N550   N     0.12350   0.72929   0.92259   0.00000  Uiso   1.00
N551   N     0.30008   0.17939   0.96965   0.00000  Uiso   1.00
N552   N     0.96322   0.15045   0.78038   0.00000  Uiso   1.00
C553   C     0.18387   0.99955   0.19292   0.00000  Uiso   1.00
C554   C     0.16881   0.07484   0.16350   0.00000  Uiso   1.00
C555   C     0.18428   0.14798   0.18165   0.00000  Uiso   1.00
C556   C     0.16633   0.20951   0.14883   0.00000  Uiso   1.00
C557   C     0.14786   0.32812   0.11061   0.00000  Uiso   1.00
C558   C     0.21748   0.95080   0.15052   0.00000  Uiso   1.00
C559   C     0.27387   0.91964   0.15777   0.00000  Uiso   1.00
C560   C     0.29689   0.87674   0.11403   0.00000  Uiso   1.00
C561   C     0.35397   0.80273   0.05568   0.00000  Uiso   1.00
C562   C     0.12464   0.95879   0.20269   0.00000  Uiso   1.00
C563   C     0.10297   0.93432   0.25379   0.00000  Uiso   1.00
C564   C     0.04783   0.89814   0.25397   0.00000  Uiso   1.00
C565   C     0.96076   0.83653   0.27661   0.00000  Uiso   1.00
C566   C     0.12447   0.97877   0.10236   0.00000  Uiso   1.00
C567   C     0.13654   0.06354   0.11431   0.00000  Uiso   1.00
C568   C     0.11855   0.12498   0.08145   0.00000  Uiso   1.00
C569   C     0.13400   0.19820   0.09955   0.00000  Uiso   1.00
C570   C     0.18521   0.93950   0.10133   0.00000  Uiso   1.00
C571   C     0.20814   0.89664   0.05757   0.00000  Uiso   1.00
C572   C     0.26456   0.86543   0.06475   0.00000  Uiso   1.00
C573   C     0.09236   0.94749   0.15350   0.00000  Uiso   1.00
C574   C     0.03724   0.91133   0.15359   0.00000  Uiso   1.00
C575   C     0.01550   0.88682   0.20469   0.00000  Uiso   1.00
H576   H     0.20900   0.00834   0.23122   0.00000  Uiso   1.00
H577   H     0.20926   0.15669   0.21972   0.00000  Uiso   1.00
H578   H     0.29883   0.92838   0.19584   0.00000  Uiso   1.00
H579   H     0.12796   0.94307   0.29185   0.00000  Uiso   1.00
H580   H     0.19534   0.31619   0.18526   0.00000  Uiso   1.00
H581   H     0.38420   0.83475   0.13493   0.00000  Uiso   1.00
H582   H     0.02388   0.86573   0.33738   0.00000  Uiso   1.00
H583   H     0.09934   0.96997   0.06406   0.00000  Uiso   1.00
H584   H     0.09358   0.11622   0.04339   0.00000  Uiso   1.00
H585   H     0.18316   0.88791   0.01952   0.00000  Uiso   1.00
H586   H     0.01228   0.90260   0.11552   0.00000  Uiso   1.00
H587   H     0.10145   0.28334   0.04215   0.00000  Uiso   1.00
H588   H     0.29031   0.80190   0.99181   0.00000  Uiso   1.00
H589   H     0.92999   0.83288   0.19426   0.00000  Uiso   1.00
O590   O     0.14660   0.39666   0.10311   0.00000  Uiso   1.00
O591   O     0.39437   0.76503   0.03708   0.00000  Uiso   1.00
O592   O     0.92164   0.80568   0.30269   0.00000  Uiso   1.00
N593   N     0.17402   0.28839   0.15442   0.00000  Uiso   1.00
N594   N     0.35060   0.83829   0.10736   0.00000  Uiso   1.00
N595   N     0.01373   0.86723   0.29663   0.00000  Uiso   1.00
N596   N     0.12350   0.27071   0.07741   0.00000  Uiso   1.00
N597   N     0.30008   0.82061   0.03035   0.00000  Uiso   1.00
N598   N     0.96322   0.84955   0.21962   0.00000  Uiso   1.00
C599   C     0.68387   0.49955   0.19292   0.00000  Uiso   1.00
C600   C     0.66881   0.57484   0.16350   0.00000  Uiso   1.00
C601   C     0.68428   0.64798   0.18165   0.00000  Uiso   1.00
C602   C     0.66633   0.70951   0.14883   0.00000  Uiso   1.00
C603   C     0.64786   0.82812   0.11061   0.00000  Uiso   1.00
C604   C     0.71748   0.45080   0.15052   0.00000  Uiso   1.00
C605   C     0.77387   0.41964   0.15777   0.00000  Uiso   1.00
C606   C     0.79689   0.37674   0.11403   0.00000  Uiso   1.00
C607   C     0.85397   0.30273   0.05568   0.00000  Uiso   1.00
C608   C     0.62464   0.45879   0.20269   0.00000  Uiso   1.00
C609   C     0.60297   0.43432   0.25379   0.00000  Uiso   1.00
C610   C     0.54783   0.39814   0.25397   0.00000  Uiso   1.00
C611   C     0.46076   0.33653   0.27661   0.00000  Uiso   1.00
C612   C     0.62447   0.47877   0.10236   0.00000  Uiso   1.00
C613   C     0.63654   0.56354   0.11431   0.00000  Uiso   1.00
C614   C     0.61855   0.62498   0.08145   0.00000  Uiso   1.00
C615   C     0.63400   0.69820   0.09955   0.00000  Uiso   1.00
C616   C     0.68521   0.43950   0.10133   0.00000  Uiso   1.00
C617   C     0.70814   0.39664   0.05757   0.00000  Uiso   1.00
C618   C     0.76456   0.36543   0.06475   0.00000  Uiso   1.00
C619   C     0.59236   0.44749   0.15350   0.00000  Uiso   1.00
C620   C     0.53724   0.41133   0.15359   0.00000  Uiso   1.00
C621   C     0.51550   0.38682   0.20469   0.00000  Uiso   1.00
H622   H     0.70900   0.50834   0.23122   0.00000  Uiso   1.00
H623   H     0.70926   0.65669   0.21972   0.00000  Uiso   1.00
H624   H     0.79883   0.42838   0.19584   0.00000  Uiso   1.00
H625   H     0.62796   0.44307   0.29185   0.00000  Uiso   1.00
H626   H     0.69534   0.81619   0.18526   0.00000  Uiso   1.00
H627   H     0.88420   0.33475   0.13493   0.00000  Uiso   1.00
H628   H     0.52388   0.36573   0.33738   0.00000  Uiso   1.00
H629   H     0.59934   0.46997   0.06406   0.00000  Uiso   1.00
H630   H     0.59358   0.61622   0.04339   0.00000  Uiso   1.00
H631   H     0.68316   0.38791   0.01952   0.00000  Uiso   1.00
H632   H     0.51228   0.40260   0.11552   0.00000  Uiso   1.00
H633   H     0.60145   0.78334   0.04215   0.00000  Uiso   1.00
H634   H     0.79031   0.30190   0.99181   0.00000  Uiso   1.00
H635   H     0.42999   0.33288   0.19426   0.00000  Uiso   1.00
O636   O     0.64660   0.89666   0.10311   0.00000  Uiso   1.00
O637   O     0.89437   0.26503   0.03708   0.00000  Uiso   1.00
O638   O     0.42164   0.30568   0.30269   0.00000  Uiso   1.00
N639   N     0.67402   0.78839   0.15442   0.00000  Uiso   1.00
N640   N     0.85060   0.33829   0.10736   0.00000  Uiso   1.00
N641   N     0.51373   0.36723   0.29663   0.00000  Uiso   1.00
N642   N     0.62350   0.77071   0.07741   0.00000  Uiso   1.00
N643   N     0.80008   0.32061   0.03035   0.00000  Uiso   1.00
N644   N     0.46322   0.34955   0.21962   0.00000  Uiso   1.00
C645   C     0.31613   0.50045   0.19292   0.00000  Uiso   1.00
C646   C     0.33119   0.42516   0.16350   0.00000  Uiso   1.00
C647   C     0.31572   0.35202   0.18165   0.00000  Uiso   1.00
C648   C     0.33367   0.29049   0.14883   0.00000  Uiso   1.00
C649   C     0.35214   0.17188   0.11061   0.00000  Uiso   1.00
C650   C     0.28252   0.54920   0.15052   0.00000  Uiso   1.00
C651   C     0.22613   0.58036   0.15777   0.00000  Uiso   1.00
C652   C     0.20311   0.62326   0.11403   0.00000  Uiso   1.00
C653   C     0.14603   0.69727   0.05568   0.00000  Uiso   1.00
C654   C     0.37536   0.54121   0.20269   0.00000  Uiso   1.00
C655   C     0.39703   0.56568   0.25379   0.00000  Uiso   1.00
C656   C     0.45217   0.60186   0.25397   0.00000  Uiso   1.00
C657   C     0.53924   0.66347   0.27661   0.00000  Uiso   1.00
C658   C     0.37553   0.52123   0.10236   0.00000  Uiso   1.00
C659   C     0.36346   0.43646   0.11431   0.00000  Uiso   1.00
C660   C     0.38145   0.37502   0.08145   0.00000  Uiso   1.00
C661   C     0.36600   0.30180   0.09955   0.00000  Uiso   1.00
C662   C     0.31479   0.56050   0.10133   0.00000  Uiso   1.00
C663   C     0.29186   0.60336   0.05757   0.00000  Uiso   1.00
C664   C     0.23544   0.63457   0.06475   0.00000  Uiso   1.00
C665   C     0.40764   0.55251   0.15350   0.00000  Uiso   1.00
C666   C     0.46276   0.58867   0.15359   0.00000  Uiso   1.00
C667   C     0.48450   0.61318   0.20469   0.00000  Uiso   1.00
H668   H     0.29100   0.49166   0.23122   0.00000  Uiso   1.00
H669   H     0.29074   0.34331   0.21972   0.00000  Uiso   1.00
H670   H     0.20117   0.57162   0.19584   0.00000  Uiso   1.00
H671   H     0.37204   0.55693   0.29185   0.00000  Uiso   1.00
H672   H     0.30466   0.18381   0.18526   0.00000  Uiso   1.00
H673   H     0.11580   0.66525   0.13493   0.00000  Uiso   1.00
H674   H     0.47612   0.63427   0.33738   0.00000  Uiso   1.00
H675   H     0.40066   0.53003   0.06406   0.00000  Uiso   1.00
H676   H     0.40642   0.38378   0.04339   0.00000  Uiso   1.00
H677   H     0.31684   0.61209   0.01952   0.00000  Uiso   1.00
H678   H     0.48772   0.59740   0.11552   0.00000  Uiso   1.00
H679   H     0.39855   0.21666   0.04215   0.00000  Uiso   1.00
H680   H     0.20969   0.69810   0.99181   0.00000  Uiso   1.00
H681   H     0.57001   0.66712   0.19426   0.00000  Uiso   1.00
O682   O     0.35340   0.10334   0.10311   0.00000  Uiso   1.00
O683   O     0.10563   0.73497   0.03708   0.00000  Uiso   1.00
O684   O     0.57836   0.69432   0.30269   0.00000  Uiso   1.00
N685   N     0.32598   0.21161   0.15442   0.00000  Uiso   1.00
N686   N     0.14940   0.66171   0.10736   0.00000  Uiso   1.00
N687   N     0.48627   0.63277   0.29663   0.00000  Uiso   1.00
N688   N     0.37650   0.22929   0.07741   0.00000  Uiso   1.00
N689   N     0.19992   0.67939   0.03035   0.00000  Uiso   1.00
N690   N     0.53678   0.65045   0.21962   0.00000  Uiso   1.00
C691   C     0.81613   0.00045   0.19292   0.00000  Uiso   1.00
C692   C     0.83119   0.92516   0.16350   0.00000  Uiso   1.00
C693   C     0.81572   0.85202   0.18165   0.00000  Uiso   1.00
C694   C     0.83367   0.79049   0.14883   0.00000  Uiso   1.00
C695   C     0.85214   0.67188   0.11061   0.00000  Uiso   1.00
C696   C     0.78252   0.04920   0.15052   0.00000  Uiso   1.00
C697   C     0.72613   0.08036   0.15777   0.00000  Uiso   1.00
C698   C     0.70311   0.12326   0.11403   0.00000  Uiso   1.00
C699   C     0.64603   0.19727   0.05568   0.00000  Uiso   1.00
C700   C     0.87536   0.04121   0.20269   0.00000  Uiso   1.00
C701   C     0.89703   0.06568   0.25379   0.00000  Uiso   1.00
C702   C     0.95217   0.10186   0.25397   0.00000  Uiso   1.00
C703   C     0.03924   0.16347   0.27661   0.00000  Uiso   1.00
C704   C     0.87553   0.02123   0.10236   0.00000  Uiso   1.00
C705   C     0.86346   0.93646   0.11431   0.00000  Uiso   1.00
C706   C     0.88145   0.87502   0.08145   0.00000  Uiso   1.00
C707   C     0.86600   0.80180   0.09955   0.00000  Uiso   1.00
C708   C     0.81479   0.06050   0.10133   0.00000  Uiso   1.00
C709   C     0.79186   0.10336   0.05757   0.00000  Uiso   1.00
C710   C     0.73544   0.13457   0.06475   0.00000  Uiso   1.00
C711   C     0.90764   0.05251   0.15350   0.00000  Uiso   1.00
C712   C     0.96276   0.08867   0.15359   0.00000  Uiso   1.00
C713   C     0.98450   0.11318   0.20469   0.00000  Uiso   1.00
H714   H     0.79100   0.99166   0.23122   0.00000  Uiso   1.00
H715   H     0.79074   0.84331   0.21972   0.00000  Uiso   1.00
H716   H     0.70117   0.07162   0.19584   0.00000  Uiso   1.00
H717   H     0.87204   0.05693   0.29185   0.00000  Uiso   1.00
H718   H     0.80466   0.68381   0.18526   0.00000  Uiso   1.00
H719   H     0.61580   0.16525   0.13493   0.00000  Uiso   1.00
H720   H     0.97612   0.13427   0.33738   0.00000  Uiso   1.00
H721   H     0.90066   0.03003   0.06406   0.00000  Uiso   1.00
H722   H     0.90642   0.88378   0.04339   0.00000  Uiso   1.00
H723   H     0.81684   0.11209   0.01952   0.00000  Uiso   1.00
H724   H     0.98772   0.09740   0.11552   0.00000  Uiso   1.00
H725   H     0.89855   0.71666   0.04215   0.00000  Uiso   1.00
H726   H     0.70969   0.19810   0.99181   0.00000  Uiso   1.00
H727   H     0.07001   0.16712   0.19426   0.00000  Uiso   1.00
O728   O     0.85340   0.60334   0.10311   0.00000  Uiso   1.00
O729   O     0.60563   0.23497   0.03708   0.00000  Uiso   1.00
O730   O     0.07836   0.19432   0.30269   0.00000  Uiso   1.00
N731   N     0.82598   0.71161   0.15442   0.00000  Uiso   1.00
N732   N     0.64940   0.16171   0.10736   0.00000  Uiso   1.00
N733   N     0.98627   0.13277   0.29663   0.00000  Uiso   1.00
N734   N     0.87650   0.72929   0.07741   0.00000  Uiso   1.00
N735   N     0.69992   0.17939   0.03035   0.00000  Uiso   1.00
N736   N     0.03678   0.15045   0.21962   0.00000  Uiso   1.00
