data_job_04151
_audit_creation_date              2018-12-19
_audit_creation_method            'Materials Studio'
_symmetry_space_group_name_H-M    'P1'
_symmetry_Int_Tables_number       1
_symmetry_cell_setting            triclinic
loop_
_symmetry_equiv_pos_as_xyz
  x,y,z
_cell_length_a                    29.8068
_cell_length_b                    11.3703
_cell_length_c                    32.7559
_cell_angle_alpha                 90.0000
_cell_angle_beta                  90.0000
_cell_angle_gamma                 90.0000
loop_
_atom_site_label
_atom_site_type_symbol
_atom_site_fract_x
_atom_site_fract_y
_atom_site_fract_z
_atom_site_U_iso_or_equiv
_atom_site_adp_type
_atom_site_occupancy
C1     C     0.64604   0.46857   0.07002   0.00000  Uiso   1.00
C2     C     0.59556   0.48250   0.07583   0.00000  Uiso   1.00
C3     C     0.56617   0.53315   0.04807   0.00000  Uiso   1.00
C4     C     0.52123   0.53760   0.05909   0.00000  Uiso   1.00
C5     C     0.44512   0.56607   0.06244   0.00000  Uiso   1.00
C6     C     0.66787   0.52919   0.10649   0.00000  Uiso   1.00
C7     C     0.69928   0.61910   0.10449   0.00000  Uiso   1.00
C8     C     0.71521   0.66284   0.14132   0.00000  Uiso   1.00
C9     C     0.75140   0.76375   0.19225   0.00000  Uiso   1.00
C10    C     0.65580   0.33770   0.07498   0.00000  Uiso   1.00
C11    C     0.67709   0.26660   0.04650   0.00000  Uiso   1.00
C12    C     0.68287   0.14912   0.05680   0.00000  Uiso   1.00
C13    C     0.70032   0.95271   0.05881   0.00000  Uiso   1.00
C14    C     0.61848   0.38637   0.13896   0.00000  Uiso   1.00
C15    C     0.58059   0.43785   0.11328   0.00000  Uiso   1.00
C16    C     0.53568   0.44221   0.12434   0.00000  Uiso   1.00
C17    C     0.50623   0.49287   0.09660   0.00000  Uiso   1.00
C18    C     0.65290   0.48455   0.14393   0.00000  Uiso   1.00
C19    C     0.66879   0.52816   0.18077   0.00000  Uiso   1.00
C20    C     0.70022   0.61812   0.17883   0.00000  Uiso   1.00
C21    C     0.64083   0.29305   0.11242   0.00000  Uiso   1.00
C22    C     0.64659   0.17566   0.12277   0.00000  Uiso   1.00
C23    C     0.66787   0.10440   0.09431   0.00000  Uiso   1.00
H24    H     0.65770   0.50333   0.04087   0.00000  Uiso   1.00
H25    H     0.57777   0.56771   0.01910   0.00000  Uiso   1.00
H26    H     0.71087   0.65363   0.07551   0.00000  Uiso   1.00
H27    H     0.68867   0.30118   0.01753   0.00000  Uiso   1.00
H28    H     0.48256   0.61943   0.01149   0.00000  Uiso   1.00
H29    H     0.76321   0.80057   0.13044   0.00000  Uiso   1.00
H30    H     0.71640   0.05737   0.00816   0.00000  Uiso   1.00
H31    H     0.60682   0.35161   0.16811   0.00000  Uiso   1.00
H32    H     0.52410   0.40766   0.15332   0.00000  Uiso   1.00
H33    H     0.65720   0.49359   0.20974   0.00000  Uiso   1.00
H34    H     0.63500   0.14114   0.15175   0.00000  Uiso   1.00
H35    H     0.43900   0.48953   0.12043   0.00000  Uiso   1.00
H36    H     0.71965   0.67067   0.23938   0.00000  Uiso   1.00
H37    H     0.67284   0.92748   0.11710   0.00000  Uiso   1.00
O38    O     0.40728   0.59412   0.05394   0.00000  Uiso   1.00
O39    O     0.77549   0.83176   0.21000   0.00000  Uiso   1.00
O40    O     0.71407   0.85670   0.04958   0.00000  Uiso   1.00
N41    N     0.48366   0.58114   0.03915   0.00000  Uiso   1.00
N42    N     0.74604   0.75052   0.15036   0.00000  Uiso   1.00
N43    N     0.70229   0.05569   0.03605   0.00000  Uiso   1.00
N44    N     0.46022   0.51124   0.09777   0.00000  Uiso   1.00
N45    N     0.72260   0.68062   0.20898   0.00000  Uiso   1.00
N46    N     0.67885   0.98580   0.09467   0.00000  Uiso   1.00
C47    C     0.14604   0.96857   0.57002   0.00000  Uiso   1.00
C48    C     0.09556   0.98250   0.57583   0.00000  Uiso   1.00
C49    C     0.06617   0.03315   0.54807   0.00000  Uiso   1.00
C50    C     0.02123   0.03760   0.55909   0.00000  Uiso   1.00
C51    C     0.94512   0.06607   0.56244   0.00000  Uiso   1.00
C52    C     0.16787   0.02919   0.60649   0.00000  Uiso   1.00
C53    C     0.19928   0.11910   0.60449   0.00000  Uiso   1.00
C54    C     0.21521   0.16284   0.64132   0.00000  Uiso   1.00
C55    C     0.25140   0.26375   0.69225   0.00000  Uiso   1.00
C56    C     0.15580   0.83770   0.57498   0.00000  Uiso   1.00
C57    C     0.17709   0.76660   0.54650   0.00000  Uiso   1.00
C58    C     0.18287   0.64912   0.55680   0.00000  Uiso   1.00
C59    C     0.20032   0.45271   0.55881   0.00000  Uiso   1.00
C60    C     0.11848   0.88637   0.63896   0.00000  Uiso   1.00
C61    C     0.08059   0.93785   0.61328   0.00000  Uiso   1.00
C62    C     0.03568   0.94221   0.62434   0.00000  Uiso   1.00
C63    C     0.00623   0.99287   0.59660   0.00000  Uiso   1.00
C64    C     0.15290   0.98455   0.64393   0.00000  Uiso   1.00
C65    C     0.16879   0.02816   0.68077   0.00000  Uiso   1.00
C66    C     0.20022   0.11812   0.67883   0.00000  Uiso   1.00
C67    C     0.14083   0.79305   0.61242   0.00000  Uiso   1.00
C68    C     0.14659   0.67566   0.62277   0.00000  Uiso   1.00
C69    C     0.16787   0.60440   0.59431   0.00000  Uiso   1.00
H70    H     0.15770   0.00333   0.54087   0.00000  Uiso   1.00
H71    H     0.07777   0.06771   0.51910   0.00000  Uiso   1.00
H72    H     0.21087   0.15363   0.57551   0.00000  Uiso   1.00
H73    H     0.18867   0.80118   0.51753   0.00000  Uiso   1.00
H74    H     0.98256   0.11943   0.51149   0.00000  Uiso   1.00
H75    H     0.26321   0.30057   0.63044   0.00000  Uiso   1.00
H76    H     0.21640   0.55737   0.50816   0.00000  Uiso   1.00
H77    H     0.10682   0.85161   0.66811   0.00000  Uiso   1.00
H78    H     0.02410   0.90766   0.65332   0.00000  Uiso   1.00
H79    H     0.15720   0.99359   0.70974   0.00000  Uiso   1.00
H80    H     0.13500   0.64114   0.65175   0.00000  Uiso   1.00
H81    H     0.93900   0.98953   0.62043   0.00000  Uiso   1.00
H82    H     0.21965   0.17067   0.73938   0.00000  Uiso   1.00
H83    H     0.17284   0.42748   0.61710   0.00000  Uiso   1.00
O84    O     0.90728   0.09412   0.55394   0.00000  Uiso   1.00
O85    O     0.27549   0.33176   0.71000   0.00000  Uiso   1.00
O86    O     0.21407   0.35670   0.54958   0.00000  Uiso   1.00
N87    N     0.98366   0.08114   0.53915   0.00000  Uiso   1.00
N88    N     0.24604   0.25052   0.65036   0.00000  Uiso   1.00
N89    N     0.20229   0.55569   0.53605   0.00000  Uiso   1.00
N90    N     0.96022   0.01124   0.59777   0.00000  Uiso   1.00
N91    N     0.22260   0.18062   0.70898   0.00000  Uiso   1.00
N92    N     0.17885   0.48580   0.59467   0.00000  Uiso   1.00
C93    C     0.85396   0.53143   0.57002   0.00000  Uiso   1.00
C94    C     0.90444   0.51750   0.57583   0.00000  Uiso   1.00
C95    C     0.93383   0.46685   0.54807   0.00000  Uiso   1.00
C96    C     0.97877   0.46240   0.55909   0.00000  Uiso   1.00
C97    C     0.05488   0.43393   0.56244   0.00000  Uiso   1.00
C98    C     0.83213   0.47081   0.60649   0.00000  Uiso   1.00
C99    C     0.80072   0.38090   0.60449   0.00000  Uiso   1.00
C100   C     0.78479   0.33716   0.64132   0.00000  Uiso   1.00
C101   C     0.74860   0.23625   0.69225   0.00000  Uiso   1.00
C102   C     0.84420   0.66230   0.57498   0.00000  Uiso   1.00
C103   C     0.82291   0.73340   0.54650   0.00000  Uiso   1.00
C104   C     0.81713   0.85088   0.55680   0.00000  Uiso   1.00
C105   C     0.79968   0.04729   0.55881   0.00000  Uiso   1.00
C106   C     0.88152   0.61363   0.63896   0.00000  Uiso   1.00
C107   C     0.91941   0.56215   0.61328   0.00000  Uiso   1.00
C108   C     0.96432   0.55779   0.62434   0.00000  Uiso   1.00
C109   C     0.99377   0.50713   0.59660   0.00000  Uiso   1.00
C110   C     0.84710   0.51545   0.64393   0.00000  Uiso   1.00
C111   C     0.83121   0.47184   0.68077   0.00000  Uiso   1.00
C112   C     0.79978   0.38188   0.67883   0.00000  Uiso   1.00
C113   C     0.85917   0.70695   0.61242   0.00000  Uiso   1.00
C114   C     0.85341   0.82434   0.62277   0.00000  Uiso   1.00
C115   C     0.83213   0.89560   0.59431   0.00000  Uiso   1.00
H116   H     0.84230   0.49667   0.54087   0.00000  Uiso   1.00
H117   H     0.92223   0.43229   0.51910   0.00000  Uiso   1.00
H118   H     0.78913   0.34637   0.57551   0.00000  Uiso   1.00
H119   H     0.81133   0.69882   0.51753   0.00000  Uiso   1.00
H120   H     0.01744   0.38057   0.51149   0.00000  Uiso   1.00
H121   H     0.73679   0.19943   0.63044   0.00000  Uiso   1.00
H122   H     0.78360   0.94263   0.50816   0.00000  Uiso   1.00
H123   H     0.89318   0.64839   0.66811   0.00000  Uiso   1.00
H124   H     0.97590   0.59234   0.65332   0.00000  Uiso   1.00
H125   H     0.84280   0.50641   0.70974   0.00000  Uiso   1.00
H126   H     0.86500   0.85886   0.65175   0.00000  Uiso   1.00
H127   H     0.06100   0.51047   0.62043   0.00000  Uiso   1.00
H128   H     0.78035   0.32933   0.73938   0.00000  Uiso   1.00
H129   H     0.82716   0.07252   0.61710   0.00000  Uiso   1.00
O130   O     0.09272   0.40588   0.55394   0.00000  Uiso   1.00
O131   O     0.72451   0.16824   0.71000   0.00000  Uiso   1.00
O132   O     0.78593   0.14330   0.54958   0.00000  Uiso   1.00
N133   N     0.01634   0.41886   0.53915   0.00000  Uiso   1.00
N134   N     0.75396   0.24948   0.65036   0.00000  Uiso   1.00
N135   N     0.79771   0.94431   0.53605   0.00000  Uiso   1.00
N136   N     0.03978   0.48876   0.59777   0.00000  Uiso   1.00
N137   N     0.77740   0.31938   0.70898   0.00000  Uiso   1.00
N138   N     0.82115   0.01420   0.59467   0.00000  Uiso   1.00
C139   C     0.35396   0.03143   0.07002   0.00000  Uiso   1.00
C140   C     0.40444   0.01750   0.07583   0.00000  Uiso   1.00
C141   C     0.43383   0.96685   0.04807   0.00000  Uiso   1.00
C142   C     0.47877   0.96240   0.05909   0.00000  Uiso   1.00
C143   C     0.55488   0.93393   0.06244   0.00000  Uiso   1.00
C144   C     0.33213   0.97081   0.10649   0.00000  Uiso   1.00
C145   C     0.30072   0.88090   0.10449   0.00000  Uiso   1.00
C146   C     0.28479   0.83716   0.14132   0.00000  Uiso   1.00
C147   C     0.24860   0.73625   0.19225   0.00000  Uiso   1.00
C148   C     0.34420   0.16230   0.07498   0.00000  Uiso   1.00
C149   C     0.32291   0.23340   0.04650   0.00000  Uiso   1.00
C150   C     0.31713   0.35088   0.05680   0.00000  Uiso   1.00
C151   C     0.29968   0.54729   0.05881   0.00000  Uiso   1.00
C152   C     0.38152   0.11363   0.13896   0.00000  Uiso   1.00
C153   C     0.41941   0.06215   0.11328   0.00000  Uiso   1.00
C154   C     0.46432   0.05779   0.12434   0.00000  Uiso   1.00
C155   C     0.49377   0.00713   0.09660   0.00000  Uiso   1.00
C156   C     0.34710   0.01545   0.14393   0.00000  Uiso   1.00
C157   C     0.33121   0.97184   0.18077   0.00000  Uiso   1.00
C158   C     0.29978   0.88188   0.17883   0.00000  Uiso   1.00
C159   C     0.35917   0.20695   0.11242   0.00000  Uiso   1.00
C160   C     0.35341   0.32434   0.12277   0.00000  Uiso   1.00
C161   C     0.33213   0.39560   0.09431   0.00000  Uiso   1.00
H162   H     0.34230   0.99667   0.04087   0.00000  Uiso   1.00
H163   H     0.42223   0.93229   0.01910   0.00000  Uiso   1.00
H164   H     0.28913   0.84637   0.07551   0.00000  Uiso   1.00
H165   H     0.31133   0.19882   0.01753   0.00000  Uiso   1.00
H166   H     0.51744   0.88057   0.01149   0.00000  Uiso   1.00
H167   H     0.23679   0.69943   0.13044   0.00000  Uiso   1.00
H168   H     0.28360   0.44263   0.00816   0.00000  Uiso   1.00
H169   H     0.39318   0.14839   0.16811   0.00000  Uiso   1.00
H170   H     0.47590   0.09234   0.15332   0.00000  Uiso   1.00
H171   H     0.34280   0.00641   0.20974   0.00000  Uiso   1.00
H172   H     0.36500   0.35886   0.15175   0.00000  Uiso   1.00
H173   H     0.56100   0.01047   0.12043   0.00000  Uiso   1.00
H174   H     0.28035   0.82933   0.23938   0.00000  Uiso   1.00
H175   H     0.32716   0.57252   0.11710   0.00000  Uiso   1.00
O176   O     0.59272   0.90588   0.05394   0.00000  Uiso   1.00
O177   O     0.22451   0.66824   0.21000   0.00000  Uiso   1.00
O178   O     0.28593   0.64330   0.04958   0.00000  Uiso   1.00
N179   N     0.51634   0.91886   0.03915   0.00000  Uiso   1.00
N180   N     0.25396   0.74948   0.15036   0.00000  Uiso   1.00
N181   N     0.29771   0.44431   0.03605   0.00000  Uiso   1.00
N182   N     0.53978   0.98876   0.09777   0.00000  Uiso   1.00
N183   N     0.27740   0.81938   0.20898   0.00000  Uiso   1.00
N184   N     0.32115   0.51420   0.09467   0.00000  Uiso   1.00
C185   C     0.35396   0.96857   0.42998   0.00000  Uiso   1.00
C186   C     0.40444   0.98250   0.42417   0.00000  Uiso   1.00
C187   C     0.43383   0.03315   0.45193   0.00000  Uiso   1.00
C188   C     0.47877   0.03760   0.44091   0.00000  Uiso   1.00
C189   C     0.55488   0.06607   0.43756   0.00000  Uiso   1.00
C190   C     0.33213   0.02919   0.39351   0.00000  Uiso   1.00
C191   C     0.30072   0.11910   0.39551   0.00000  Uiso   1.00
C192   C     0.28479   0.16284   0.35868   0.00000  Uiso   1.00
C193   C     0.24860   0.26375   0.30775   0.00000  Uiso   1.00
C194   C     0.34420   0.83770   0.42502   0.00000  Uiso   1.00
C195   C     0.32291   0.76660   0.45350   0.00000  Uiso   1.00
C196   C     0.31713   0.64912   0.44320   0.00000  Uiso   1.00
C197   C     0.29968   0.45271   0.44119   0.00000  Uiso   1.00
C198   C     0.38152   0.88637   0.36104   0.00000  Uiso   1.00
C199   C     0.41941   0.93785   0.38672   0.00000  Uiso   1.00
C200   C     0.46432   0.94221   0.37566   0.00000  Uiso   1.00
C201   C     0.49377   0.99287   0.40340   0.00000  Uiso   1.00
C202   C     0.34710   0.98455   0.35607   0.00000  Uiso   1.00
C203   C     0.33121   0.02816   0.31923   0.00000  Uiso   1.00
C204   C     0.29978   0.11812   0.32117   0.00000  Uiso   1.00
C205   C     0.35917   0.79305   0.38758   0.00000  Uiso   1.00
C206   C     0.35341   0.67566   0.37723   0.00000  Uiso   1.00
C207   C     0.33213   0.60440   0.40569   0.00000  Uiso   1.00
H208   H     0.34230   0.00333   0.45913   0.00000  Uiso   1.00
H209   H     0.42223   0.06771   0.48090   0.00000  Uiso   1.00
H210   H     0.28913   0.15363   0.42449   0.00000  Uiso   1.00
H211   H     0.31133   0.80118   0.48247   0.00000  Uiso   1.00
H212   H     0.51744   0.11943   0.48851   0.00000  Uiso   1.00
H213   H     0.23679   0.30057   0.36956   0.00000  Uiso   1.00
H214   H     0.28360   0.55737   0.49184   0.00000  Uiso   1.00
H215   H     0.39318   0.85161   0.33189   0.00000  Uiso   1.00
H216   H     0.47590   0.90766   0.34668   0.00000  Uiso   1.00
H217   H     0.34280   0.99359   0.29026   0.00000  Uiso   1.00
H218   H     0.36500   0.64114   0.34825   0.00000  Uiso   1.00
H219   H     0.56100   0.98953   0.37957   0.00000  Uiso   1.00
H220   H     0.28035   0.17067   0.26062   0.00000  Uiso   1.00
H221   H     0.32716   0.42748   0.38290   0.00000  Uiso   1.00
O222   O     0.59272   0.09412   0.44606   0.00000  Uiso   1.00
O223   O     0.22451   0.33176   0.29000   0.00000  Uiso   1.00
O224   O     0.28593   0.35670   0.45042   0.00000  Uiso   1.00
N225   N     0.51634   0.08114   0.46085   0.00000  Uiso   1.00
N226   N     0.25396   0.25052   0.34964   0.00000  Uiso   1.00
N227   N     0.29771   0.55569   0.46395   0.00000  Uiso   1.00
N228   N     0.53978   0.01124   0.40223   0.00000  Uiso   1.00
N229   N     0.27740   0.18062   0.29102   0.00000  Uiso   1.00
N230   N     0.32115   0.48580   0.40533   0.00000  Uiso   1.00
C231   C     0.85396   0.46857   0.92998   0.00000  Uiso   1.00
C232   C     0.90444   0.48250   0.92417   0.00000  Uiso   1.00
C233   C     0.93383   0.53315   0.95193   0.00000  Uiso   1.00
C234   C     0.97877   0.53760   0.94091   0.00000  Uiso   1.00
C235   C     0.05488   0.56607   0.93756   0.00000  Uiso   1.00
C236   C     0.83213   0.52919   0.89351   0.00000  Uiso   1.00
C237   C     0.80072   0.61910   0.89551   0.00000  Uiso   1.00
C238   C     0.78479   0.66284   0.85868   0.00000  Uiso   1.00
C239   C     0.74860   0.76375   0.80775   0.00000  Uiso   1.00
C240   C     0.84420   0.33770   0.92502   0.00000  Uiso   1.00
C241   C     0.82291   0.26660   0.95350   0.00000  Uiso   1.00
C242   C     0.81713   0.14912   0.94320   0.00000  Uiso   1.00
C243   C     0.79968   0.95271   0.94119   0.00000  Uiso   1.00
C244   C     0.88152   0.38637   0.86104   0.00000  Uiso   1.00
C245   C     0.91941   0.43785   0.88672   0.00000  Uiso   1.00
C246   C     0.96432   0.44221   0.87566   0.00000  Uiso   1.00
C247   C     0.99377   0.49287   0.90340   0.00000  Uiso   1.00
C248   C     0.84710   0.48455   0.85607   0.00000  Uiso   1.00
C249   C     0.83121   0.52816   0.81923   0.00000  Uiso   1.00
C250   C     0.79978   0.61812   0.82117   0.00000  Uiso   1.00
C251   C     0.85917   0.29305   0.88758   0.00000  Uiso   1.00
C252   C     0.85341   0.17566   0.87723   0.00000  Uiso   1.00
C253   C     0.83213   0.10440   0.90569   0.00000  Uiso   1.00
H254   H     0.84230   0.50333   0.95913   0.00000  Uiso   1.00
H255   H     0.92223   0.56771   0.98090   0.00000  Uiso   1.00
H256   H     0.78913   0.65363   0.92449   0.00000  Uiso   1.00
H257   H     0.81133   0.30118   0.98247   0.00000  Uiso   1.00
H258   H     0.01744   0.61943   0.98851   0.00000  Uiso   1.00
H259   H     0.73679   0.80057   0.86956   0.00000  Uiso   1.00
H260   H     0.78360   0.05737   0.99184   0.00000  Uiso   1.00
H261   H     0.89318   0.35161   0.83189   0.00000  Uiso   1.00
H262   H     0.97590   0.40766   0.84668   0.00000  Uiso   1.00
H263   H     0.84280   0.49359   0.79026   0.00000  Uiso   1.00
H264   H     0.86500   0.14114   0.84825   0.00000  Uiso   1.00
H265   H     0.06100   0.48953   0.87957   0.00000  Uiso   1.00
H266   H     0.78035   0.67067   0.76062   0.00000  Uiso   1.00
H267   H     0.82716   0.92748   0.88290   0.00000  Uiso   1.00
O268   O     0.09272   0.59412   0.94606   0.00000  Uiso   1.00
O269   O     0.72451   0.83176   0.79000   0.00000  Uiso   1.00
O270   O     0.78593   0.85670   0.95042   0.00000  Uiso   1.00
N271   N     0.01634   0.58114   0.96085   0.00000  Uiso   1.00
N272   N     0.75396   0.75052   0.84964   0.00000  Uiso   1.00
N273   N     0.79771   0.05569   0.96395   0.00000  Uiso   1.00
N274   N     0.03978   0.51124   0.90223   0.00000  Uiso   1.00
N275   N     0.77740   0.68062   0.79102   0.00000  Uiso   1.00
N276   N     0.82115   0.98580   0.90533   0.00000  Uiso   1.00
C277   C     0.14604   0.03143   0.92998   0.00000  Uiso   1.00
C278   C     0.09556   0.01750   0.92417   0.00000  Uiso   1.00
C279   C     0.06617   0.96685   0.95193   0.00000  Uiso   1.00
C280   C     0.02123   0.96240   0.94091   0.00000  Uiso   1.00
C281   C     0.94512   0.93393   0.93756   0.00000  Uiso   1.00
C282   C     0.16787   0.97081   0.89351   0.00000  Uiso   1.00
C283   C     0.19928   0.88090   0.89551   0.00000  Uiso   1.00
C284   C     0.21521   0.83716   0.85868   0.00000  Uiso   1.00
C285   C     0.25140   0.73625   0.80775   0.00000  Uiso   1.00
C286   C     0.15580   0.16230   0.92502   0.00000  Uiso   1.00
C287   C     0.17709   0.23340   0.95350   0.00000  Uiso   1.00
C288   C     0.18287   0.35088   0.94320   0.00000  Uiso   1.00
C289   C     0.20032   0.54729   0.94119   0.00000  Uiso   1.00
C290   C     0.11848   0.11363   0.86104   0.00000  Uiso   1.00
C291   C     0.08059   0.06215   0.88672   0.00000  Uiso   1.00
C292   C     0.03568   0.05779   0.87566   0.00000  Uiso   1.00
C293   C     0.00623   0.00713   0.90340   0.00000  Uiso   1.00
C294   C     0.15290   0.01545   0.85607   0.00000  Uiso   1.00
C295   C     0.16879   0.97184   0.81923   0.00000  Uiso   1.00
C296   C     0.20022   0.88188   0.82117   0.00000  Uiso   1.00
C297   C     0.14083   0.20695   0.88758   0.00000  Uiso   1.00
C298   C     0.14659   0.32434   0.87723   0.00000  Uiso   1.00
C299   C     0.16787   0.39560   0.90569   0.00000  Uiso   1.00
H300   H     0.15770   0.99667   0.95913   0.00000  Uiso   1.00
H301   H     0.07777   0.93229   0.98090   0.00000  Uiso   1.00
H302   H     0.21087   0.84637   0.92449   0.00000  Uiso   1.00
H303   H     0.18867   0.19882   0.98247   0.00000  Uiso   1.00
H304   H     0.98256   0.88057   0.98851   0.00000  Uiso   1.00
H305   H     0.26321   0.69943   0.86956   0.00000  Uiso   1.00
H306   H     0.21640   0.44263   0.99184   0.00000  Uiso   1.00
H307   H     0.10682   0.14839   0.83189   0.00000  Uiso   1.00
H308   H     0.02410   0.09234   0.84668   0.00000  Uiso   1.00
H309   H     0.15720   0.00641   0.79026   0.00000  Uiso   1.00
H310   H     0.13500   0.35886   0.84825   0.00000  Uiso   1.00
H311   H     0.93900   0.01047   0.87957   0.00000  Uiso   1.00
H312   H     0.21965   0.82933   0.76062   0.00000  Uiso   1.00
H313   H     0.17284   0.57252   0.88290   0.00000  Uiso   1.00
O314   O     0.90728   0.90588   0.94606   0.00000  Uiso   1.00
O315   O     0.27549   0.66824   0.79000   0.00000  Uiso   1.00
O316   O     0.21407   0.64330   0.95042   0.00000  Uiso   1.00
N317   N     0.98366   0.91886   0.96085   0.00000  Uiso   1.00
N318   N     0.24604   0.74948   0.84964   0.00000  Uiso   1.00
N319   N     0.20229   0.44431   0.96395   0.00000  Uiso   1.00
N320   N     0.96022   0.98876   0.90223   0.00000  Uiso   1.00
N321   N     0.22260   0.81938   0.79102   0.00000  Uiso   1.00
N322   N     0.17885   0.51420   0.90533   0.00000  Uiso   1.00
C323   C     0.64604   0.53143   0.42998   0.00000  Uiso   1.00
C324   C     0.59556   0.51750   0.42417   0.00000  Uiso   1.00
C325   C     0.56617   0.46685   0.45193   0.00000  Uiso   1.00
C326   C     0.52123   0.46240   0.44091   0.00000  Uiso   1.00
C327   C     0.44512   0.43393   0.43756   0.00000  Uiso   1.00
C328   C     0.66787   0.47081   0.39351   0.00000  Uiso   1.00
C329   C     0.69928   0.38090   0.39551   0.00000  Uiso   1.00
C330   C     0.71521   0.33716   0.35868   0.00000  Uiso   1.00
C331   C     0.75140   0.23625   0.30775   0.00000  Uiso   1.00
C332   C     0.65580   0.66230   0.42502   0.00000  Uiso   1.00
C333   C     0.67709   0.73340   0.45350   0.00000  Uiso   1.00
C334   C     0.68287   0.85088   0.44320   0.00000  Uiso   1.00
C335   C     0.70032   0.04729   0.44119   0.00000  Uiso   1.00
C336   C     0.61848   0.61363   0.36104   0.00000  Uiso   1.00
C337   C     0.58059   0.56215   0.38672   0.00000  Uiso   1.00
C338   C     0.53568   0.55779   0.37566   0.00000  Uiso   1.00
C339   C     0.50623   0.50713   0.40340   0.00000  Uiso   1.00
C340   C     0.65290   0.51545   0.35607   0.00000  Uiso   1.00
C341   C     0.66879   0.47184   0.31923   0.00000  Uiso   1.00
C342   C     0.70022   0.38188   0.32117   0.00000  Uiso   1.00
C343   C     0.64083   0.70695   0.38758   0.00000  Uiso   1.00
C344   C     0.64659   0.82434   0.37723   0.00000  Uiso   1.00
C345   C     0.66787   0.89560   0.40569   0.00000  Uiso   1.00
H346   H     0.65770   0.49667   0.45913   0.00000  Uiso   1.00
H347   H     0.57777   0.43229   0.48090   0.00000  Uiso   1.00
H348   H     0.71087   0.34637   0.42449   0.00000  Uiso   1.00
H349   H     0.68867   0.69882   0.48247   0.00000  Uiso   1.00
H350   H     0.48256   0.38057   0.48851   0.00000  Uiso   1.00
H351   H     0.76321   0.19943   0.36956   0.00000  Uiso   1.00
H352   H     0.71640   0.94263   0.49184   0.00000  Uiso   1.00
H353   H     0.60682   0.64839   0.33189   0.00000  Uiso   1.00
H354   H     0.52410   0.59234   0.34668   0.00000  Uiso   1.00
H355   H     0.65720   0.50641   0.29026   0.00000  Uiso   1.00
H356   H     0.63500   0.85886   0.34825   0.00000  Uiso   1.00
H357   H     0.43900   0.51047   0.37957   0.00000  Uiso   1.00
H358   H     0.71965   0.32933   0.26062   0.00000  Uiso   1.00
H359   H     0.67284   0.07252   0.38290   0.00000  Uiso   1.00
O360   O     0.40728   0.40588   0.44606   0.00000  Uiso   1.00
O361   O     0.77549   0.16824   0.29000   0.00000  Uiso   1.00
O362   O     0.71407   0.14330   0.45042   0.00000  Uiso   1.00
N363   N     0.48366   0.41886   0.46085   0.00000  Uiso   1.00
N364   N     0.74604   0.24948   0.34964   0.00000  Uiso   1.00
N365   N     0.70229   0.94431   0.46395   0.00000  Uiso   1.00
N366   N     0.46022   0.48876   0.40223   0.00000  Uiso   1.00
N367   N     0.72260   0.31938   0.29102   0.00000  Uiso   1.00
N368   N     0.67885   0.01420   0.40533   0.00000  Uiso   1.00
C369   C     0.35396   0.53143   0.92998   0.00000  Uiso   1.00
C370   C     0.40444   0.51750   0.92417   0.00000  Uiso   1.00
C371   C     0.43383   0.46685   0.95193   0.00000  Uiso   1.00
C372   C     0.47877   0.46240   0.94091   0.00000  Uiso   1.00
C373   C     0.55488   0.43393   0.93756   0.00000  Uiso   1.00
C374   C     0.33213   0.47081   0.89351   0.00000  Uiso   1.00
C375   C     0.30072   0.38090   0.89551   0.00000  Uiso   1.00
C376   C     0.28479   0.33716   0.85868   0.00000  Uiso   1.00
C377   C     0.24860   0.23625   0.80775   0.00000  Uiso   1.00
C378   C     0.34420   0.66230   0.92502   0.00000  Uiso   1.00
C379   C     0.32291   0.73340   0.95350   0.00000  Uiso   1.00
C380   C     0.31713   0.85088   0.94320   0.00000  Uiso   1.00
C381   C     0.29968   0.04729   0.94119   0.00000  Uiso   1.00
C382   C     0.38152   0.61363   0.86104   0.00000  Uiso   1.00
C383   C     0.41941   0.56215   0.88672   0.00000  Uiso   1.00
C384   C     0.46432   0.55779   0.87566   0.00000  Uiso   1.00
C385   C     0.49377   0.50713   0.90340   0.00000  Uiso   1.00
C386   C     0.34710   0.51545   0.85607   0.00000  Uiso   1.00
C387   C     0.33121   0.47184   0.81923   0.00000  Uiso   1.00
C388   C     0.29978   0.38188   0.82117   0.00000  Uiso   1.00
C389   C     0.35917   0.70695   0.88758   0.00000  Uiso   1.00
C390   C     0.35341   0.82434   0.87723   0.00000  Uiso   1.00
C391   C     0.33213   0.89560   0.90569   0.00000  Uiso   1.00
H392   H     0.34230   0.49667   0.95913   0.00000  Uiso   1.00
H393   H     0.42223   0.43229   0.98090   0.00000  Uiso   1.00
H394   H     0.28913   0.34637   0.92449   0.00000  Uiso   1.00
H395   H     0.31133   0.69882   0.98247   0.00000  Uiso   1.00
H396   H     0.51744   0.38057   0.98851   0.00000  Uiso   1.00
H397   H     0.23679   0.19943   0.86956   0.00000  Uiso   1.00
H398   H     0.28360   0.94263   0.99184   0.00000  Uiso   1.00
H399   H     0.39318   0.64839   0.83189   0.00000  Uiso   1.00
H400   H     0.47590   0.59234   0.84668   0.00000  Uiso   1.00
H401   H     0.34280   0.50641   0.79026   0.00000  Uiso   1.00
H402   H     0.36500   0.85886   0.84825   0.00000  Uiso   1.00
H403   H     0.56100   0.51047   0.87957   0.00000  Uiso   1.00
H404   H     0.28035   0.32933   0.76062   0.00000  Uiso   1.00
H405   H     0.32716   0.07252   0.88290   0.00000  Uiso   1.00
O406   O     0.59272   0.40588   0.94606   0.00000  Uiso   1.00
O407   O     0.22451   0.16824   0.79000   0.00000  Uiso   1.00
O408   O     0.28593   0.14330   0.95042   0.00000  Uiso   1.00
N409   N     0.51634   0.41886   0.96085   0.00000  Uiso   1.00
N410   N     0.25396   0.24948   0.84964   0.00000  Uiso   1.00
N411   N     0.29771   0.94431   0.96395   0.00000  Uiso   1.00
N412   N     0.53978   0.48876   0.90223   0.00000  Uiso   1.00
N413   N     0.27740   0.31938   0.79102   0.00000  Uiso   1.00
N414   N     0.32115   0.01420   0.90533   0.00000  Uiso   1.00
C415   C     0.85396   0.03143   0.42998   0.00000  Uiso   1.00
C416   C     0.90444   0.01750   0.42417   0.00000  Uiso   1.00
C417   C     0.93383   0.96685   0.45193   0.00000  Uiso   1.00
C418   C     0.97877   0.96240   0.44091   0.00000  Uiso   1.00
C419   C     0.05488   0.93393   0.43756   0.00000  Uiso   1.00
C420   C     0.83213   0.97081   0.39351   0.00000  Uiso   1.00
C421   C     0.80072   0.88090   0.39551   0.00000  Uiso   1.00
C422   C     0.78479   0.83716   0.35868   0.00000  Uiso   1.00
C423   C     0.74860   0.73625   0.30775   0.00000  Uiso   1.00
C424   C     0.84420   0.16230   0.42502   0.00000  Uiso   1.00
C425   C     0.82291   0.23340   0.45350   0.00000  Uiso   1.00
C426   C     0.81713   0.35088   0.44320   0.00000  Uiso   1.00
C427   C     0.79968   0.54729   0.44119   0.00000  Uiso   1.00
C428   C     0.88152   0.11363   0.36104   0.00000  Uiso   1.00
C429   C     0.91941   0.06215   0.38672   0.00000  Uiso   1.00
C430   C     0.96432   0.05779   0.37566   0.00000  Uiso   1.00
C431   C     0.99377   0.00713   0.40340   0.00000  Uiso   1.00
C432   C     0.84710   0.01545   0.35607   0.00000  Uiso   1.00
C433   C     0.83121   0.97184   0.31923   0.00000  Uiso   1.00
C434   C     0.79978   0.88188   0.32117   0.00000  Uiso   1.00
C435   C     0.85917   0.20695   0.38758   0.00000  Uiso   1.00
C436   C     0.85341   0.32434   0.37723   0.00000  Uiso   1.00
C437   C     0.83213   0.39560   0.40569   0.00000  Uiso   1.00
H438   H     0.84230   0.99667   0.45913   0.00000  Uiso   1.00
H439   H     0.92223   0.93229   0.48090   0.00000  Uiso   1.00
H440   H     0.78913   0.84637   0.42449   0.00000  Uiso   1.00
H441   H     0.81133   0.19882   0.48247   0.00000  Uiso   1.00
H442   H     0.01744   0.88057   0.48851   0.00000  Uiso   1.00
H443   H     0.73679   0.69943   0.36956   0.00000  Uiso   1.00
H444   H     0.78360   0.44263   0.49184   0.00000  Uiso   1.00
H445   H     0.89318   0.14839   0.33189   0.00000  Uiso   1.00
H446   H     0.97590   0.09234   0.34668   0.00000  Uiso   1.00
H447   H     0.84280   0.00641   0.29026   0.00000  Uiso   1.00
H448   H     0.86500   0.35886   0.34825   0.00000  Uiso   1.00
H449   H     0.06100   0.01047   0.37957   0.00000  Uiso   1.00
H450   H     0.78035   0.82933   0.26062   0.00000  Uiso   1.00
H451   H     0.82716   0.57252   0.38290   0.00000  Uiso   1.00
O452   O     0.09272   0.90588   0.44606   0.00000  Uiso   1.00
O453   O     0.72451   0.66824   0.29000   0.00000  Uiso   1.00
O454   O     0.78593   0.64330   0.45042   0.00000  Uiso   1.00
N455   N     0.01634   0.91886   0.46085   0.00000  Uiso   1.00
N456   N     0.75396   0.74948   0.34964   0.00000  Uiso   1.00
N457   N     0.79771   0.44431   0.46395   0.00000  Uiso   1.00
N458   N     0.03978   0.98876   0.40223   0.00000  Uiso   1.00
N459   N     0.77740   0.81938   0.29102   0.00000  Uiso   1.00
N460   N     0.82115   0.51420   0.40533   0.00000  Uiso   1.00
C461   C     0.14604   0.46857   0.42998   0.00000  Uiso   1.00
C462   C     0.09556   0.48250   0.42417   0.00000  Uiso   1.00
C463   C     0.06617   0.53315   0.45193   0.00000  Uiso   1.00
C464   C     0.02123   0.53760   0.44091   0.00000  Uiso   1.00
C465   C     0.94512   0.56607   0.43756   0.00000  Uiso   1.00
C466   C     0.16787   0.52919   0.39351   0.00000  Uiso   1.00
C467   C     0.19928   0.61910   0.39551   0.00000  Uiso   1.00
C468   C     0.21521   0.66284   0.35868   0.00000  Uiso   1.00
C469   C     0.25140   0.76375   0.30775   0.00000  Uiso   1.00
C470   C     0.15580   0.33770   0.42502   0.00000  Uiso   1.00
C471   C     0.17709   0.26660   0.45350   0.00000  Uiso   1.00
C472   C     0.18287   0.14912   0.44320   0.00000  Uiso   1.00
C473   C     0.20032   0.95271   0.44119   0.00000  Uiso   1.00
C474   C     0.11848   0.38637   0.36104   0.00000  Uiso   1.00
C475   C     0.08059   0.43785   0.38672   0.00000  Uiso   1.00
C476   C     0.03568   0.44221   0.37566   0.00000  Uiso   1.00
C477   C     0.00623   0.49287   0.40340   0.00000  Uiso   1.00
C478   C     0.15290   0.48455   0.35607   0.00000  Uiso   1.00
C479   C     0.16879   0.52816   0.31923   0.00000  Uiso   1.00
C480   C     0.20022   0.61812   0.32117   0.00000  Uiso   1.00
C481   C     0.14083   0.29305   0.38758   0.00000  Uiso   1.00
C482   C     0.14659   0.17566   0.37723   0.00000  Uiso   1.00
C483   C     0.16787   0.10440   0.40569   0.00000  Uiso   1.00
H484   H     0.15770   0.50333   0.45913   0.00000  Uiso   1.00
H485   H     0.07777   0.56771   0.48090   0.00000  Uiso   1.00
H486   H     0.21087   0.65363   0.42449   0.00000  Uiso   1.00
H487   H     0.18867   0.30118   0.48247   0.00000  Uiso   1.00
H488   H     0.98256   0.61943   0.48851   0.00000  Uiso   1.00
H489   H     0.26321   0.80057   0.36956   0.00000  Uiso   1.00
H490   H     0.21640   0.05737   0.49184   0.00000  Uiso   1.00
H491   H     0.10682   0.35161   0.33189   0.00000  Uiso   1.00
H492   H     0.02410   0.40766   0.34668   0.00000  Uiso   1.00
H493   H     0.15720   0.49359   0.29026   0.00000  Uiso   1.00
H494   H     0.13500   0.14114   0.34825   0.00000  Uiso   1.00
H495   H     0.93900   0.48953   0.37957   0.00000  Uiso   1.00
H496   H     0.21965   0.67067   0.26062   0.00000  Uiso   1.00
H497   H     0.17284   0.92748   0.38290   0.00000  Uiso   1.00
O498   O     0.90728   0.59412   0.44606   0.00000  Uiso   1.00
O499   O     0.27549   0.83176   0.29000   0.00000  Uiso   1.00
O500   O     0.21407   0.85670   0.45042   0.00000  Uiso   1.00
N501   N     0.98366   0.58114   0.46085   0.00000  Uiso   1.00
N502   N     0.24604   0.75052   0.34964   0.00000  Uiso   1.00
N503   N     0.20229   0.05569   0.46395   0.00000  Uiso   1.00
N504   N     0.96022   0.51124   0.40223   0.00000  Uiso   1.00
N505   N     0.22260   0.68062   0.29102   0.00000  Uiso   1.00
N506   N     0.17885   0.98580   0.40533   0.00000  Uiso   1.00
C507   C     0.64604   0.96857   0.92998   0.00000  Uiso   1.00
C508   C     0.59556   0.98250   0.92417   0.00000  Uiso   1.00
C509   C     0.56617   0.03315   0.95193   0.00000  Uiso   1.00
C510   C     0.52123   0.03760   0.94091   0.00000  Uiso   1.00
C511   C     0.44512   0.06607   0.93756   0.00000  Uiso   1.00
C512   C     0.66787   0.02919   0.89351   0.00000  Uiso   1.00
C513   C     0.69928   0.11910   0.89551   0.00000  Uiso   1.00
C514   C     0.71521   0.16284   0.85868   0.00000  Uiso   1.00
C515   C     0.75140   0.26375   0.80775   0.00000  Uiso   1.00
C516   C     0.65580   0.83770   0.92502   0.00000  Uiso   1.00
C517   C     0.67709   0.76660   0.95350   0.00000  Uiso   1.00
C518   C     0.68287   0.64912   0.94320   0.00000  Uiso   1.00
C519   C     0.70032   0.45271   0.94119   0.00000  Uiso   1.00
C520   C     0.61848   0.88637   0.86104   0.00000  Uiso   1.00
C521   C     0.58059   0.93785   0.88672   0.00000  Uiso   1.00
C522   C     0.53568   0.94221   0.87566   0.00000  Uiso   1.00
C523   C     0.50623   0.99287   0.90340   0.00000  Uiso   1.00
C524   C     0.65290   0.98455   0.85607   0.00000  Uiso   1.00
C525   C     0.66879   0.02816   0.81923   0.00000  Uiso   1.00
C526   C     0.70022   0.11812   0.82117   0.00000  Uiso   1.00
C527   C     0.64083   0.79305   0.88758   0.00000  Uiso   1.00
C528   C     0.64659   0.67566   0.87723   0.00000  Uiso   1.00
C529   C     0.66787   0.60440   0.90569   0.00000  Uiso   1.00
H530   H     0.65770   0.00333   0.95913   0.00000  Uiso   1.00
H531   H     0.57777   0.06771   0.98090   0.00000  Uiso   1.00
H532   H     0.71087   0.15363   0.92449   0.00000  Uiso   1.00
H533   H     0.68867   0.80118   0.98247   0.00000  Uiso   1.00
H534   H     0.48256   0.11943   0.98851   0.00000  Uiso   1.00
H535   H     0.76321   0.30057   0.86956   0.00000  Uiso   1.00
H536   H     0.71640   0.55737   0.99184   0.00000  Uiso   1.00
H537   H     0.60682   0.85161   0.83189   0.00000  Uiso   1.00
H538   H     0.52410   0.90766   0.84668   0.00000  Uiso   1.00
H539   H     0.65720   0.99359   0.79026   0.00000  Uiso   1.00
H540   H     0.63500   0.64114   0.84825   0.00000  Uiso   1.00
H541   H     0.43900   0.98953   0.87957   0.00000  Uiso   1.00
H542   H     0.71965   0.17067   0.76062   0.00000  Uiso   1.00
H543   H     0.67284   0.42748   0.88290   0.00000  Uiso   1.00
O544   O     0.40728   0.09412   0.94606   0.00000  Uiso   1.00
O545   O     0.77549   0.33176   0.79000   0.00000  Uiso   1.00
O546   O     0.71407   0.35670   0.95042   0.00000  Uiso   1.00
N547   N     0.48366   0.08114   0.96085   0.00000  Uiso   1.00
N548   N     0.74604   0.25052   0.84964   0.00000  Uiso   1.00
N549   N     0.70229   0.55569   0.96395   0.00000  Uiso   1.00
N550   N     0.46022   0.01124   0.90223   0.00000  Uiso   1.00
N551   N     0.72260   0.18062   0.79102   0.00000  Uiso   1.00
N552   N     0.67885   0.48580   0.90533   0.00000  Uiso   1.00
C553   C     0.64604   0.03143   0.57002   0.00000  Uiso   1.00
C554   C     0.59556   0.01750   0.57583   0.00000  Uiso   1.00
C555   C     0.56617   0.96685   0.54807   0.00000  Uiso   1.00
C556   C     0.52123   0.96240   0.55909   0.00000  Uiso   1.00
C557   C     0.44512   0.93393   0.56244   0.00000  Uiso   1.00
C558   C     0.66787   0.97081   0.60649   0.00000  Uiso   1.00
C559   C     0.69928   0.88090   0.60449   0.00000  Uiso   1.00
C560   C     0.71521   0.83716   0.64132   0.00000  Uiso   1.00
C561   C     0.75140   0.73625   0.69225   0.00000  Uiso   1.00
C562   C     0.65580   0.16230   0.57498   0.00000  Uiso   1.00
C563   C     0.67709   0.23340   0.54650   0.00000  Uiso   1.00
C564   C     0.68287   0.35088   0.55680   0.00000  Uiso   1.00
C565   C     0.70032   0.54729   0.55881   0.00000  Uiso   1.00
C566   C     0.61848   0.11363   0.63896   0.00000  Uiso   1.00
C567   C     0.58059   0.06215   0.61328   0.00000  Uiso   1.00
C568   C     0.53568   0.05779   0.62434   0.00000  Uiso   1.00
C569   C     0.50623   0.00713   0.59660   0.00000  Uiso   1.00
C570   C     0.65290   0.01545   0.64393   0.00000  Uiso   1.00
C571   C     0.66879   0.97184   0.68077   0.00000  Uiso   1.00
C572   C     0.70022   0.88188   0.67883   0.00000  Uiso   1.00
C573   C     0.64083   0.20695   0.61242   0.00000  Uiso   1.00
C574   C     0.64659   0.32434   0.62277   0.00000  Uiso   1.00
C575   C     0.66787   0.39560   0.59431   0.00000  Uiso   1.00
H576   H     0.65770   0.99667   0.54087   0.00000  Uiso   1.00
H577   H     0.57777   0.93229   0.51910   0.00000  Uiso   1.00
H578   H     0.71087   0.84637   0.57551   0.00000  Uiso   1.00
H579   H     0.68867   0.19882   0.51753   0.00000  Uiso   1.00
H580   H     0.48256   0.88057   0.51149   0.00000  Uiso   1.00
H581   H     0.76321   0.69943   0.63044   0.00000  Uiso   1.00
H582   H     0.71640   0.44263   0.50816   0.00000  Uiso   1.00
H583   H     0.60682   0.14839   0.66811   0.00000  Uiso   1.00
H584   H     0.52410   0.09234   0.65332   0.00000  Uiso   1.00
H585   H     0.65720   0.00641   0.70974   0.00000  Uiso   1.00
H586   H     0.63500   0.35886   0.65175   0.00000  Uiso   1.00
H587   H     0.43900   0.01047   0.62043   0.00000  Uiso   1.00
H588   H     0.71965   0.82933   0.73938   0.00000  Uiso   1.00
H589   H     0.67284   0.57252   0.61710   0.00000  Uiso   1.00
O590   O     0.40728   0.90588   0.55394   0.00000  Uiso   1.00
O591   O     0.77549   0.66824   0.71000   0.00000  Uiso   1.00
O592   O     0.71407   0.64330   0.54958   0.00000  Uiso   1.00
N593   N     0.48366   0.91886   0.53915   0.00000  Uiso   1.00
N594   N     0.74604   0.74948   0.65036   0.00000  Uiso   1.00
N595   N     0.70229   0.44431   0.53605   0.00000  Uiso   1.00
N596   N     0.46022   0.98876   0.59777   0.00000  Uiso   1.00
N597   N     0.72260   0.81938   0.70898   0.00000  Uiso   1.00
N598   N     0.67885   0.51420   0.59467   0.00000  Uiso   1.00
C599   C     0.14604   0.53143   0.07002   0.00000  Uiso   1.00
C600   C     0.09556   0.51750   0.07583   0.00000  Uiso   1.00
C601   C     0.06617   0.46685   0.04807   0.00000  Uiso   1.00
C602   C     0.02123   0.46240   0.05909   0.00000  Uiso   1.00
C603   C     0.94512   0.43393   0.06244   0.00000  Uiso   1.00
C604   C     0.16787   0.47081   0.10649   0.00000  Uiso   1.00
C605   C     0.19928   0.38090   0.10449   0.00000  Uiso   1.00
C606   C     0.21521   0.33716   0.14132   0.00000  Uiso   1.00
C607   C     0.25140   0.23625   0.19225   0.00000  Uiso   1.00
C608   C     0.15580   0.66230   0.07498   0.00000  Uiso   1.00
C609   C     0.17709   0.73340   0.04650   0.00000  Uiso   1.00
C610   C     0.18287   0.85088   0.05680   0.00000  Uiso   1.00
C611   C     0.20032   0.04729   0.05881   0.00000  Uiso   1.00
C612   C     0.11848   0.61363   0.13896   0.00000  Uiso   1.00
C613   C     0.08059   0.56215   0.11328   0.00000  Uiso   1.00
C614   C     0.03568   0.55779   0.12434   0.00000  Uiso   1.00
C615   C     0.00623   0.50713   0.09660   0.00000  Uiso   1.00
C616   C     0.15290   0.51545   0.14393   0.00000  Uiso   1.00
C617   C     0.16879   0.47184   0.18077   0.00000  Uiso   1.00
C618   C     0.20022   0.38188   0.17883   0.00000  Uiso   1.00
C619   C     0.14083   0.70695   0.11242   0.00000  Uiso   1.00
C620   C     0.14659   0.82434   0.12277   0.00000  Uiso   1.00
C621   C     0.16787   0.89560   0.09431   0.00000  Uiso   1.00
H622   H     0.15770   0.49667   0.04087   0.00000  Uiso   1.00
H623   H     0.07777   0.43229   0.01910   0.00000  Uiso   1.00
H624   H     0.21087   0.34637   0.07551   0.00000  Uiso   1.00
H625   H     0.18867   0.69882   0.01753   0.00000  Uiso   1.00
H626   H     0.98256   0.38057   0.01149   0.00000  Uiso   1.00
H627   H     0.26321   0.19943   0.13044   0.00000  Uiso   1.00
H628   H     0.21640   0.94263   0.00816   0.00000  Uiso   1.00
H629   H     0.10682   0.64839   0.16811   0.00000  Uiso   1.00
H630   H     0.02410   0.59234   0.15332   0.00000  Uiso   1.00
H631   H     0.15720   0.50641   0.20974   0.00000  Uiso   1.00
H632   H     0.13500   0.85886   0.15175   0.00000  Uiso   1.00
H633   H     0.93900   0.51047   0.12043   0.00000  Uiso   1.00
H634   H     0.21965   0.32933   0.23938   0.00000  Uiso   1.00
H635   H     0.17284   0.07252   0.11710   0.00000  Uiso   1.00
O636   O     0.90728   0.40588   0.05394   0.00000  Uiso   1.00
O637   O     0.27549   0.16824   0.21000   0.00000  Uiso   1.00
O638   O     0.21407   0.14330   0.04958   0.00000  Uiso   1.00
N639   N     0.98366   0.41886   0.03915   0.00000  Uiso   1.00
N640   N     0.24604   0.24948   0.15036   0.00000  Uiso   1.00
N641   N     0.20229   0.94431   0.03605   0.00000  Uiso   1.00
N642   N     0.96022   0.48876   0.09777   0.00000  Uiso   1.00
N643   N     0.22260   0.31938   0.20898   0.00000  Uiso   1.00
N644   N     0.17885   0.01420   0.09467   0.00000  Uiso   1.00
C645   C     0.85396   0.96857   0.07002   0.00000  Uiso   1.00
C646   C     0.90444   0.98250   0.07583   0.00000  Uiso   1.00
C647   C     0.93383   0.03315   0.04807   0.00000  Uiso   1.00
C648   C     0.97877   0.03760   0.05909   0.00000  Uiso   1.00
C649   C     0.05488   0.06607   0.06244   0.00000  Uiso   1.00
C650   C     0.83213   0.02919   0.10649   0.00000  Uiso   1.00
C651   C     0.80072   0.11910   0.10449   0.00000  Uiso   1.00
C652   C     0.78479   0.16284   0.14132   0.00000  Uiso   1.00
C653   C     0.74860   0.26375   0.19225   0.00000  Uiso   1.00
C654   C     0.84420   0.83770   0.07498   0.00000  Uiso   1.00
C655   C     0.82291   0.76660   0.04650   0.00000  Uiso   1.00
C656   C     0.81713   0.64912   0.05680   0.00000  Uiso   1.00
C657   C     0.79968   0.45271   0.05881   0.00000  Uiso   1.00
C658   C     0.88152   0.88637   0.13896   0.00000  Uiso   1.00
C659   C     0.91941   0.93785   0.11328   0.00000  Uiso   1.00
C660   C     0.96432   0.94221   0.12434   0.00000  Uiso   1.00
C661   C     0.99377   0.99287   0.09660   0.00000  Uiso   1.00
C662   C     0.84710   0.98455   0.14393   0.00000  Uiso   1.00
C663   C     0.83121   0.02816   0.18077   0.00000  Uiso   1.00
C664   C     0.79978   0.11812   0.17883   0.00000  Uiso   1.00
C665   C     0.85917   0.79305   0.11242   0.00000  Uiso   1.00
C666   C     0.85341   0.67566   0.12277   0.00000  Uiso   1.00
C667   C     0.83213   0.60440   0.09431   0.00000  Uiso   1.00
H668   H     0.84230   0.00333   0.04087   0.00000  Uiso   1.00
H669   H     0.92223   0.06771   0.01910   0.00000  Uiso   1.00
H670   H     0.78913   0.15363   0.07551   0.00000  Uiso   1.00
H671   H     0.81133   0.80118   0.01753   0.00000  Uiso   1.00
H672   H     0.01744   0.11943   0.01149   0.00000  Uiso   1.00
H673   H     0.73679   0.30057   0.13044   0.00000  Uiso   1.00
H674   H     0.78360   0.55737   0.00816   0.00000  Uiso   1.00
H675   H     0.89318   0.85161   0.16811   0.00000  Uiso   1.00
H676   H     0.97590   0.90766   0.15332   0.00000  Uiso   1.00
H677   H     0.84280   0.99359   0.20974   0.00000  Uiso   1.00
H678   H     0.86500   0.64114   0.15175   0.00000  Uiso   1.00
H679   H     0.06100   0.98953   0.12043   0.00000  Uiso   1.00
H680   H     0.78035   0.17067   0.23938   0.00000  Uiso   1.00
H681   H     0.82716   0.42748   0.11710   0.00000  Uiso   1.00
O682   O     0.09272   0.09412   0.05394   0.00000  Uiso   1.00
O683   O     0.72451   0.33176   0.21000   0.00000  Uiso   1.00
O684   O     0.78593   0.35670   0.04958   0.00000  Uiso   1.00
N685   N     0.01634   0.08114   0.03915   0.00000  Uiso   1.00
N686   N     0.75396   0.25052   0.15036   0.00000  Uiso   1.00
N687   N     0.79771   0.55569   0.03605   0.00000  Uiso   1.00
N688   N     0.03978   0.01124   0.09777   0.00000  Uiso   1.00
N689   N     0.77740   0.18062   0.20898   0.00000  Uiso   1.00
N690   N     0.82115   0.48580   0.09467   0.00000  Uiso   1.00
C691   C     0.35396   0.46857   0.57002   0.00000  Uiso   1.00
C692   C     0.40444   0.48250   0.57583   0.00000  Uiso   1.00
C693   C     0.43383   0.53315   0.54807   0.00000  Uiso   1.00
C694   C     0.47877   0.53760   0.55909   0.00000  Uiso   1.00
C695   C     0.55488   0.56607   0.56244   0.00000  Uiso   1.00
C696   C     0.33213   0.52919   0.60649   0.00000  Uiso   1.00
C697   C     0.30072   0.61910   0.60449   0.00000  Uiso   1.00
C698   C     0.28479   0.66284   0.64132   0.00000  Uiso   1.00
C699   C     0.24860   0.76375   0.69225   0.00000  Uiso   1.00
C700   C     0.34420   0.33770   0.57498   0.00000  Uiso   1.00
C701   C     0.32291   0.26660   0.54650   0.00000  Uiso   1.00
C702   C     0.31713   0.14912   0.55680   0.00000  Uiso   1.00
C703   C     0.29968   0.95271   0.55881   0.00000  Uiso   1.00
C704   C     0.38152   0.38637   0.63896   0.00000  Uiso   1.00
C705   C     0.41941   0.43785   0.61328   0.00000  Uiso   1.00
C706   C     0.46432   0.44221   0.62434   0.00000  Uiso   1.00
C707   C     0.49377   0.49287   0.59660   0.00000  Uiso   1.00
C708   C     0.34710   0.48455   0.64393   0.00000  Uiso   1.00
C709   C     0.33121   0.52816   0.68077   0.00000  Uiso   1.00
C710   C     0.29978   0.61812   0.67883   0.00000  Uiso   1.00
C711   C     0.35917   0.29305   0.61242   0.00000  Uiso   1.00
C712   C     0.35341   0.17566   0.62277   0.00000  Uiso   1.00
C713   C     0.33213   0.10440   0.59431   0.00000  Uiso   1.00
H714   H     0.34230   0.50333   0.54087   0.00000  Uiso   1.00
H715   H     0.42223   0.56771   0.51910   0.00000  Uiso   1.00
H716   H     0.28913   0.65363   0.57551   0.00000  Uiso   1.00
H717   H     0.31133   0.30118   0.51753   0.00000  Uiso   1.00
H718   H     0.51744   0.61943   0.51149   0.00000  Uiso   1.00
H719   H     0.23679   0.80057   0.63044   0.00000  Uiso   1.00
H720   H     0.28360   0.05737   0.50816   0.00000  Uiso   1.00
H721   H     0.39318   0.35161   0.66811   0.00000  Uiso   1.00
H722   H     0.47590   0.40766   0.65332   0.00000  Uiso   1.00
H723   H     0.34280   0.49359   0.70974   0.00000  Uiso   1.00
H724   H     0.36500   0.14114   0.65175   0.00000  Uiso   1.00
H725   H     0.56100   0.48953   0.62043   0.00000  Uiso   1.00
H726   H     0.28035   0.67067   0.73938   0.00000  Uiso   1.00
H727   H     0.32716   0.92748   0.61710   0.00000  Uiso   1.00
O728   O     0.59272   0.59412   0.55394   0.00000  Uiso   1.00
O729   O     0.22451   0.83176   0.71000   0.00000  Uiso   1.00
O730   O     0.28593   0.85670   0.54958   0.00000  Uiso   1.00
N731   N     0.51634   0.58114   0.53915   0.00000  Uiso   1.00
N732   N     0.25396   0.75052   0.65036   0.00000  Uiso   1.00
N733   N     0.29771   0.05569   0.53605   0.00000  Uiso   1.00
N734   N     0.53978   0.51124   0.59777   0.00000  Uiso   1.00
N735   N     0.27740   0.68062   0.70898   0.00000  Uiso   1.00
N736   N     0.32115   0.98580   0.59467   0.00000  Uiso   1.00
