data_job_03317
_audit_creation_date              2018-12-19
_audit_creation_method            'Materials Studio'
_symmetry_space_group_name_H-M    'P1'
_symmetry_Int_Tables_number       1
_symmetry_cell_setting            triclinic
loop_
_symmetry_equiv_pos_as_xyz
  x,y,z
_cell_length_a                    54.6018
_cell_length_b                    22.2958
_cell_length_c                    8.4223
_cell_angle_alpha                 90.0000
_cell_angle_beta                  90.0000
_cell_angle_gamma                 90.0000
loop_
_atom_site_label
_atom_site_type_symbol
_atom_site_fract_x
_atom_site_fract_y
_atom_site_fract_z
_atom_site_U_iso_or_equiv
_atom_site_adp_type
_atom_site_occupancy
C1     C     0.19670   0.52142   0.34333   0.00000  Uiso   1.00
C2     C     0.21864   0.55214   0.26631   0.00000  Uiso   1.00
C3     C     0.24300   0.54330   0.30707   0.00000  Uiso   1.00
C4     C     0.26037   0.57567   0.22247   0.00000  Uiso   1.00
C5     C     0.29547   0.61734   0.12134   0.00000  Uiso   1.00
C6     C     0.18006   0.57167   0.40213   0.00000  Uiso   1.00
C7     C     0.17199   0.57923   0.55708   0.00000  Uiso   1.00
C8     C     0.15687   0.62803   0.58681   0.00000  Uiso   1.00
C9     C     0.13207   0.70000   0.69653   0.00000  Uiso   1.00
C10    C     0.18284   0.49063   0.20892   0.00000  Uiso   1.00
C11    C     0.17709   0.43007   0.20143   0.00000  Uiso   1.00
C12    C     0.16431   0.41065   0.06850   0.00000  Uiso   1.00
C13    C     0.14381   0.35680   0.87823   0.00000  Uiso   1.00
C14    C     0.18422   0.59464   0.12061   0.00000  Uiso   1.00
C15    C     0.21186   0.59191   0.14535   0.00000  Uiso   1.00
C16    C     0.22920   0.62430   0.06066   0.00000  Uiso   1.00
C17    C     0.25358   0.61551   0.10128   0.00000  Uiso   1.00
C18    C     0.17329   0.61143   0.28117   0.00000  Uiso   1.00
C19    C     0.15818   0.66024   0.31068   0.00000  Uiso   1.00
C20    C     0.15008   0.66788   0.46563   0.00000  Uiso   1.00
C21    C     0.17606   0.53040   0.08795   0.00000  Uiso   1.00
C22    C     0.16329   0.51108   0.95502   0.00000  Uiso   1.00
C23    C     0.15752   0.45049   0.94732   0.00000  Uiso   1.00
H24    H     0.20198   0.49046   0.43751   0.00000  Uiso   1.00
H25    H     0.24824   0.51252   0.40070   0.00000  Uiso   1.00
H26    H     0.17723   0.54844   0.65067   0.00000  Uiso   1.00
H27    H     0.18234   0.39931   0.29506   0.00000  Uiso   1.00
H28    H     0.29655   0.55453   0.30658   0.00000  Uiso   1.00
H29    H     0.14681   0.63027   0.83364   0.00000  Uiso   1.00
H30    H     0.15758   0.31578   0.08378   0.00000  Uiso   1.00
H31    H     0.17894   0.62560   0.02643   0.00000  Uiso   1.00
H32    H     0.22395   0.65508   0.96705   0.00000  Uiso   1.00
H33    H     0.15294   0.69100   0.21703   0.00000  Uiso   1.00
H34    H     0.15804   0.54186   0.86143   0.00000  Uiso   1.00
H35    H     0.27683   0.67024   0.95463   0.00000  Uiso   1.00
H36    H     0.12709   0.74597   0.48169   0.00000  Uiso   1.00
H37    H     0.13786   0.43149   0.73183   0.00000  Uiso   1.00
O38    O     0.31671   0.62935   0.09900   0.00000  Uiso   1.00
O39    O     0.12026   0.72870   0.79047   0.00000  Uiso   1.00
O40    O     0.13438   0.31611   0.80668   0.00000  Uiso   1.00
N41    N     0.28573   0.57771   0.23187   0.00000  Uiso   1.00
N42    N     0.14574   0.64852   0.72465   0.00000  Uiso   1.00
N43    N     0.15580   0.35451   0.02362   0.00000  Uiso   1.00
N44    N     0.27512   0.63997   0.04249   0.00000  Uiso   1.00
N45    N     0.13513   0.71078   0.53526   0.00000  Uiso   1.00
N46    N     0.14519   0.41677   0.83423   0.00000  Uiso   1.00
C47    C     0.19670   0.02142   0.84333   0.00000  Uiso   1.00
C48    C     0.21864   0.05214   0.76631   0.00000  Uiso   1.00
C49    C     0.24300   0.04330   0.80707   0.00000  Uiso   1.00
C50    C     0.26037   0.07567   0.72247   0.00000  Uiso   1.00
C51    C     0.29547   0.11734   0.62134   0.00000  Uiso   1.00
C52    C     0.18006   0.07167   0.90213   0.00000  Uiso   1.00
C53    C     0.17199   0.07923   0.05708   0.00000  Uiso   1.00
C54    C     0.15687   0.12803   0.08681   0.00000  Uiso   1.00
C55    C     0.13207   0.20000   0.19653   0.00000  Uiso   1.00
C56    C     0.18284   0.99063   0.70892   0.00000  Uiso   1.00
C57    C     0.17709   0.93007   0.70143   0.00000  Uiso   1.00
C58    C     0.16431   0.91065   0.56850   0.00000  Uiso   1.00
C59    C     0.14381   0.85680   0.37823   0.00000  Uiso   1.00
C60    C     0.18422   0.09464   0.62061   0.00000  Uiso   1.00
C61    C     0.21186   0.09191   0.64535   0.00000  Uiso   1.00
C62    C     0.22920   0.12430   0.56066   0.00000  Uiso   1.00
C63    C     0.25358   0.11551   0.60128   0.00000  Uiso   1.00
C64    C     0.17329   0.11143   0.78117   0.00000  Uiso   1.00
C65    C     0.15818   0.16024   0.81068   0.00000  Uiso   1.00
C66    C     0.15008   0.16788   0.96563   0.00000  Uiso   1.00
C67    C     0.17606   0.03040   0.58795   0.00000  Uiso   1.00
C68    C     0.16329   0.01108   0.45502   0.00000  Uiso   1.00
C69    C     0.15752   0.95049   0.44732   0.00000  Uiso   1.00
H70    H     0.20198   0.99046   0.93751   0.00000  Uiso   1.00
H71    H     0.24824   0.01252   0.90070   0.00000  Uiso   1.00
H72    H     0.17723   0.04844   0.15067   0.00000  Uiso   1.00
H73    H     0.18234   0.89931   0.79506   0.00000  Uiso   1.00
H74    H     0.29655   0.05453   0.80658   0.00000  Uiso   1.00
H75    H     0.14681   0.13027   0.33364   0.00000  Uiso   1.00
H76    H     0.15758   0.81578   0.58378   0.00000  Uiso   1.00
H77    H     0.17894   0.12560   0.52643   0.00000  Uiso   1.00
H78    H     0.22395   0.15508   0.46705   0.00000  Uiso   1.00
H79    H     0.15294   0.19100   0.71703   0.00000  Uiso   1.00
H80    H     0.15804   0.04186   0.36143   0.00000  Uiso   1.00
H81    H     0.27683   0.17024   0.45463   0.00000  Uiso   1.00
H82    H     0.12709   0.24597   0.98169   0.00000  Uiso   1.00
H83    H     0.13786   0.93149   0.23183   0.00000  Uiso   1.00
O84    O     0.31671   0.12935   0.59900   0.00000  Uiso   1.00
O85    O     0.12026   0.22870   0.29047   0.00000  Uiso   1.00
O86    O     0.13438   0.81611   0.30668   0.00000  Uiso   1.00
N87    N     0.28573   0.07771   0.73187   0.00000  Uiso   1.00
N88    N     0.14574   0.14852   0.22465   0.00000  Uiso   1.00
N89    N     0.15580   0.85451   0.52362   0.00000  Uiso   1.00
N90    N     0.27512   0.13997   0.54249   0.00000  Uiso   1.00
N91    N     0.13513   0.21078   0.03526   0.00000  Uiso   1.00
N92    N     0.14519   0.91677   0.33423   0.00000  Uiso   1.00
C93    C     0.69670   0.52142   0.84333   0.00000  Uiso   1.00
C94    C     0.71864   0.55214   0.76631   0.00000  Uiso   1.00
C95    C     0.74300   0.54330   0.80707   0.00000  Uiso   1.00
C96    C     0.76037   0.57567   0.72247   0.00000  Uiso   1.00
C97    C     0.79547   0.61734   0.62134   0.00000  Uiso   1.00
C98    C     0.68006   0.57167   0.90213   0.00000  Uiso   1.00
C99    C     0.67199   0.57923   0.05708   0.00000  Uiso   1.00
C100   C     0.65687   0.62803   0.08681   0.00000  Uiso   1.00
C101   C     0.63207   0.70000   0.19653   0.00000  Uiso   1.00
C102   C     0.68284   0.49063   0.70892   0.00000  Uiso   1.00
C103   C     0.67709   0.43007   0.70143   0.00000  Uiso   1.00
C104   C     0.66431   0.41065   0.56850   0.00000  Uiso   1.00
C105   C     0.64381   0.35680   0.37823   0.00000  Uiso   1.00
C106   C     0.68422   0.59464   0.62061   0.00000  Uiso   1.00
C107   C     0.71186   0.59191   0.64535   0.00000  Uiso   1.00
C108   C     0.72920   0.62430   0.56066   0.00000  Uiso   1.00
C109   C     0.75358   0.61551   0.60128   0.00000  Uiso   1.00
C110   C     0.67329   0.61143   0.78117   0.00000  Uiso   1.00
C111   C     0.65818   0.66024   0.81068   0.00000  Uiso   1.00
C112   C     0.65008   0.66788   0.96563   0.00000  Uiso   1.00
C113   C     0.67606   0.53040   0.58795   0.00000  Uiso   1.00
C114   C     0.66329   0.51108   0.45502   0.00000  Uiso   1.00
C115   C     0.65752   0.45049   0.44732   0.00000  Uiso   1.00
H116   H     0.70198   0.49046   0.93751   0.00000  Uiso   1.00
H117   H     0.74824   0.51252   0.90070   0.00000  Uiso   1.00
H118   H     0.67723   0.54844   0.15067   0.00000  Uiso   1.00
H119   H     0.68234   0.39931   0.79506   0.00000  Uiso   1.00
H120   H     0.79655   0.55453   0.80658   0.00000  Uiso   1.00
H121   H     0.64681   0.63027   0.33364   0.00000  Uiso   1.00
H122   H     0.65758   0.31578   0.58378   0.00000  Uiso   1.00
H123   H     0.67894   0.62560   0.52643   0.00000  Uiso   1.00
H124   H     0.72395   0.65508   0.46705   0.00000  Uiso   1.00
H125   H     0.65294   0.69100   0.71703   0.00000  Uiso   1.00
H126   H     0.65804   0.54186   0.36143   0.00000  Uiso   1.00
H127   H     0.77683   0.67024   0.45463   0.00000  Uiso   1.00
H128   H     0.62709   0.74597   0.98169   0.00000  Uiso   1.00
H129   H     0.63786   0.43149   0.23183   0.00000  Uiso   1.00
O130   O     0.81671   0.62935   0.59900   0.00000  Uiso   1.00
O131   O     0.62026   0.72870   0.29047   0.00000  Uiso   1.00
O132   O     0.63438   0.31611   0.30668   0.00000  Uiso   1.00
N133   N     0.78573   0.57771   0.73187   0.00000  Uiso   1.00
N134   N     0.64574   0.64852   0.22465   0.00000  Uiso   1.00
N135   N     0.65580   0.35451   0.52362   0.00000  Uiso   1.00
N136   N     0.77512   0.63997   0.54249   0.00000  Uiso   1.00
N137   N     0.63513   0.71078   0.03526   0.00000  Uiso   1.00
N138   N     0.64519   0.41677   0.33423   0.00000  Uiso   1.00
C139   C     0.69670   0.02142   0.34333   0.00000  Uiso   1.00
C140   C     0.71864   0.05214   0.26631   0.00000  Uiso   1.00
C141   C     0.74300   0.04330   0.30707   0.00000  Uiso   1.00
C142   C     0.76037   0.07567   0.22247   0.00000  Uiso   1.00
C143   C     0.79547   0.11734   0.12134   0.00000  Uiso   1.00
C144   C     0.68006   0.07167   0.40213   0.00000  Uiso   1.00
C145   C     0.67199   0.07923   0.55708   0.00000  Uiso   1.00
C146   C     0.65687   0.12803   0.58681   0.00000  Uiso   1.00
C147   C     0.63207   0.20000   0.69653   0.00000  Uiso   1.00
C148   C     0.68284   0.99063   0.20892   0.00000  Uiso   1.00
C149   C     0.67709   0.93007   0.20143   0.00000  Uiso   1.00
C150   C     0.66431   0.91065   0.06850   0.00000  Uiso   1.00
C151   C     0.64381   0.85680   0.87823   0.00000  Uiso   1.00
C152   C     0.68422   0.09464   0.12061   0.00000  Uiso   1.00
C153   C     0.71186   0.09191   0.14535   0.00000  Uiso   1.00
C154   C     0.72920   0.12430   0.06066   0.00000  Uiso   1.00
C155   C     0.75358   0.11551   0.10128   0.00000  Uiso   1.00
C156   C     0.67329   0.11143   0.28117   0.00000  Uiso   1.00
C157   C     0.65818   0.16024   0.31068   0.00000  Uiso   1.00
C158   C     0.65008   0.16788   0.46563   0.00000  Uiso   1.00
C159   C     0.67606   0.03040   0.08795   0.00000  Uiso   1.00
C160   C     0.66329   0.01108   0.95502   0.00000  Uiso   1.00
C161   C     0.65752   0.95049   0.94732   0.00000  Uiso   1.00
H162   H     0.70198   0.99046   0.43751   0.00000  Uiso   1.00
H163   H     0.74824   0.01252   0.40070   0.00000  Uiso   1.00
H164   H     0.67723   0.04844   0.65067   0.00000  Uiso   1.00
H165   H     0.68234   0.89931   0.29506   0.00000  Uiso   1.00
H166   H     0.79655   0.05453   0.30658   0.00000  Uiso   1.00
H167   H     0.64681   0.13027   0.83364   0.00000  Uiso   1.00
H168   H     0.65758   0.81578   0.08378   0.00000  Uiso   1.00
H169   H     0.67894   0.12560   0.02643   0.00000  Uiso   1.00
H170   H     0.72395   0.15508   0.96705   0.00000  Uiso   1.00
H171   H     0.65294   0.19100   0.21703   0.00000  Uiso   1.00
H172   H     0.65804   0.04186   0.86143   0.00000  Uiso   1.00
H173   H     0.77683   0.17024   0.95463   0.00000  Uiso   1.00
H174   H     0.62709   0.24597   0.48169   0.00000  Uiso   1.00
H175   H     0.63786   0.93149   0.73183   0.00000  Uiso   1.00
O176   O     0.81671   0.12935   0.09900   0.00000  Uiso   1.00
O177   O     0.62026   0.22870   0.79047   0.00000  Uiso   1.00
O178   O     0.63438   0.81611   0.80668   0.00000  Uiso   1.00
N179   N     0.78573   0.07771   0.23187   0.00000  Uiso   1.00
N180   N     0.64574   0.14852   0.72465   0.00000  Uiso   1.00
N181   N     0.65580   0.85451   0.02362   0.00000  Uiso   1.00
N182   N     0.77512   0.13997   0.04249   0.00000  Uiso   1.00
N183   N     0.63513   0.21078   0.53526   0.00000  Uiso   1.00
N184   N     0.64519   0.91677   0.83423   0.00000  Uiso   1.00
C185   C     0.80330   0.47858   0.34333   0.00000  Uiso   1.00
C186   C     0.78136   0.44786   0.26631   0.00000  Uiso   1.00
C187   C     0.75700   0.45670   0.30707   0.00000  Uiso   1.00
C188   C     0.73963   0.42433   0.22247   0.00000  Uiso   1.00
C189   C     0.70453   0.38266   0.12134   0.00000  Uiso   1.00
C190   C     0.81994   0.42833   0.40213   0.00000  Uiso   1.00
C191   C     0.82801   0.42077   0.55708   0.00000  Uiso   1.00
C192   C     0.84313   0.37197   0.58681   0.00000  Uiso   1.00
C193   C     0.86793   0.30000   0.69653   0.00000  Uiso   1.00
C194   C     0.81716   0.50937   0.20892   0.00000  Uiso   1.00
C195   C     0.82291   0.56993   0.20143   0.00000  Uiso   1.00
C196   C     0.83569   0.58935   0.06850   0.00000  Uiso   1.00
C197   C     0.85619   0.64320   0.87823   0.00000  Uiso   1.00
C198   C     0.81578   0.40536   0.12061   0.00000  Uiso   1.00
C199   C     0.78814   0.40809   0.14535   0.00000  Uiso   1.00
C200   C     0.77080   0.37570   0.06066   0.00000  Uiso   1.00
C201   C     0.74642   0.38449   0.10128   0.00000  Uiso   1.00
C202   C     0.82671   0.38857   0.28117   0.00000  Uiso   1.00
C203   C     0.84182   0.33976   0.31068   0.00000  Uiso   1.00
C204   C     0.84992   0.33212   0.46563   0.00000  Uiso   1.00
C205   C     0.82394   0.46960   0.08795   0.00000  Uiso   1.00
C206   C     0.83671   0.48892   0.95502   0.00000  Uiso   1.00
C207   C     0.84248   0.54951   0.94732   0.00000  Uiso   1.00
H208   H     0.79802   0.50954   0.43751   0.00000  Uiso   1.00
H209   H     0.75176   0.48748   0.40070   0.00000  Uiso   1.00
H210   H     0.82277   0.45156   0.65067   0.00000  Uiso   1.00
H211   H     0.81766   0.60069   0.29506   0.00000  Uiso   1.00
H212   H     0.70345   0.44547   0.30658   0.00000  Uiso   1.00
H213   H     0.85319   0.36973   0.83364   0.00000  Uiso   1.00
H214   H     0.84242   0.68422   0.08378   0.00000  Uiso   1.00
H215   H     0.82106   0.37440   0.02643   0.00000  Uiso   1.00
H216   H     0.77605   0.34492   0.96705   0.00000  Uiso   1.00
H217   H     0.84706   0.30900   0.21703   0.00000  Uiso   1.00
H218   H     0.84196   0.45814   0.86143   0.00000  Uiso   1.00
H219   H     0.72317   0.32976   0.95463   0.00000  Uiso   1.00
H220   H     0.87291   0.25403   0.48169   0.00000  Uiso   1.00
H221   H     0.86214   0.56851   0.73183   0.00000  Uiso   1.00
O222   O     0.68329   0.37065   0.09900   0.00000  Uiso   1.00
O223   O     0.87974   0.27130   0.79047   0.00000  Uiso   1.00
O224   O     0.86562   0.68389   0.80668   0.00000  Uiso   1.00
N225   N     0.71427   0.42229   0.23187   0.00000  Uiso   1.00
N226   N     0.85426   0.35148   0.72465   0.00000  Uiso   1.00
N227   N     0.84420   0.64549   0.02362   0.00000  Uiso   1.00
N228   N     0.72488   0.36003   0.04249   0.00000  Uiso   1.00
N229   N     0.86487   0.28922   0.53526   0.00000  Uiso   1.00
N230   N     0.85481   0.58323   0.83423   0.00000  Uiso   1.00
C231   C     0.80330   0.97858   0.84333   0.00000  Uiso   1.00
C232   C     0.78136   0.94786   0.76631   0.00000  Uiso   1.00
C233   C     0.75700   0.95670   0.80707   0.00000  Uiso   1.00
C234   C     0.73963   0.92433   0.72247   0.00000  Uiso   1.00
C235   C     0.70453   0.88266   0.62134   0.00000  Uiso   1.00
C236   C     0.81994   0.92833   0.90213   0.00000  Uiso   1.00
C237   C     0.82801   0.92077   0.05708   0.00000  Uiso   1.00
C238   C     0.84313   0.87197   0.08681   0.00000  Uiso   1.00
C239   C     0.86793   0.80000   0.19653   0.00000  Uiso   1.00
C240   C     0.81716   0.00937   0.70892   0.00000  Uiso   1.00
C241   C     0.82291   0.06993   0.70143   0.00000  Uiso   1.00
C242   C     0.83569   0.08935   0.56850   0.00000  Uiso   1.00
C243   C     0.85619   0.14320   0.37823   0.00000  Uiso   1.00
C244   C     0.81578   0.90536   0.62061   0.00000  Uiso   1.00
C245   C     0.78814   0.90809   0.64535   0.00000  Uiso   1.00
C246   C     0.77080   0.87570   0.56066   0.00000  Uiso   1.00
C247   C     0.74642   0.88449   0.60128   0.00000  Uiso   1.00
C248   C     0.82671   0.88857   0.78117   0.00000  Uiso   1.00
C249   C     0.84182   0.83976   0.81068   0.00000  Uiso   1.00
C250   C     0.84992   0.83212   0.96563   0.00000  Uiso   1.00
C251   C     0.82394   0.96960   0.58795   0.00000  Uiso   1.00
C252   C     0.83671   0.98892   0.45502   0.00000  Uiso   1.00
C253   C     0.84248   0.04951   0.44732   0.00000  Uiso   1.00
H254   H     0.79802   0.00954   0.93751   0.00000  Uiso   1.00
H255   H     0.75176   0.98748   0.90070   0.00000  Uiso   1.00
H256   H     0.82277   0.95156   0.15067   0.00000  Uiso   1.00
H257   H     0.81766   0.10069   0.79506   0.00000  Uiso   1.00
H258   H     0.70345   0.94547   0.80658   0.00000  Uiso   1.00
H259   H     0.85319   0.86973   0.33364   0.00000  Uiso   1.00
H260   H     0.84242   0.18422   0.58378   0.00000  Uiso   1.00
H261   H     0.82106   0.87440   0.52643   0.00000  Uiso   1.00
H262   H     0.77605   0.84492   0.46705   0.00000  Uiso   1.00
H263   H     0.84706   0.80900   0.71703   0.00000  Uiso   1.00
H264   H     0.84196   0.95814   0.36143   0.00000  Uiso   1.00
H265   H     0.72317   0.82976   0.45463   0.00000  Uiso   1.00
H266   H     0.87291   0.75403   0.98169   0.00000  Uiso   1.00
H267   H     0.86214   0.06851   0.23183   0.00000  Uiso   1.00
O268   O     0.68329   0.87065   0.59900   0.00000  Uiso   1.00
O269   O     0.87974   0.77130   0.29047   0.00000  Uiso   1.00
O270   O     0.86562   0.18389   0.30668   0.00000  Uiso   1.00
N271   N     0.71427   0.92229   0.73187   0.00000  Uiso   1.00
N272   N     0.85426   0.85148   0.22465   0.00000  Uiso   1.00
N273   N     0.84420   0.14549   0.52362   0.00000  Uiso   1.00
N274   N     0.72488   0.86003   0.54249   0.00000  Uiso   1.00
N275   N     0.86487   0.78922   0.03526   0.00000  Uiso   1.00
N276   N     0.85481   0.08323   0.33423   0.00000  Uiso   1.00
C277   C     0.30330   0.47858   0.84333   0.00000  Uiso   1.00
C278   C     0.28136   0.44786   0.76631   0.00000  Uiso   1.00
C279   C     0.25700   0.45670   0.80707   0.00000  Uiso   1.00
C280   C     0.23963   0.42433   0.72247   0.00000  Uiso   1.00
C281   C     0.20453   0.38266   0.62134   0.00000  Uiso   1.00
C282   C     0.31994   0.42833   0.90213   0.00000  Uiso   1.00
C283   C     0.32801   0.42077   0.05708   0.00000  Uiso   1.00
C284   C     0.34313   0.37197   0.08681   0.00000  Uiso   1.00
C285   C     0.36793   0.30000   0.19653   0.00000  Uiso   1.00
C286   C     0.31716   0.50937   0.70892   0.00000  Uiso   1.00
C287   C     0.32291   0.56993   0.70143   0.00000  Uiso   1.00
C288   C     0.33569   0.58935   0.56850   0.00000  Uiso   1.00
C289   C     0.35619   0.64320   0.37823   0.00000  Uiso   1.00
C290   C     0.31578   0.40536   0.62061   0.00000  Uiso   1.00
C291   C     0.28814   0.40809   0.64535   0.00000  Uiso   1.00
C292   C     0.27080   0.37570   0.56066   0.00000  Uiso   1.00
C293   C     0.24642   0.38449   0.60128   0.00000  Uiso   1.00
C294   C     0.32671   0.38857   0.78117   0.00000  Uiso   1.00
C295   C     0.34182   0.33976   0.81068   0.00000  Uiso   1.00
C296   C     0.34992   0.33212   0.96563   0.00000  Uiso   1.00
C297   C     0.32394   0.46960   0.58795   0.00000  Uiso   1.00
C298   C     0.33671   0.48892   0.45502   0.00000  Uiso   1.00
C299   C     0.34248   0.54951   0.44732   0.00000  Uiso   1.00
H300   H     0.29802   0.50954   0.93751   0.00000  Uiso   1.00
H301   H     0.25176   0.48748   0.90070   0.00000  Uiso   1.00
H302   H     0.32277   0.45156   0.15067   0.00000  Uiso   1.00
H303   H     0.31766   0.60069   0.79506   0.00000  Uiso   1.00
H304   H     0.20345   0.44547   0.80658   0.00000  Uiso   1.00
H305   H     0.35319   0.36973   0.33364   0.00000  Uiso   1.00
H306   H     0.34242   0.68422   0.58378   0.00000  Uiso   1.00
H307   H     0.32106   0.37440   0.52643   0.00000  Uiso   1.00
H308   H     0.27605   0.34492   0.46705   0.00000  Uiso   1.00
H309   H     0.34706   0.30900   0.71703   0.00000  Uiso   1.00
H310   H     0.34196   0.45814   0.36143   0.00000  Uiso   1.00
H311   H     0.22317   0.32976   0.45463   0.00000  Uiso   1.00
H312   H     0.37291   0.25403   0.98169   0.00000  Uiso   1.00
H313   H     0.36214   0.56851   0.23183   0.00000  Uiso   1.00
O314   O     0.18329   0.37065   0.59900   0.00000  Uiso   1.00
O315   O     0.37974   0.27130   0.29047   0.00000  Uiso   1.00
O316   O     0.36562   0.68389   0.30668   0.00000  Uiso   1.00
N317   N     0.21427   0.42229   0.73187   0.00000  Uiso   1.00
N318   N     0.35426   0.35148   0.22465   0.00000  Uiso   1.00
N319   N     0.34420   0.64549   0.52362   0.00000  Uiso   1.00
N320   N     0.22488   0.36003   0.54249   0.00000  Uiso   1.00
N321   N     0.36487   0.28922   0.03526   0.00000  Uiso   1.00
N322   N     0.35481   0.58323   0.33423   0.00000  Uiso   1.00
C323   C     0.30330   0.97858   0.34333   0.00000  Uiso   1.00
C324   C     0.28136   0.94786   0.26631   0.00000  Uiso   1.00
C325   C     0.25700   0.95670   0.30707   0.00000  Uiso   1.00
C326   C     0.23963   0.92433   0.22247   0.00000  Uiso   1.00
C327   C     0.20453   0.88266   0.12134   0.00000  Uiso   1.00
C328   C     0.31994   0.92833   0.40213   0.00000  Uiso   1.00
C329   C     0.32801   0.92077   0.55708   0.00000  Uiso   1.00
C330   C     0.34313   0.87197   0.58681   0.00000  Uiso   1.00
C331   C     0.36793   0.80000   0.69653   0.00000  Uiso   1.00
C332   C     0.31716   0.00937   0.20892   0.00000  Uiso   1.00
C333   C     0.32291   0.06993   0.20143   0.00000  Uiso   1.00
C334   C     0.33569   0.08935   0.06850   0.00000  Uiso   1.00
C335   C     0.35619   0.14320   0.87823   0.00000  Uiso   1.00
C336   C     0.31578   0.90536   0.12061   0.00000  Uiso   1.00
C337   C     0.28814   0.90809   0.14535   0.00000  Uiso   1.00
C338   C     0.27080   0.87570   0.06066   0.00000  Uiso   1.00
C339   C     0.24642   0.88449   0.10128   0.00000  Uiso   1.00
C340   C     0.32671   0.88857   0.28117   0.00000  Uiso   1.00
C341   C     0.34182   0.83976   0.31068   0.00000  Uiso   1.00
C342   C     0.34992   0.83212   0.46563   0.00000  Uiso   1.00
C343   C     0.32394   0.96960   0.08795   0.00000  Uiso   1.00
C344   C     0.33671   0.98892   0.95502   0.00000  Uiso   1.00
C345   C     0.34248   0.04951   0.94732   0.00000  Uiso   1.00
H346   H     0.29802   0.00954   0.43751   0.00000  Uiso   1.00
H347   H     0.25176   0.98748   0.40070   0.00000  Uiso   1.00
H348   H     0.32277   0.95156   0.65067   0.00000  Uiso   1.00
H349   H     0.31766   0.10069   0.29506   0.00000  Uiso   1.00
H350   H     0.20345   0.94547   0.30658   0.00000  Uiso   1.00
H351   H     0.35319   0.86973   0.83364   0.00000  Uiso   1.00
H352   H     0.34242   0.18422   0.08378   0.00000  Uiso   1.00
H353   H     0.32106   0.87440   0.02643   0.00000  Uiso   1.00
H354   H     0.27605   0.84492   0.96705   0.00000  Uiso   1.00
H355   H     0.34706   0.80900   0.21703   0.00000  Uiso   1.00
H356   H     0.34196   0.95814   0.86143   0.00000  Uiso   1.00
H357   H     0.22317   0.82976   0.95463   0.00000  Uiso   1.00
H358   H     0.37291   0.75403   0.48169   0.00000  Uiso   1.00
H359   H     0.36214   0.06851   0.73183   0.00000  Uiso   1.00
O360   O     0.18329   0.87065   0.09900   0.00000  Uiso   1.00
O361   O     0.37974   0.77130   0.79047   0.00000  Uiso   1.00
O362   O     0.36562   0.18389   0.80668   0.00000  Uiso   1.00
N363   N     0.21427   0.92229   0.23187   0.00000  Uiso   1.00
N364   N     0.35426   0.85148   0.72465   0.00000  Uiso   1.00
N365   N     0.34420   0.14549   0.02362   0.00000  Uiso   1.00
N366   N     0.22488   0.86003   0.04249   0.00000  Uiso   1.00
N367   N     0.36487   0.78922   0.53526   0.00000  Uiso   1.00
N368   N     0.35481   0.08323   0.83423   0.00000  Uiso   1.00
C369   C     0.44670   0.72858   0.59333   0.00000  Uiso   1.00
C370   C     0.46864   0.69786   0.51631   0.00000  Uiso   1.00
C371   C     0.49300   0.70670   0.55707   0.00000  Uiso   1.00
C372   C     0.51037   0.67433   0.47247   0.00000  Uiso   1.00
C373   C     0.54547   0.63266   0.37134   0.00000  Uiso   1.00
C374   C     0.43006   0.67833   0.65213   0.00000  Uiso   1.00
C375   C     0.42199   0.67077   0.80708   0.00000  Uiso   1.00
C376   C     0.40687   0.62197   0.83681   0.00000  Uiso   1.00
C377   C     0.38207   0.55000   0.94653   0.00000  Uiso   1.00
C378   C     0.43284   0.75937   0.45892   0.00000  Uiso   1.00
C379   C     0.42709   0.81993   0.45143   0.00000  Uiso   1.00
C380   C     0.41431   0.83935   0.31850   0.00000  Uiso   1.00
C381   C     0.39381   0.89320   0.12823   0.00000  Uiso   1.00
C382   C     0.43422   0.65536   0.37061   0.00000  Uiso   1.00
C383   C     0.46186   0.65809   0.39535   0.00000  Uiso   1.00
C384   C     0.47920   0.62570   0.31066   0.00000  Uiso   1.00
C385   C     0.50358   0.63449   0.35128   0.00000  Uiso   1.00
C386   C     0.42329   0.63857   0.53117   0.00000  Uiso   1.00
C387   C     0.40818   0.58976   0.56068   0.00000  Uiso   1.00
C388   C     0.40008   0.58212   0.71563   0.00000  Uiso   1.00
C389   C     0.42606   0.71960   0.33795   0.00000  Uiso   1.00
C390   C     0.41329   0.73892   0.20502   0.00000  Uiso   1.00
C391   C     0.40752   0.79951   0.19732   0.00000  Uiso   1.00
H392   H     0.45198   0.75954   0.68751   0.00000  Uiso   1.00
H393   H     0.49824   0.73748   0.65070   0.00000  Uiso   1.00
H394   H     0.42723   0.70156   0.90067   0.00000  Uiso   1.00
H395   H     0.43234   0.85069   0.54506   0.00000  Uiso   1.00
H396   H     0.54655   0.69547   0.55658   0.00000  Uiso   1.00
H397   H     0.39681   0.61973   0.08364   0.00000  Uiso   1.00
H398   H     0.40758   0.93422   0.33378   0.00000  Uiso   1.00
H399   H     0.42894   0.62440   0.27643   0.00000  Uiso   1.00
H400   H     0.47395   0.59492   0.21705   0.00000  Uiso   1.00
H401   H     0.40294   0.55900   0.46703   0.00000  Uiso   1.00
H402   H     0.40804   0.70814   0.11143   0.00000  Uiso   1.00
H403   H     0.52683   0.57976   0.20463   0.00000  Uiso   1.00
H404   H     0.37709   0.50403   0.73169   0.00000  Uiso   1.00
H405   H     0.38786   0.81851   0.98183   0.00000  Uiso   1.00
O406   O     0.56671   0.62065   0.34900   0.00000  Uiso   1.00
O407   O     0.37026   0.52130   0.04047   0.00000  Uiso   1.00
O408   O     0.38438   0.93389   0.05668   0.00000  Uiso   1.00
N409   N     0.53573   0.67229   0.48187   0.00000  Uiso   1.00
N410   N     0.39574   0.60148   0.97465   0.00000  Uiso   1.00
N411   N     0.40580   0.89549   0.27362   0.00000  Uiso   1.00
N412   N     0.52512   0.61003   0.29249   0.00000  Uiso   1.00
N413   N     0.38513   0.53922   0.78526   0.00000  Uiso   1.00
N414   N     0.39519   0.83323   0.08423   0.00000  Uiso   1.00
C415   C     0.44670   0.22858   0.09333   0.00000  Uiso   1.00
C416   C     0.46864   0.19786   0.01631   0.00000  Uiso   1.00
C417   C     0.49300   0.20670   0.05707   0.00000  Uiso   1.00
C418   C     0.51037   0.17433   0.97247   0.00000  Uiso   1.00
C419   C     0.54547   0.13266   0.87134   0.00000  Uiso   1.00
C420   C     0.43006   0.17833   0.15213   0.00000  Uiso   1.00
C421   C     0.42199   0.17077   0.30708   0.00000  Uiso   1.00
C422   C     0.40687   0.12197   0.33681   0.00000  Uiso   1.00
C423   C     0.38207   0.05000   0.44653   0.00000  Uiso   1.00
C424   C     0.43284   0.25937   0.95892   0.00000  Uiso   1.00
C425   C     0.42709   0.31993   0.95143   0.00000  Uiso   1.00
C426   C     0.41431   0.33935   0.81850   0.00000  Uiso   1.00
C427   C     0.39381   0.39320   0.62823   0.00000  Uiso   1.00
C428   C     0.43422   0.15536   0.87061   0.00000  Uiso   1.00
C429   C     0.46186   0.15809   0.89535   0.00000  Uiso   1.00
C430   C     0.47920   0.12570   0.81066   0.00000  Uiso   1.00
C431   C     0.50358   0.13449   0.85128   0.00000  Uiso   1.00
C432   C     0.42329   0.13857   0.03117   0.00000  Uiso   1.00
C433   C     0.40818   0.08976   0.06068   0.00000  Uiso   1.00
C434   C     0.40008   0.08212   0.21563   0.00000  Uiso   1.00
C435   C     0.42606   0.21960   0.83795   0.00000  Uiso   1.00
C436   C     0.41329   0.23892   0.70502   0.00000  Uiso   1.00
C437   C     0.40752   0.29951   0.69732   0.00000  Uiso   1.00
H438   H     0.45198   0.25954   0.18751   0.00000  Uiso   1.00
H439   H     0.49824   0.23748   0.15070   0.00000  Uiso   1.00
H440   H     0.42723   0.20156   0.40067   0.00000  Uiso   1.00
H441   H     0.43234   0.35069   0.04506   0.00000  Uiso   1.00
H442   H     0.54655   0.19547   0.05658   0.00000  Uiso   1.00
H443   H     0.39681   0.11973   0.58364   0.00000  Uiso   1.00
H444   H     0.40758   0.43422   0.83378   0.00000  Uiso   1.00
H445   H     0.42894   0.12440   0.77643   0.00000  Uiso   1.00
H446   H     0.47395   0.09492   0.71705   0.00000  Uiso   1.00
H447   H     0.40294   0.05900   0.96703   0.00000  Uiso   1.00
H448   H     0.40804   0.20814   0.61143   0.00000  Uiso   1.00
H449   H     0.52683   0.07976   0.70463   0.00000  Uiso   1.00
H450   H     0.37709   0.00403   0.23169   0.00000  Uiso   1.00
H451   H     0.38786   0.31851   0.48183   0.00000  Uiso   1.00
O452   O     0.56671   0.12065   0.84900   0.00000  Uiso   1.00
O453   O     0.37026   0.02130   0.54047   0.00000  Uiso   1.00
O454   O     0.38438   0.43389   0.55668   0.00000  Uiso   1.00
N455   N     0.53573   0.17229   0.98187   0.00000  Uiso   1.00
N456   N     0.39574   0.10148   0.47465   0.00000  Uiso   1.00
N457   N     0.40580   0.39549   0.77362   0.00000  Uiso   1.00
N458   N     0.52512   0.11003   0.79249   0.00000  Uiso   1.00
N459   N     0.38513   0.03922   0.28526   0.00000  Uiso   1.00
N460   N     0.39519   0.33323   0.58423   0.00000  Uiso   1.00
C461   C     0.94670   0.72858   0.09333   0.00000  Uiso   1.00
C462   C     0.96864   0.69786   0.01631   0.00000  Uiso   1.00
C463   C     0.99300   0.70670   0.05707   0.00000  Uiso   1.00
C464   C     0.01037   0.67433   0.97247   0.00000  Uiso   1.00
C465   C     0.04547   0.63266   0.87134   0.00000  Uiso   1.00
C466   C     0.93006   0.67833   0.15213   0.00000  Uiso   1.00
C467   C     0.92199   0.67077   0.30708   0.00000  Uiso   1.00
C468   C     0.90687   0.62197   0.33681   0.00000  Uiso   1.00
C469   C     0.88207   0.55000   0.44653   0.00000  Uiso   1.00
C470   C     0.93284   0.75937   0.95892   0.00000  Uiso   1.00
C471   C     0.92709   0.81993   0.95143   0.00000  Uiso   1.00
C472   C     0.91431   0.83935   0.81850   0.00000  Uiso   1.00
C473   C     0.89381   0.89320   0.62823   0.00000  Uiso   1.00
C474   C     0.93422   0.65536   0.87061   0.00000  Uiso   1.00
C475   C     0.96186   0.65809   0.89535   0.00000  Uiso   1.00
C476   C     0.97920   0.62570   0.81066   0.00000  Uiso   1.00
C477   C     0.00358   0.63449   0.85128   0.00000  Uiso   1.00
C478   C     0.92329   0.63857   0.03117   0.00000  Uiso   1.00
C479   C     0.90818   0.58976   0.06068   0.00000  Uiso   1.00
C480   C     0.90008   0.58212   0.21563   0.00000  Uiso   1.00
C481   C     0.92606   0.71960   0.83795   0.00000  Uiso   1.00
C482   C     0.91329   0.73892   0.70502   0.00000  Uiso   1.00
C483   C     0.90752   0.79951   0.69732   0.00000  Uiso   1.00
H484   H     0.95198   0.75954   0.18751   0.00000  Uiso   1.00
H485   H     0.99824   0.73748   0.15070   0.00000  Uiso   1.00
H486   H     0.92723   0.70156   0.40067   0.00000  Uiso   1.00
H487   H     0.93234   0.85069   0.04506   0.00000  Uiso   1.00
H488   H     0.04655   0.69547   0.05658   0.00000  Uiso   1.00
H489   H     0.89681   0.61973   0.58364   0.00000  Uiso   1.00
H490   H     0.90758   0.93422   0.83378   0.00000  Uiso   1.00
H491   H     0.92894   0.62440   0.77643   0.00000  Uiso   1.00
H492   H     0.97395   0.59492   0.71705   0.00000  Uiso   1.00
H493   H     0.90294   0.55900   0.96703   0.00000  Uiso   1.00
H494   H     0.90804   0.70814   0.61143   0.00000  Uiso   1.00
H495   H     0.02683   0.57976   0.70463   0.00000  Uiso   1.00
H496   H     0.87709   0.50403   0.23169   0.00000  Uiso   1.00
H497   H     0.88786   0.81851   0.48183   0.00000  Uiso   1.00
O498   O     0.06671   0.62065   0.84900   0.00000  Uiso   1.00
O499   O     0.87026   0.52130   0.54047   0.00000  Uiso   1.00
O500   O     0.88438   0.93389   0.55668   0.00000  Uiso   1.00
N501   N     0.03573   0.67229   0.98187   0.00000  Uiso   1.00
N502   N     0.89574   0.60148   0.47465   0.00000  Uiso   1.00
N503   N     0.90580   0.89549   0.77362   0.00000  Uiso   1.00
N504   N     0.02512   0.61003   0.79249   0.00000  Uiso   1.00
N505   N     0.88513   0.53922   0.28526   0.00000  Uiso   1.00
N506   N     0.89519   0.83323   0.58423   0.00000  Uiso   1.00
C507   C     0.94670   0.22858   0.59333   0.00000  Uiso   1.00
C508   C     0.96864   0.19786   0.51631   0.00000  Uiso   1.00
C509   C     0.99300   0.20670   0.55707   0.00000  Uiso   1.00
C510   C     0.01037   0.17433   0.47247   0.00000  Uiso   1.00
C511   C     0.04547   0.13266   0.37134   0.00000  Uiso   1.00
C512   C     0.93006   0.17833   0.65213   0.00000  Uiso   1.00
C513   C     0.92199   0.17077   0.80708   0.00000  Uiso   1.00
C514   C     0.90687   0.12197   0.83681   0.00000  Uiso   1.00
C515   C     0.88207   0.05000   0.94653   0.00000  Uiso   1.00
C516   C     0.93284   0.25937   0.45892   0.00000  Uiso   1.00
C517   C     0.92709   0.31993   0.45143   0.00000  Uiso   1.00
C518   C     0.91431   0.33935   0.31850   0.00000  Uiso   1.00
C519   C     0.89381   0.39320   0.12823   0.00000  Uiso   1.00
C520   C     0.93422   0.15536   0.37061   0.00000  Uiso   1.00
C521   C     0.96186   0.15809   0.39535   0.00000  Uiso   1.00
C522   C     0.97920   0.12570   0.31066   0.00000  Uiso   1.00
C523   C     0.00358   0.13449   0.35128   0.00000  Uiso   1.00
C524   C     0.92329   0.13857   0.53117   0.00000  Uiso   1.00
C525   C     0.90818   0.08976   0.56068   0.00000  Uiso   1.00
C526   C     0.90008   0.08212   0.71563   0.00000  Uiso   1.00
C527   C     0.92606   0.21960   0.33795   0.00000  Uiso   1.00
C528   C     0.91329   0.23892   0.20502   0.00000  Uiso   1.00
C529   C     0.90752   0.29951   0.19732   0.00000  Uiso   1.00
H530   H     0.95198   0.25954   0.68751   0.00000  Uiso   1.00
H531   H     0.99824   0.23748   0.65070   0.00000  Uiso   1.00
H532   H     0.92723   0.20156   0.90067   0.00000  Uiso   1.00
H533   H     0.93234   0.35069   0.54506   0.00000  Uiso   1.00
H534   H     0.04655   0.19547   0.55658   0.00000  Uiso   1.00
H535   H     0.89681   0.11973   0.08364   0.00000  Uiso   1.00
H536   H     0.90758   0.43422   0.33378   0.00000  Uiso   1.00
H537   H     0.92894   0.12440   0.27643   0.00000  Uiso   1.00
H538   H     0.97395   0.09492   0.21705   0.00000  Uiso   1.00
H539   H     0.90294   0.05900   0.46703   0.00000  Uiso   1.00
H540   H     0.90804   0.20814   0.11143   0.00000  Uiso   1.00
H541   H     0.02683   0.07976   0.20463   0.00000  Uiso   1.00
H542   H     0.87709   0.00403   0.73169   0.00000  Uiso   1.00
H543   H     0.88786   0.31851   0.98183   0.00000  Uiso   1.00
O544   O     0.06671   0.12065   0.34900   0.00000  Uiso   1.00
O545   O     0.87026   0.02130   0.04047   0.00000  Uiso   1.00
O546   O     0.88438   0.43389   0.05668   0.00000  Uiso   1.00
N547   N     0.03573   0.17229   0.48187   0.00000  Uiso   1.00
N548   N     0.89574   0.10148   0.97465   0.00000  Uiso   1.00
N549   N     0.90580   0.39549   0.27362   0.00000  Uiso   1.00
N550   N     0.02512   0.11003   0.29249   0.00000  Uiso   1.00
N551   N     0.88513   0.03922   0.78526   0.00000  Uiso   1.00
N552   N     0.89519   0.33323   0.08423   0.00000  Uiso   1.00
C553   C     0.05330   0.77142   0.59333   0.00000  Uiso   1.00
C554   C     0.03136   0.80214   0.51631   0.00000  Uiso   1.00
C555   C     0.00700   0.79330   0.55707   0.00000  Uiso   1.00
C556   C     0.98963   0.82567   0.47247   0.00000  Uiso   1.00
C557   C     0.95453   0.86734   0.37134   0.00000  Uiso   1.00
C558   C     0.06994   0.82167   0.65213   0.00000  Uiso   1.00
C559   C     0.07801   0.82923   0.80708   0.00000  Uiso   1.00
C560   C     0.09313   0.87803   0.83681   0.00000  Uiso   1.00
C561   C     0.11793   0.95000   0.94653   0.00000  Uiso   1.00
C562   C     0.06716   0.74063   0.45892   0.00000  Uiso   1.00
C563   C     0.07291   0.68007   0.45143   0.00000  Uiso   1.00
C564   C     0.08569   0.66065   0.31850   0.00000  Uiso   1.00
C565   C     0.10619   0.60680   0.12823   0.00000  Uiso   1.00
C566   C     0.06578   0.84464   0.37061   0.00000  Uiso   1.00
C567   C     0.03814   0.84191   0.39535   0.00000  Uiso   1.00
C568   C     0.02080   0.87430   0.31066   0.00000  Uiso   1.00
C569   C     0.99642   0.86551   0.35128   0.00000  Uiso   1.00
C570   C     0.07671   0.86143   0.53117   0.00000  Uiso   1.00
C571   C     0.09182   0.91024   0.56068   0.00000  Uiso   1.00
C572   C     0.09992   0.91788   0.71563   0.00000  Uiso   1.00
C573   C     0.07394   0.78040   0.33795   0.00000  Uiso   1.00
C574   C     0.08671   0.76108   0.20502   0.00000  Uiso   1.00
C575   C     0.09248   0.70049   0.19732   0.00000  Uiso   1.00
H576   H     0.04802   0.74046   0.68751   0.00000  Uiso   1.00
H577   H     0.00176   0.76252   0.65070   0.00000  Uiso   1.00
H578   H     0.07277   0.79844   0.90067   0.00000  Uiso   1.00
H579   H     0.06766   0.64931   0.54506   0.00000  Uiso   1.00
H580   H     0.95345   0.80453   0.55658   0.00000  Uiso   1.00
H581   H     0.10319   0.88027   0.08364   0.00000  Uiso   1.00
H582   H     0.09242   0.56578   0.33378   0.00000  Uiso   1.00
H583   H     0.07106   0.87560   0.27643   0.00000  Uiso   1.00
H584   H     0.02605   0.90508   0.21705   0.00000  Uiso   1.00
H585   H     0.09706   0.94100   0.46703   0.00000  Uiso   1.00
H586   H     0.09196   0.79186   0.11143   0.00000  Uiso   1.00
H587   H     0.97317   0.92024   0.20463   0.00000  Uiso   1.00
H588   H     0.12291   0.99597   0.73169   0.00000  Uiso   1.00
H589   H     0.11214   0.68149   0.98183   0.00000  Uiso   1.00
O590   O     0.93329   0.87935   0.34900   0.00000  Uiso   1.00
O591   O     0.12974   0.97870   0.04047   0.00000  Uiso   1.00
O592   O     0.11562   0.56611   0.05668   0.00000  Uiso   1.00
N593   N     0.96427   0.82771   0.48187   0.00000  Uiso   1.00
N594   N     0.10426   0.89852   0.97465   0.00000  Uiso   1.00
N595   N     0.09420   0.60451   0.27362   0.00000  Uiso   1.00
N596   N     0.97488   0.88997   0.29249   0.00000  Uiso   1.00
N597   N     0.11487   0.96078   0.78526   0.00000  Uiso   1.00
N598   N     0.10481   0.66677   0.08423   0.00000  Uiso   1.00
C599   C     0.05330   0.27142   0.09333   0.00000  Uiso   1.00
C600   C     0.03136   0.30214   0.01631   0.00000  Uiso   1.00
C601   C     0.00700   0.29330   0.05707   0.00000  Uiso   1.00
C602   C     0.98963   0.32567   0.97247   0.00000  Uiso   1.00
C603   C     0.95453   0.36734   0.87134   0.00000  Uiso   1.00
C604   C     0.06994   0.32167   0.15213   0.00000  Uiso   1.00
C605   C     0.07801   0.32923   0.30708   0.00000  Uiso   1.00
C606   C     0.09313   0.37803   0.33681   0.00000  Uiso   1.00
C607   C     0.11793   0.45000   0.44653   0.00000  Uiso   1.00
C608   C     0.06716   0.24063   0.95892   0.00000  Uiso   1.00
C609   C     0.07291   0.18007   0.95143   0.00000  Uiso   1.00
C610   C     0.08569   0.16065   0.81850   0.00000  Uiso   1.00
C611   C     0.10619   0.10680   0.62823   0.00000  Uiso   1.00
C612   C     0.06578   0.34464   0.87061   0.00000  Uiso   1.00
C613   C     0.03814   0.34191   0.89535   0.00000  Uiso   1.00
C614   C     0.02080   0.37430   0.81066   0.00000  Uiso   1.00
C615   C     0.99642   0.36551   0.85128   0.00000  Uiso   1.00
C616   C     0.07671   0.36143   0.03117   0.00000  Uiso   1.00
C617   C     0.09182   0.41024   0.06068   0.00000  Uiso   1.00
C618   C     0.09992   0.41788   0.21563   0.00000  Uiso   1.00
C619   C     0.07394   0.28040   0.83795   0.00000  Uiso   1.00
C620   C     0.08671   0.26108   0.70502   0.00000  Uiso   1.00
C621   C     0.09248   0.20049   0.69732   0.00000  Uiso   1.00
H622   H     0.04802   0.24046   0.18751   0.00000  Uiso   1.00
H623   H     0.00176   0.26252   0.15070   0.00000  Uiso   1.00
H624   H     0.07277   0.29844   0.40067   0.00000  Uiso   1.00
H625   H     0.06766   0.14931   0.04506   0.00000  Uiso   1.00
H626   H     0.95345   0.30453   0.05658   0.00000  Uiso   1.00
H627   H     0.10319   0.38027   0.58364   0.00000  Uiso   1.00
H628   H     0.09242   0.06578   0.83378   0.00000  Uiso   1.00
H629   H     0.07106   0.37560   0.77643   0.00000  Uiso   1.00
H630   H     0.02605   0.40508   0.71705   0.00000  Uiso   1.00
H631   H     0.09706   0.44100   0.96703   0.00000  Uiso   1.00
H632   H     0.09196   0.29186   0.61143   0.00000  Uiso   1.00
H633   H     0.97317   0.42024   0.70463   0.00000  Uiso   1.00
H634   H     0.12291   0.49597   0.23169   0.00000  Uiso   1.00
H635   H     0.11214   0.18149   0.48183   0.00000  Uiso   1.00
O636   O     0.93329   0.37935   0.84900   0.00000  Uiso   1.00
O637   O     0.12974   0.47870   0.54047   0.00000  Uiso   1.00
O638   O     0.11562   0.06611   0.55668   0.00000  Uiso   1.00
N639   N     0.96427   0.32771   0.98187   0.00000  Uiso   1.00
N640   N     0.10426   0.39852   0.47465   0.00000  Uiso   1.00
N641   N     0.09420   0.10451   0.77362   0.00000  Uiso   1.00
N642   N     0.97488   0.38997   0.79249   0.00000  Uiso   1.00
N643   N     0.11487   0.46078   0.28526   0.00000  Uiso   1.00
N644   N     0.10481   0.16677   0.58423   0.00000  Uiso   1.00
C645   C     0.55330   0.77142   0.09333   0.00000  Uiso   1.00
C646   C     0.53136   0.80214   0.01631   0.00000  Uiso   1.00
C647   C     0.50700   0.79330   0.05707   0.00000  Uiso   1.00
C648   C     0.48963   0.82567   0.97247   0.00000  Uiso   1.00
C649   C     0.45453   0.86734   0.87134   0.00000  Uiso   1.00
C650   C     0.56994   0.82167   0.15213   0.00000  Uiso   1.00
C651   C     0.57801   0.82923   0.30708   0.00000  Uiso   1.00
C652   C     0.59313   0.87803   0.33681   0.00000  Uiso   1.00
C653   C     0.61793   0.95000   0.44653   0.00000  Uiso   1.00
C654   C     0.56716   0.74063   0.95892   0.00000  Uiso   1.00
C655   C     0.57291   0.68007   0.95143   0.00000  Uiso   1.00
C656   C     0.58569   0.66065   0.81850   0.00000  Uiso   1.00
C657   C     0.60619   0.60680   0.62823   0.00000  Uiso   1.00
C658   C     0.56578   0.84464   0.87061   0.00000  Uiso   1.00
C659   C     0.53814   0.84191   0.89535   0.00000  Uiso   1.00
C660   C     0.52080   0.87430   0.81066   0.00000  Uiso   1.00
C661   C     0.49642   0.86551   0.85128   0.00000  Uiso   1.00
C662   C     0.57671   0.86143   0.03117   0.00000  Uiso   1.00
C663   C     0.59182   0.91024   0.06068   0.00000  Uiso   1.00
C664   C     0.59992   0.91788   0.21563   0.00000  Uiso   1.00
C665   C     0.57394   0.78040   0.83795   0.00000  Uiso   1.00
C666   C     0.58671   0.76108   0.70502   0.00000  Uiso   1.00
C667   C     0.59248   0.70049   0.69732   0.00000  Uiso   1.00
H668   H     0.54802   0.74046   0.18751   0.00000  Uiso   1.00
H669   H     0.50176   0.76252   0.15070   0.00000  Uiso   1.00
H670   H     0.57277   0.79844   0.40067   0.00000  Uiso   1.00
H671   H     0.56766   0.64931   0.04506   0.00000  Uiso   1.00
H672   H     0.45345   0.80453   0.05658   0.00000  Uiso   1.00
H673   H     0.60319   0.88027   0.58364   0.00000  Uiso   1.00
H674   H     0.59242   0.56578   0.83378   0.00000  Uiso   1.00
H675   H     0.57106   0.87560   0.77643   0.00000  Uiso   1.00
H676   H     0.52605   0.90508   0.71705   0.00000  Uiso   1.00
H677   H     0.59706   0.94100   0.96703   0.00000  Uiso   1.00
H678   H     0.59196   0.79186   0.61143   0.00000  Uiso   1.00
H679   H     0.47317   0.92024   0.70463   0.00000  Uiso   1.00
H680   H     0.62291   0.99597   0.23169   0.00000  Uiso   1.00
H681   H     0.61214   0.68149   0.48183   0.00000  Uiso   1.00
O682   O     0.43329   0.87935   0.84900   0.00000  Uiso   1.00
O683   O     0.62974   0.97870   0.54047   0.00000  Uiso   1.00
O684   O     0.61562   0.56611   0.55668   0.00000  Uiso   1.00
N685   N     0.46427   0.82771   0.98187   0.00000  Uiso   1.00
N686   N     0.60426   0.89852   0.47465   0.00000  Uiso   1.00
N687   N     0.59420   0.60451   0.77362   0.00000  Uiso   1.00
N688   N     0.47488   0.88997   0.79249   0.00000  Uiso   1.00
N689   N     0.61487   0.96078   0.28526   0.00000  Uiso   1.00
N690   N     0.60481   0.66677   0.58423   0.00000  Uiso   1.00
C691   C     0.55330   0.27142   0.59333   0.00000  Uiso   1.00
C692   C     0.53136   0.30214   0.51631   0.00000  Uiso   1.00
C693   C     0.50700   0.29330   0.55707   0.00000  Uiso   1.00
C694   C     0.48963   0.32567   0.47247   0.00000  Uiso   1.00
C695   C     0.45453   0.36734   0.37134   0.00000  Uiso   1.00
C696   C     0.56994   0.32167   0.65213   0.00000  Uiso   1.00
C697   C     0.57801   0.32923   0.80708   0.00000  Uiso   1.00
C698   C     0.59313   0.37803   0.83681   0.00000  Uiso   1.00
C699   C     0.61793   0.45000   0.94653   0.00000  Uiso   1.00
C700   C     0.56716   0.24063   0.45892   0.00000  Uiso   1.00
C701   C     0.57291   0.18007   0.45143   0.00000  Uiso   1.00
C702   C     0.58569   0.16065   0.31850   0.00000  Uiso   1.00
C703   C     0.60619   0.10680   0.12823   0.00000  Uiso   1.00
C704   C     0.56578   0.34464   0.37061   0.00000  Uiso   1.00
C705   C     0.53814   0.34191   0.39535   0.00000  Uiso   1.00
C706   C     0.52080   0.37430   0.31066   0.00000  Uiso   1.00
C707   C     0.49642   0.36551   0.35128   0.00000  Uiso   1.00
C708   C     0.57671   0.36143   0.53117   0.00000  Uiso   1.00
C709   C     0.59182   0.41024   0.56068   0.00000  Uiso   1.00
C710   C     0.59992   0.41788   0.71563   0.00000  Uiso   1.00
C711   C     0.57394   0.28040   0.33795   0.00000  Uiso   1.00
C712   C     0.58671   0.26108   0.20502   0.00000  Uiso   1.00
C713   C     0.59248   0.20049   0.19732   0.00000  Uiso   1.00
H714   H     0.54802   0.24046   0.68751   0.00000  Uiso   1.00
H715   H     0.50176   0.26252   0.65070   0.00000  Uiso   1.00
H716   H     0.57277   0.29844   0.90067   0.00000  Uiso   1.00
H717   H     0.56766   0.14931   0.54506   0.00000  Uiso   1.00
H718   H     0.45345   0.30453   0.55658   0.00000  Uiso   1.00
H719   H     0.60319   0.38027   0.08364   0.00000  Uiso   1.00
H720   H     0.59242   0.06578   0.33378   0.00000  Uiso   1.00
H721   H     0.57106   0.37560   0.27643   0.00000  Uiso   1.00
H722   H     0.52605   0.40508   0.21705   0.00000  Uiso   1.00
H723   H     0.59706   0.44100   0.46703   0.00000  Uiso   1.00
H724   H     0.59196   0.29186   0.11143   0.00000  Uiso   1.00
H725   H     0.47317   0.42024   0.20463   0.00000  Uiso   1.00
H726   H     0.62291   0.49597   0.73169   0.00000  Uiso   1.00
H727   H     0.61214   0.18149   0.98183   0.00000  Uiso   1.00
O728   O     0.43329   0.37935   0.34900   0.00000  Uiso   1.00
O729   O     0.62974   0.47870   0.04047   0.00000  Uiso   1.00
O730   O     0.61562   0.06611   0.05668   0.00000  Uiso   1.00
N731   N     0.46427   0.32771   0.48187   0.00000  Uiso   1.00
N732   N     0.60426   0.39852   0.97465   0.00000  Uiso   1.00
N733   N     0.59420   0.10451   0.27362   0.00000  Uiso   1.00
N734   N     0.47488   0.38997   0.29249   0.00000  Uiso   1.00
N735   N     0.61487   0.46078   0.78526   0.00000  Uiso   1.00
N736   N     0.60481   0.16677   0.08423   0.00000  Uiso   1.00
