data_job_03858
_audit_creation_date              2018-12-19
_audit_creation_method            'Materials Studio'
_symmetry_space_group_name_H-M    'P1'
_symmetry_Int_Tables_number       1
_symmetry_cell_setting            triclinic
loop_
_symmetry_equiv_pos_as_xyz
  x,y,z
_cell_length_a                    30.2819
_cell_length_b                    30.2819
_cell_length_c                    17.6551
_cell_angle_alpha                 90.0000
_cell_angle_beta                  90.0000
_cell_angle_gamma                 90.0000
loop_
_atom_site_label
_atom_site_type_symbol
_atom_site_fract_x
_atom_site_fract_y
_atom_site_fract_z
_atom_site_U_iso_or_equiv
_atom_site_adp_type
_atom_site_occupancy
C1     C     0.34889   0.75199   0.80395   0.00000  Uiso   1.00
C2     C     0.33817   0.77369   0.87970   0.00000  Uiso   1.00
C3     C     0.31090   0.81002   0.89007   0.00000  Uiso   1.00
C4     C     0.30530   0.82491   0.96383   0.00000  Uiso   1.00
C5     C     0.28548   0.86177   0.07213   0.00000  Uiso   1.00
C6     C     0.39909   0.75254   0.79719   0.00000  Uiso   1.00
C7     C     0.42304   0.77107   0.73819   0.00000  Uiso   1.00
C8     C     0.46873   0.76814   0.74250   0.00000  Uiso   1.00
C9     C     0.54349   0.77213   0.72269   0.00000  Uiso   1.00
C10    C     0.33583   0.70359   0.81209   0.00000  Uiso   1.00
C11    C     0.30661   0.68097   0.76561   0.00000  Uiso   1.00
C12    C     0.29904   0.63682   0.78245   0.00000  Uiso   1.00
C13    C     0.27560   0.56482   0.78577   0.00000  Uiso   1.00
C14    C     0.38744   0.71381   0.91650   0.00000  Uiso   1.00
C15    C     0.35911   0.75295   0.94082   0.00000  Uiso   1.00
C16    C     0.35355   0.76778   0.01459   0.00000  Uiso   1.00
C17    C     0.32628   0.80413   0.02507   0.00000  Uiso   1.00
C18    C     0.42003   0.73180   0.85832   0.00000  Uiso   1.00
C19    C     0.46569   0.72884   0.86271   0.00000  Uiso   1.00
C20    C     0.48971   0.74737   0.80374   0.00000  Uiso   1.00
C21    C     0.35677   0.68285   0.87322   0.00000  Uiso   1.00
C22    C     0.34926   0.63873   0.89013   0.00000  Uiso   1.00
C23    C     0.32002   0.61605   0.84369   0.00000  Uiso   1.00
H24    H     0.33259   0.76814   0.75636   0.00000  Uiso   1.00
H25    H     0.29470   0.82606   0.84274   0.00000  Uiso   1.00
H26    H     0.40682   0.78712   0.69089   0.00000  Uiso   1.00
H27    H     0.29041   0.69703   0.71831   0.00000  Uiso   1.00
H28    H     0.26194   0.88115   0.96548   0.00000  Uiso   1.00
H29    H     0.49836   0.79902   0.64527   0.00000  Uiso   1.00
H30    H     0.25288   0.60904   0.70308   0.00000  Uiso   1.00
H31    H     0.40375   0.69767   0.96409   0.00000  Uiso   1.00
H32    H     0.36976   0.75173   0.06188   0.00000  Uiso   1.00
H33    H     0.48189   0.71278   0.91003   0.00000  Uiso   1.00
H34    H     0.36547   0.62270   0.93744   0.00000  Uiso   1.00
H35    H     0.32287   0.82082   0.14334   0.00000  Uiso   1.00
H36    H     0.55929   0.73868   0.82313   0.00000  Uiso   1.00
H37    H     0.31380   0.54872   0.88094   0.00000  Uiso   1.00
O38    O     0.26877   0.88783   0.11499   0.00000  Uiso   1.00
O39    O     0.57895   0.78006   0.69488   0.00000  Uiso   1.00
O40    O     0.25687   0.53083   0.77073   0.00000  Uiso   1.00
N41    N     0.28094   0.85953   0.99392   0.00000  Uiso   1.00
N42    N     0.50198   0.78274   0.69455   0.00000  Uiso   1.00
N43    N     0.27248   0.60513   0.74858   0.00000  Uiso   1.00
N44    N     0.31372   0.82707   0.08962   0.00000  Uiso   1.00
N45    N     0.53476   0.75028   0.79026   0.00000  Uiso   1.00
N46    N     0.30526   0.57267   0.84429   0.00000  Uiso   1.00
C47    C     0.84889   0.25199   0.30395   0.00000  Uiso   1.00
C48    C     0.83817   0.27369   0.37970   0.00000  Uiso   1.00
C49    C     0.81090   0.31002   0.39007   0.00000  Uiso   1.00
C50    C     0.80530   0.32491   0.46383   0.00000  Uiso   1.00
C51    C     0.78548   0.36177   0.57213   0.00000  Uiso   1.00
C52    C     0.89909   0.25254   0.29719   0.00000  Uiso   1.00
C53    C     0.92304   0.27107   0.23819   0.00000  Uiso   1.00
C54    C     0.96873   0.26814   0.24250   0.00000  Uiso   1.00
C55    C     0.04349   0.27213   0.22269   0.00000  Uiso   1.00
C56    C     0.83583   0.20359   0.31209   0.00000  Uiso   1.00
C57    C     0.80661   0.18097   0.26561   0.00000  Uiso   1.00
C58    C     0.79904   0.13682   0.28245   0.00000  Uiso   1.00
C59    C     0.77560   0.06482   0.28577   0.00000  Uiso   1.00
C60    C     0.88744   0.21381   0.41650   0.00000  Uiso   1.00
C61    C     0.85911   0.25295   0.44082   0.00000  Uiso   1.00
C62    C     0.85355   0.26778   0.51459   0.00000  Uiso   1.00
C63    C     0.82628   0.30413   0.52507   0.00000  Uiso   1.00
C64    C     0.92003   0.23180   0.35832   0.00000  Uiso   1.00
C65    C     0.96569   0.22884   0.36271   0.00000  Uiso   1.00
C66    C     0.98971   0.24737   0.30374   0.00000  Uiso   1.00
C67    C     0.85677   0.18285   0.37322   0.00000  Uiso   1.00
C68    C     0.84926   0.13873   0.39013   0.00000  Uiso   1.00
C69    C     0.82002   0.11605   0.34369   0.00000  Uiso   1.00
H70    H     0.83259   0.26814   0.25636   0.00000  Uiso   1.00
H71    H     0.79470   0.32606   0.34274   0.00000  Uiso   1.00
H72    H     0.90682   0.28712   0.19089   0.00000  Uiso   1.00
H73    H     0.79041   0.19703   0.21831   0.00000  Uiso   1.00
H74    H     0.76194   0.38115   0.46548   0.00000  Uiso   1.00
H75    H     0.99836   0.29902   0.14527   0.00000  Uiso   1.00
H76    H     0.75288   0.10904   0.20308   0.00000  Uiso   1.00
H77    H     0.90375   0.19767   0.46409   0.00000  Uiso   1.00
H78    H     0.86976   0.25173   0.56188   0.00000  Uiso   1.00
H79    H     0.98189   0.21278   0.41003   0.00000  Uiso   1.00
H80    H     0.86547   0.12270   0.43744   0.00000  Uiso   1.00
H81    H     0.82287   0.32082   0.64334   0.00000  Uiso   1.00
H82    H     0.05929   0.23868   0.32313   0.00000  Uiso   1.00
H83    H     0.81380   0.04872   0.38094   0.00000  Uiso   1.00
O84    O     0.76877   0.38783   0.61499   0.00000  Uiso   1.00
O85    O     0.07895   0.28006   0.19488   0.00000  Uiso   1.00
O86    O     0.75687   0.03083   0.27073   0.00000  Uiso   1.00
N87    N     0.78094   0.35953   0.49392   0.00000  Uiso   1.00
N88    N     0.00198   0.28274   0.19455   0.00000  Uiso   1.00
N89    N     0.77248   0.10513   0.24858   0.00000  Uiso   1.00
N90    N     0.81372   0.32707   0.58962   0.00000  Uiso   1.00
N91    N     0.03476   0.25028   0.29026   0.00000  Uiso   1.00
N92    N     0.80526   0.07267   0.34429   0.00000  Uiso   1.00
C93    C     0.65111   0.24801   0.80395   0.00000  Uiso   1.00
C94    C     0.66183   0.22631   0.87970   0.00000  Uiso   1.00
C95    C     0.68910   0.18998   0.89007   0.00000  Uiso   1.00
C96    C     0.69470   0.17509   0.96383   0.00000  Uiso   1.00
C97    C     0.71452   0.13823   0.07213   0.00000  Uiso   1.00
C98    C     0.60091   0.24746   0.79719   0.00000  Uiso   1.00
C99    C     0.57696   0.22893   0.73819   0.00000  Uiso   1.00
C100   C     0.53127   0.23186   0.74250   0.00000  Uiso   1.00
C101   C     0.45651   0.22787   0.72269   0.00000  Uiso   1.00
C102   C     0.66417   0.29641   0.81209   0.00000  Uiso   1.00
C103   C     0.69339   0.31903   0.76561   0.00000  Uiso   1.00
C104   C     0.70096   0.36318   0.78245   0.00000  Uiso   1.00
C105   C     0.72440   0.43518   0.78577   0.00000  Uiso   1.00
C106   C     0.61256   0.28619   0.91650   0.00000  Uiso   1.00
C107   C     0.64089   0.24705   0.94082   0.00000  Uiso   1.00
C108   C     0.64645   0.23222   0.01459   0.00000  Uiso   1.00
C109   C     0.67372   0.19587   0.02507   0.00000  Uiso   1.00
C110   C     0.57997   0.26820   0.85832   0.00000  Uiso   1.00
C111   C     0.53431   0.27116   0.86271   0.00000  Uiso   1.00
C112   C     0.51029   0.25263   0.80374   0.00000  Uiso   1.00
C113   C     0.64323   0.31715   0.87322   0.00000  Uiso   1.00
C114   C     0.65074   0.36127   0.89013   0.00000  Uiso   1.00
C115   C     0.67998   0.38395   0.84369   0.00000  Uiso   1.00
H116   H     0.66741   0.23186   0.75636   0.00000  Uiso   1.00
H117   H     0.70530   0.17394   0.84274   0.00000  Uiso   1.00
H118   H     0.59318   0.21288   0.69089   0.00000  Uiso   1.00
H119   H     0.70959   0.30297   0.71831   0.00000  Uiso   1.00
H120   H     0.73806   0.11885   0.96548   0.00000  Uiso   1.00
H121   H     0.50164   0.20098   0.64527   0.00000  Uiso   1.00
H122   H     0.74712   0.39096   0.70308   0.00000  Uiso   1.00
H123   H     0.59625   0.30233   0.96409   0.00000  Uiso   1.00
H124   H     0.63024   0.24827   0.06188   0.00000  Uiso   1.00
H125   H     0.51811   0.28722   0.91003   0.00000  Uiso   1.00
H126   H     0.63453   0.37730   0.93744   0.00000  Uiso   1.00
H127   H     0.67713   0.17918   0.14334   0.00000  Uiso   1.00
H128   H     0.44071   0.26132   0.82313   0.00000  Uiso   1.00
H129   H     0.68620   0.45128   0.88094   0.00000  Uiso   1.00
O130   O     0.73123   0.11217   0.11499   0.00000  Uiso   1.00
O131   O     0.42105   0.21994   0.69488   0.00000  Uiso   1.00
O132   O     0.74313   0.46917   0.77073   0.00000  Uiso   1.00
N133   N     0.71906   0.14047   0.99392   0.00000  Uiso   1.00
N134   N     0.49802   0.21726   0.69455   0.00000  Uiso   1.00
N135   N     0.72752   0.39487   0.74858   0.00000  Uiso   1.00
N136   N     0.68628   0.17293   0.08962   0.00000  Uiso   1.00
N137   N     0.46524   0.24972   0.79026   0.00000  Uiso   1.00
N138   N     0.69474   0.42733   0.84429   0.00000  Uiso   1.00
C139   C     0.15111   0.74801   0.30395   0.00000  Uiso   1.00
C140   C     0.16183   0.72631   0.37970   0.00000  Uiso   1.00
C141   C     0.18910   0.68998   0.39007   0.00000  Uiso   1.00
C142   C     0.19470   0.67509   0.46383   0.00000  Uiso   1.00
C143   C     0.21452   0.63823   0.57213   0.00000  Uiso   1.00
C144   C     0.10091   0.74746   0.29719   0.00000  Uiso   1.00
C145   C     0.07696   0.72893   0.23819   0.00000  Uiso   1.00
C146   C     0.03127   0.73186   0.24250   0.00000  Uiso   1.00
C147   C     0.95651   0.72787   0.22269   0.00000  Uiso   1.00
C148   C     0.16417   0.79641   0.31209   0.00000  Uiso   1.00
C149   C     0.19339   0.81903   0.26561   0.00000  Uiso   1.00
C150   C     0.20096   0.86318   0.28245   0.00000  Uiso   1.00
C151   C     0.22440   0.93518   0.28577   0.00000  Uiso   1.00
C152   C     0.11256   0.78619   0.41650   0.00000  Uiso   1.00
C153   C     0.14089   0.74705   0.44082   0.00000  Uiso   1.00
C154   C     0.14645   0.73222   0.51459   0.00000  Uiso   1.00
C155   C     0.17372   0.69587   0.52507   0.00000  Uiso   1.00
C156   C     0.07997   0.76820   0.35832   0.00000  Uiso   1.00
C157   C     0.03431   0.77116   0.36271   0.00000  Uiso   1.00
C158   C     0.01029   0.75263   0.30374   0.00000  Uiso   1.00
C159   C     0.14323   0.81715   0.37322   0.00000  Uiso   1.00
C160   C     0.15074   0.86127   0.39013   0.00000  Uiso   1.00
C161   C     0.17998   0.88395   0.34369   0.00000  Uiso   1.00
H162   H     0.16741   0.73186   0.25636   0.00000  Uiso   1.00
H163   H     0.20530   0.67394   0.34274   0.00000  Uiso   1.00
H164   H     0.09318   0.71288   0.19089   0.00000  Uiso   1.00
H165   H     0.20959   0.80297   0.21831   0.00000  Uiso   1.00
H166   H     0.23806   0.61885   0.46548   0.00000  Uiso   1.00
H167   H     0.00164   0.70098   0.14527   0.00000  Uiso   1.00
H168   H     0.24712   0.89096   0.20308   0.00000  Uiso   1.00
H169   H     0.09625   0.80233   0.46409   0.00000  Uiso   1.00
H170   H     0.13024   0.74827   0.56188   0.00000  Uiso   1.00
H171   H     0.01811   0.78722   0.41003   0.00000  Uiso   1.00
H172   H     0.13453   0.87730   0.43744   0.00000  Uiso   1.00
H173   H     0.17713   0.67918   0.64334   0.00000  Uiso   1.00
H174   H     0.94071   0.76132   0.32313   0.00000  Uiso   1.00
H175   H     0.18620   0.95128   0.38094   0.00000  Uiso   1.00
O176   O     0.23123   0.61217   0.61499   0.00000  Uiso   1.00
O177   O     0.92105   0.71994   0.19488   0.00000  Uiso   1.00
O178   O     0.24313   0.96917   0.27073   0.00000  Uiso   1.00
N179   N     0.21906   0.64047   0.49392   0.00000  Uiso   1.00
N180   N     0.99802   0.71726   0.19455   0.00000  Uiso   1.00
N181   N     0.22752   0.89487   0.24858   0.00000  Uiso   1.00
N182   N     0.18628   0.67293   0.58962   0.00000  Uiso   1.00
N183   N     0.96524   0.74972   0.29026   0.00000  Uiso   1.00
N184   N     0.19474   0.92733   0.34429   0.00000  Uiso   1.00
C185   C     0.75199   0.65111   0.19605   0.00000  Uiso   1.00
C186   C     0.77369   0.66183   0.12030   0.00000  Uiso   1.00
C187   C     0.81002   0.68910   0.10993   0.00000  Uiso   1.00
C188   C     0.82491   0.69470   0.03617   0.00000  Uiso   1.00
C189   C     0.86177   0.71452   0.92787   0.00000  Uiso   1.00
C190   C     0.75254   0.60091   0.20281   0.00000  Uiso   1.00
C191   C     0.77107   0.57696   0.26181   0.00000  Uiso   1.00
C192   C     0.76814   0.53127   0.25750   0.00000  Uiso   1.00
C193   C     0.77213   0.45651   0.27731   0.00000  Uiso   1.00
C194   C     0.70359   0.66417   0.18791   0.00000  Uiso   1.00
C195   C     0.68097   0.69339   0.23439   0.00000  Uiso   1.00
C196   C     0.63682   0.70096   0.21755   0.00000  Uiso   1.00
C197   C     0.56482   0.72440   0.21423   0.00000  Uiso   1.00
C198   C     0.71381   0.61256   0.08350   0.00000  Uiso   1.00
C199   C     0.75295   0.64089   0.05918   0.00000  Uiso   1.00
C200   C     0.76778   0.64645   0.98541   0.00000  Uiso   1.00
C201   C     0.80413   0.67372   0.97493   0.00000  Uiso   1.00
C202   C     0.73180   0.57997   0.14168   0.00000  Uiso   1.00
C203   C     0.72884   0.53431   0.13729   0.00000  Uiso   1.00
C204   C     0.74737   0.51029   0.19626   0.00000  Uiso   1.00
C205   C     0.68285   0.64323   0.12678   0.00000  Uiso   1.00
C206   C     0.63873   0.65074   0.10987   0.00000  Uiso   1.00
C207   C     0.61605   0.67998   0.15631   0.00000  Uiso   1.00
H208   H     0.76814   0.66741   0.24364   0.00000  Uiso   1.00
H209   H     0.82606   0.70530   0.15726   0.00000  Uiso   1.00
H210   H     0.78712   0.59318   0.30911   0.00000  Uiso   1.00
H211   H     0.69703   0.70959   0.28169   0.00000  Uiso   1.00
H212   H     0.88115   0.73806   0.03452   0.00000  Uiso   1.00
H213   H     0.79902   0.50164   0.35473   0.00000  Uiso   1.00
H214   H     0.60904   0.74712   0.29692   0.00000  Uiso   1.00
H215   H     0.69767   0.59625   0.03591   0.00000  Uiso   1.00
H216   H     0.75173   0.63024   0.93812   0.00000  Uiso   1.00
H217   H     0.71278   0.51811   0.08997   0.00000  Uiso   1.00
H218   H     0.62270   0.63453   0.06256   0.00000  Uiso   1.00
H219   H     0.82082   0.67713   0.85666   0.00000  Uiso   1.00
H220   H     0.73868   0.44071   0.17687   0.00000  Uiso   1.00
H221   H     0.54872   0.68620   0.11906   0.00000  Uiso   1.00
O222   O     0.88783   0.73123   0.88501   0.00000  Uiso   1.00
O223   O     0.78006   0.42105   0.30512   0.00000  Uiso   1.00
O224   O     0.53083   0.74313   0.22927   0.00000  Uiso   1.00
N225   N     0.85953   0.71906   0.00608   0.00000  Uiso   1.00
N226   N     0.78274   0.49802   0.30545   0.00000  Uiso   1.00
N227   N     0.60513   0.72752   0.25142   0.00000  Uiso   1.00
N228   N     0.82707   0.68628   0.91038   0.00000  Uiso   1.00
N229   N     0.75028   0.46524   0.20974   0.00000  Uiso   1.00
N230   N     0.57267   0.69474   0.15571   0.00000  Uiso   1.00
C231   C     0.25199   0.15111   0.69605   0.00000  Uiso   1.00
C232   C     0.27369   0.16183   0.62030   0.00000  Uiso   1.00
C233   C     0.31002   0.18910   0.60993   0.00000  Uiso   1.00
C234   C     0.32491   0.19470   0.53617   0.00000  Uiso   1.00
C235   C     0.36177   0.21452   0.42787   0.00000  Uiso   1.00
C236   C     0.25254   0.10091   0.70281   0.00000  Uiso   1.00
C237   C     0.27107   0.07696   0.76181   0.00000  Uiso   1.00
C238   C     0.26814   0.03127   0.75750   0.00000  Uiso   1.00
C239   C     0.27213   0.95651   0.77731   0.00000  Uiso   1.00
C240   C     0.20359   0.16417   0.68791   0.00000  Uiso   1.00
C241   C     0.18097   0.19339   0.73439   0.00000  Uiso   1.00
C242   C     0.13682   0.20096   0.71755   0.00000  Uiso   1.00
C243   C     0.06482   0.22440   0.71423   0.00000  Uiso   1.00
C244   C     0.21381   0.11256   0.58350   0.00000  Uiso   1.00
C245   C     0.25295   0.14089   0.55918   0.00000  Uiso   1.00
C246   C     0.26778   0.14645   0.48541   0.00000  Uiso   1.00
C247   C     0.30413   0.17372   0.47493   0.00000  Uiso   1.00
C248   C     0.23180   0.07997   0.64168   0.00000  Uiso   1.00
C249   C     0.22884   0.03431   0.63729   0.00000  Uiso   1.00
C250   C     0.24737   0.01029   0.69626   0.00000  Uiso   1.00
C251   C     0.18285   0.14323   0.62678   0.00000  Uiso   1.00
C252   C     0.13873   0.15074   0.60987   0.00000  Uiso   1.00
C253   C     0.11605   0.17998   0.65631   0.00000  Uiso   1.00
H254   H     0.26814   0.16741   0.74364   0.00000  Uiso   1.00
H255   H     0.32606   0.20530   0.65726   0.00000  Uiso   1.00
H256   H     0.28712   0.09318   0.80911   0.00000  Uiso   1.00
H257   H     0.19703   0.20959   0.78169   0.00000  Uiso   1.00
H258   H     0.38115   0.23806   0.53452   0.00000  Uiso   1.00
H259   H     0.29902   0.00164   0.85473   0.00000  Uiso   1.00
H260   H     0.10904   0.24712   0.79692   0.00000  Uiso   1.00
H261   H     0.19767   0.09625   0.53591   0.00000  Uiso   1.00
H262   H     0.25173   0.13024   0.43812   0.00000  Uiso   1.00
H263   H     0.21278   0.01811   0.58997   0.00000  Uiso   1.00
H264   H     0.12270   0.13453   0.56256   0.00000  Uiso   1.00
H265   H     0.32082   0.17713   0.35666   0.00000  Uiso   1.00
H266   H     0.23868   0.94071   0.67687   0.00000  Uiso   1.00
H267   H     0.04872   0.18620   0.61906   0.00000  Uiso   1.00
O268   O     0.38783   0.23123   0.38501   0.00000  Uiso   1.00
O269   O     0.28006   0.92105   0.80512   0.00000  Uiso   1.00
O270   O     0.03083   0.24313   0.72927   0.00000  Uiso   1.00
N271   N     0.35953   0.21906   0.50608   0.00000  Uiso   1.00
N272   N     0.28274   0.99802   0.80545   0.00000  Uiso   1.00
N273   N     0.10513   0.22752   0.75142   0.00000  Uiso   1.00
N274   N     0.32707   0.18628   0.41038   0.00000  Uiso   1.00
N275   N     0.25028   0.96524   0.70974   0.00000  Uiso   1.00
N276   N     0.07267   0.19474   0.65571   0.00000  Uiso   1.00
C277   C     0.24801   0.34889   0.19605   0.00000  Uiso   1.00
C278   C     0.22631   0.33817   0.12030   0.00000  Uiso   1.00
C279   C     0.18998   0.31090   0.10993   0.00000  Uiso   1.00
C280   C     0.17509   0.30530   0.03617   0.00000  Uiso   1.00
C281   C     0.13823   0.28548   0.92787   0.00000  Uiso   1.00
C282   C     0.24746   0.39909   0.20281   0.00000  Uiso   1.00
C283   C     0.22893   0.42304   0.26181   0.00000  Uiso   1.00
C284   C     0.23186   0.46873   0.25750   0.00000  Uiso   1.00
C285   C     0.22787   0.54349   0.27731   0.00000  Uiso   1.00
C286   C     0.29641   0.33583   0.18791   0.00000  Uiso   1.00
C287   C     0.31903   0.30661   0.23439   0.00000  Uiso   1.00
C288   C     0.36318   0.29904   0.21755   0.00000  Uiso   1.00
C289   C     0.43518   0.27560   0.21423   0.00000  Uiso   1.00
C290   C     0.28619   0.38744   0.08350   0.00000  Uiso   1.00
C291   C     0.24705   0.35911   0.05918   0.00000  Uiso   1.00
C292   C     0.23222   0.35355   0.98541   0.00000  Uiso   1.00
C293   C     0.19587   0.32628   0.97493   0.00000  Uiso   1.00
C294   C     0.26820   0.42003   0.14168   0.00000  Uiso   1.00
C295   C     0.27116   0.46569   0.13729   0.00000  Uiso   1.00
C296   C     0.25263   0.48971   0.19626   0.00000  Uiso   1.00
C297   C     0.31715   0.35677   0.12678   0.00000  Uiso   1.00
C298   C     0.36127   0.34926   0.10987   0.00000  Uiso   1.00
C299   C     0.38395   0.32002   0.15631   0.00000  Uiso   1.00
H300   H     0.23186   0.33259   0.24364   0.00000  Uiso   1.00
H301   H     0.17394   0.29470   0.15726   0.00000  Uiso   1.00
H302   H     0.21288   0.40682   0.30911   0.00000  Uiso   1.00
H303   H     0.30297   0.29041   0.28169   0.00000  Uiso   1.00
H304   H     0.11885   0.26194   0.03452   0.00000  Uiso   1.00
H305   H     0.20098   0.49836   0.35473   0.00000  Uiso   1.00
H306   H     0.39096   0.25288   0.29692   0.00000  Uiso   1.00
H307   H     0.30233   0.40375   0.03591   0.00000  Uiso   1.00
H308   H     0.24827   0.36976   0.93812   0.00000  Uiso   1.00
H309   H     0.28722   0.48189   0.08997   0.00000  Uiso   1.00
H310   H     0.37730   0.36547   0.06256   0.00000  Uiso   1.00
H311   H     0.17918   0.32287   0.85666   0.00000  Uiso   1.00
H312   H     0.26132   0.55929   0.17687   0.00000  Uiso   1.00
H313   H     0.45128   0.31380   0.11906   0.00000  Uiso   1.00
O314   O     0.11217   0.26877   0.88501   0.00000  Uiso   1.00
O315   O     0.21994   0.57895   0.30512   0.00000  Uiso   1.00
O316   O     0.46917   0.25687   0.22927   0.00000  Uiso   1.00
N317   N     0.14047   0.28094   0.00608   0.00000  Uiso   1.00
N318   N     0.21726   0.50198   0.30545   0.00000  Uiso   1.00
N319   N     0.39487   0.27248   0.25142   0.00000  Uiso   1.00
N320   N     0.17293   0.31372   0.91038   0.00000  Uiso   1.00
N321   N     0.24972   0.53476   0.20974   0.00000  Uiso   1.00
N322   N     0.42733   0.30526   0.15571   0.00000  Uiso   1.00
C323   C     0.74801   0.84889   0.69605   0.00000  Uiso   1.00
C324   C     0.72631   0.83817   0.62030   0.00000  Uiso   1.00
C325   C     0.68998   0.81090   0.60993   0.00000  Uiso   1.00
C326   C     0.67509   0.80530   0.53617   0.00000  Uiso   1.00
C327   C     0.63823   0.78548   0.42787   0.00000  Uiso   1.00
C328   C     0.74746   0.89909   0.70281   0.00000  Uiso   1.00
C329   C     0.72893   0.92304   0.76181   0.00000  Uiso   1.00
C330   C     0.73186   0.96873   0.75750   0.00000  Uiso   1.00
C331   C     0.72787   0.04349   0.77731   0.00000  Uiso   1.00
C332   C     0.79641   0.83583   0.68791   0.00000  Uiso   1.00
C333   C     0.81903   0.80661   0.73439   0.00000  Uiso   1.00
C334   C     0.86318   0.79904   0.71755   0.00000  Uiso   1.00
C335   C     0.93518   0.77560   0.71423   0.00000  Uiso   1.00
C336   C     0.78619   0.88744   0.58350   0.00000  Uiso   1.00
C337   C     0.74705   0.85911   0.55918   0.00000  Uiso   1.00
C338   C     0.73222   0.85355   0.48541   0.00000  Uiso   1.00
C339   C     0.69587   0.82628   0.47493   0.00000  Uiso   1.00
C340   C     0.76820   0.92003   0.64168   0.00000  Uiso   1.00
C341   C     0.77116   0.96569   0.63729   0.00000  Uiso   1.00
C342   C     0.75263   0.98971   0.69626   0.00000  Uiso   1.00
C343   C     0.81715   0.85677   0.62678   0.00000  Uiso   1.00
C344   C     0.86127   0.84926   0.60987   0.00000  Uiso   1.00
C345   C     0.88395   0.82002   0.65631   0.00000  Uiso   1.00
H346   H     0.73186   0.83259   0.74364   0.00000  Uiso   1.00
H347   H     0.67394   0.79470   0.65726   0.00000  Uiso   1.00
H348   H     0.71288   0.90682   0.80911   0.00000  Uiso   1.00
H349   H     0.80297   0.79041   0.78169   0.00000  Uiso   1.00
H350   H     0.61885   0.76194   0.53452   0.00000  Uiso   1.00
H351   H     0.70098   0.99836   0.85473   0.00000  Uiso   1.00
H352   H     0.89096   0.75288   0.79692   0.00000  Uiso   1.00
H353   H     0.80233   0.90375   0.53591   0.00000  Uiso   1.00
H354   H     0.74827   0.86976   0.43812   0.00000  Uiso   1.00
H355   H     0.78722   0.98189   0.58997   0.00000  Uiso   1.00
H356   H     0.87730   0.86547   0.56256   0.00000  Uiso   1.00
H357   H     0.67918   0.82287   0.35666   0.00000  Uiso   1.00
H358   H     0.76132   0.05929   0.67687   0.00000  Uiso   1.00
H359   H     0.95128   0.81380   0.61906   0.00000  Uiso   1.00
O360   O     0.61217   0.76877   0.38501   0.00000  Uiso   1.00
O361   O     0.71994   0.07895   0.80512   0.00000  Uiso   1.00
O362   O     0.96917   0.75687   0.72927   0.00000  Uiso   1.00
N363   N     0.64047   0.78094   0.50608   0.00000  Uiso   1.00
N364   N     0.71726   0.00198   0.80545   0.00000  Uiso   1.00
N365   N     0.89487   0.77248   0.75142   0.00000  Uiso   1.00
N366   N     0.67293   0.81372   0.41038   0.00000  Uiso   1.00
N367   N     0.74972   0.03476   0.70974   0.00000  Uiso   1.00
N368   N     0.92733   0.80526   0.65571   0.00000  Uiso   1.00
C369   C     0.15111   0.75199   0.94605   0.00000  Uiso   1.00
C370   C     0.16183   0.77369   0.87030   0.00000  Uiso   1.00
C371   C     0.18910   0.81002   0.85993   0.00000  Uiso   1.00
C372   C     0.19470   0.82491   0.78617   0.00000  Uiso   1.00
C373   C     0.21452   0.86177   0.67787   0.00000  Uiso   1.00
C374   C     0.10091   0.75254   0.95281   0.00000  Uiso   1.00
C375   C     0.07696   0.77107   0.01181   0.00000  Uiso   1.00
C376   C     0.03127   0.76814   0.00750   0.00000  Uiso   1.00
C377   C     0.95651   0.77213   0.02731   0.00000  Uiso   1.00
C378   C     0.16417   0.70359   0.93791   0.00000  Uiso   1.00
C379   C     0.19339   0.68097   0.98439   0.00000  Uiso   1.00
C380   C     0.20096   0.63682   0.96755   0.00000  Uiso   1.00
C381   C     0.22440   0.56482   0.96423   0.00000  Uiso   1.00
C382   C     0.11256   0.71381   0.83350   0.00000  Uiso   1.00
C383   C     0.14089   0.75295   0.80918   0.00000  Uiso   1.00
C384   C     0.14645   0.76778   0.73541   0.00000  Uiso   1.00
C385   C     0.17372   0.80413   0.72493   0.00000  Uiso   1.00
C386   C     0.07997   0.73180   0.89168   0.00000  Uiso   1.00
C387   C     0.03431   0.72884   0.88729   0.00000  Uiso   1.00
C388   C     0.01029   0.74737   0.94626   0.00000  Uiso   1.00
C389   C     0.14323   0.68285   0.87678   0.00000  Uiso   1.00
C390   C     0.15074   0.63873   0.85987   0.00000  Uiso   1.00
C391   C     0.17998   0.61605   0.90631   0.00000  Uiso   1.00
H392   H     0.16741   0.76814   0.99364   0.00000  Uiso   1.00
H393   H     0.20530   0.82606   0.90726   0.00000  Uiso   1.00
H394   H     0.09318   0.78712   0.05911   0.00000  Uiso   1.00
H395   H     0.20959   0.69703   0.03169   0.00000  Uiso   1.00
H396   H     0.23806   0.88115   0.78452   0.00000  Uiso   1.00
H397   H     0.00164   0.79902   0.10473   0.00000  Uiso   1.00
H398   H     0.24712   0.60904   0.04692   0.00000  Uiso   1.00
H399   H     0.09625   0.69767   0.78591   0.00000  Uiso   1.00
H400   H     0.13024   0.75173   0.68812   0.00000  Uiso   1.00
H401   H     0.01811   0.71278   0.83997   0.00000  Uiso   1.00
H402   H     0.13453   0.62270   0.81256   0.00000  Uiso   1.00
H403   H     0.17713   0.82082   0.60666   0.00000  Uiso   1.00
H404   H     0.94071   0.73868   0.92687   0.00000  Uiso   1.00
H405   H     0.18620   0.54872   0.86906   0.00000  Uiso   1.00
O406   O     0.23123   0.88783   0.63501   0.00000  Uiso   1.00
O407   O     0.92105   0.78006   0.05512   0.00000  Uiso   1.00
O408   O     0.24313   0.53083   0.97927   0.00000  Uiso   1.00
N409   N     0.21906   0.85953   0.75608   0.00000  Uiso   1.00
N410   N     0.99802   0.78274   0.05545   0.00000  Uiso   1.00
N411   N     0.22752   0.60513   0.00142   0.00000  Uiso   1.00
N412   N     0.18628   0.82707   0.66038   0.00000  Uiso   1.00
N413   N     0.96524   0.75028   0.95974   0.00000  Uiso   1.00
N414   N     0.19474   0.57267   0.90571   0.00000  Uiso   1.00
C415   C     0.65111   0.25199   0.44605   0.00000  Uiso   1.00
C416   C     0.66183   0.27369   0.37030   0.00000  Uiso   1.00
C417   C     0.68910   0.31002   0.35993   0.00000  Uiso   1.00
C418   C     0.69470   0.32491   0.28617   0.00000  Uiso   1.00
C419   C     0.71452   0.36177   0.17787   0.00000  Uiso   1.00
C420   C     0.60091   0.25254   0.45281   0.00000  Uiso   1.00
C421   C     0.57696   0.27107   0.51181   0.00000  Uiso   1.00
C422   C     0.53127   0.26814   0.50750   0.00000  Uiso   1.00
C423   C     0.45651   0.27213   0.52731   0.00000  Uiso   1.00
C424   C     0.66417   0.20359   0.43791   0.00000  Uiso   1.00
C425   C     0.69339   0.18097   0.48439   0.00000  Uiso   1.00
C426   C     0.70096   0.13682   0.46755   0.00000  Uiso   1.00
C427   C     0.72440   0.06482   0.46423   0.00000  Uiso   1.00
C428   C     0.61256   0.21381   0.33350   0.00000  Uiso   1.00
C429   C     0.64089   0.25295   0.30918   0.00000  Uiso   1.00
C430   C     0.64645   0.26778   0.23541   0.00000  Uiso   1.00
C431   C     0.67372   0.30413   0.22493   0.00000  Uiso   1.00
C432   C     0.57997   0.23180   0.39168   0.00000  Uiso   1.00
C433   C     0.53431   0.22884   0.38729   0.00000  Uiso   1.00
C434   C     0.51029   0.24737   0.44626   0.00000  Uiso   1.00
C435   C     0.64323   0.18285   0.37678   0.00000  Uiso   1.00
C436   C     0.65074   0.13873   0.35987   0.00000  Uiso   1.00
C437   C     0.67998   0.11605   0.40631   0.00000  Uiso   1.00
H438   H     0.66741   0.26814   0.49364   0.00000  Uiso   1.00
H439   H     0.70530   0.32606   0.40726   0.00000  Uiso   1.00
H440   H     0.59318   0.28712   0.55911   0.00000  Uiso   1.00
H441   H     0.70959   0.19703   0.53169   0.00000  Uiso   1.00
H442   H     0.73806   0.38115   0.28452   0.00000  Uiso   1.00
H443   H     0.50164   0.29902   0.60473   0.00000  Uiso   1.00
H444   H     0.74712   0.10904   0.54692   0.00000  Uiso   1.00
H445   H     0.59625   0.19767   0.28591   0.00000  Uiso   1.00
H446   H     0.63024   0.25173   0.18812   0.00000  Uiso   1.00
H447   H     0.51811   0.21278   0.33997   0.00000  Uiso   1.00
H448   H     0.63453   0.12270   0.31256   0.00000  Uiso   1.00
H449   H     0.67713   0.32082   0.10666   0.00000  Uiso   1.00
H450   H     0.44071   0.23868   0.42687   0.00000  Uiso   1.00
H451   H     0.68620   0.04872   0.36906   0.00000  Uiso   1.00
O452   O     0.73123   0.38783   0.13501   0.00000  Uiso   1.00
O453   O     0.42105   0.28006   0.55512   0.00000  Uiso   1.00
O454   O     0.74313   0.03083   0.47927   0.00000  Uiso   1.00
N455   N     0.71906   0.35953   0.25608   0.00000  Uiso   1.00
N456   N     0.49802   0.28274   0.55545   0.00000  Uiso   1.00
N457   N     0.72752   0.10513   0.50142   0.00000  Uiso   1.00
N458   N     0.68628   0.32707   0.16038   0.00000  Uiso   1.00
N459   N     0.46524   0.25028   0.45974   0.00000  Uiso   1.00
N460   N     0.69474   0.07267   0.40571   0.00000  Uiso   1.00
C461   C     0.84889   0.24801   0.94605   0.00000  Uiso   1.00
C462   C     0.83817   0.22631   0.87030   0.00000  Uiso   1.00
C463   C     0.81090   0.18998   0.85993   0.00000  Uiso   1.00
C464   C     0.80530   0.17509   0.78617   0.00000  Uiso   1.00
C465   C     0.78548   0.13823   0.67787   0.00000  Uiso   1.00
C466   C     0.89909   0.24746   0.95281   0.00000  Uiso   1.00
C467   C     0.92304   0.22893   0.01181   0.00000  Uiso   1.00
C468   C     0.96873   0.23186   0.00750   0.00000  Uiso   1.00
C469   C     0.04349   0.22787   0.02731   0.00000  Uiso   1.00
C470   C     0.83583   0.29641   0.93791   0.00000  Uiso   1.00
C471   C     0.80661   0.31903   0.98439   0.00000  Uiso   1.00
C472   C     0.79904   0.36318   0.96755   0.00000  Uiso   1.00
C473   C     0.77560   0.43518   0.96423   0.00000  Uiso   1.00
C474   C     0.88744   0.28619   0.83350   0.00000  Uiso   1.00
C475   C     0.85911   0.24705   0.80918   0.00000  Uiso   1.00
C476   C     0.85355   0.23222   0.73541   0.00000  Uiso   1.00
C477   C     0.82628   0.19587   0.72493   0.00000  Uiso   1.00
C478   C     0.92003   0.26820   0.89168   0.00000  Uiso   1.00
C479   C     0.96569   0.27116   0.88729   0.00000  Uiso   1.00
C480   C     0.98971   0.25263   0.94626   0.00000  Uiso   1.00
C481   C     0.85677   0.31715   0.87678   0.00000  Uiso   1.00
C482   C     0.84926   0.36127   0.85987   0.00000  Uiso   1.00
C483   C     0.82002   0.38395   0.90631   0.00000  Uiso   1.00
H484   H     0.83259   0.23186   0.99364   0.00000  Uiso   1.00
H485   H     0.79470   0.17394   0.90726   0.00000  Uiso   1.00
H486   H     0.90682   0.21288   0.05911   0.00000  Uiso   1.00
H487   H     0.79041   0.30297   0.03169   0.00000  Uiso   1.00
H488   H     0.76194   0.11885   0.78452   0.00000  Uiso   1.00
H489   H     0.99836   0.20098   0.10473   0.00000  Uiso   1.00
H490   H     0.75288   0.39096   0.04692   0.00000  Uiso   1.00
H491   H     0.90375   0.30233   0.78591   0.00000  Uiso   1.00
H492   H     0.86976   0.24827   0.68812   0.00000  Uiso   1.00
H493   H     0.98189   0.28722   0.83997   0.00000  Uiso   1.00
H494   H     0.86547   0.37730   0.81256   0.00000  Uiso   1.00
H495   H     0.82287   0.17918   0.60666   0.00000  Uiso   1.00
H496   H     0.05929   0.26132   0.92687   0.00000  Uiso   1.00
H497   H     0.81380   0.45128   0.86906   0.00000  Uiso   1.00
O498   O     0.76877   0.11217   0.63501   0.00000  Uiso   1.00
O499   O     0.07895   0.21994   0.05512   0.00000  Uiso   1.00
O500   O     0.75687   0.46917   0.97927   0.00000  Uiso   1.00
N501   N     0.78094   0.14047   0.75608   0.00000  Uiso   1.00
N502   N     0.00198   0.21726   0.05545   0.00000  Uiso   1.00
N503   N     0.77248   0.39487   0.00142   0.00000  Uiso   1.00
N504   N     0.81372   0.17293   0.66038   0.00000  Uiso   1.00
N505   N     0.03476   0.24972   0.95974   0.00000  Uiso   1.00
N506   N     0.80526   0.42733   0.90571   0.00000  Uiso   1.00
C507   C     0.34889   0.74801   0.44605   0.00000  Uiso   1.00
C508   C     0.33817   0.72631   0.37030   0.00000  Uiso   1.00
C509   C     0.31090   0.68998   0.35993   0.00000  Uiso   1.00
C510   C     0.30530   0.67509   0.28617   0.00000  Uiso   1.00
C511   C     0.28548   0.63823   0.17787   0.00000  Uiso   1.00
C512   C     0.39909   0.74746   0.45281   0.00000  Uiso   1.00
C513   C     0.42304   0.72893   0.51181   0.00000  Uiso   1.00
C514   C     0.46873   0.73186   0.50750   0.00000  Uiso   1.00
C515   C     0.54349   0.72787   0.52731   0.00000  Uiso   1.00
C516   C     0.33583   0.79641   0.43791   0.00000  Uiso   1.00
C517   C     0.30661   0.81903   0.48439   0.00000  Uiso   1.00
C518   C     0.29904   0.86318   0.46755   0.00000  Uiso   1.00
C519   C     0.27560   0.93518   0.46423   0.00000  Uiso   1.00
C520   C     0.38744   0.78619   0.33350   0.00000  Uiso   1.00
C521   C     0.35911   0.74705   0.30918   0.00000  Uiso   1.00
C522   C     0.35355   0.73222   0.23541   0.00000  Uiso   1.00
C523   C     0.32628   0.69587   0.22493   0.00000  Uiso   1.00
C524   C     0.42003   0.76820   0.39168   0.00000  Uiso   1.00
C525   C     0.46569   0.77116   0.38729   0.00000  Uiso   1.00
C526   C     0.48971   0.75263   0.44626   0.00000  Uiso   1.00
C527   C     0.35677   0.81715   0.37678   0.00000  Uiso   1.00
C528   C     0.34926   0.86127   0.35987   0.00000  Uiso   1.00
C529   C     0.32002   0.88395   0.40631   0.00000  Uiso   1.00
H530   H     0.33259   0.73186   0.49364   0.00000  Uiso   1.00
H531   H     0.29470   0.67394   0.40726   0.00000  Uiso   1.00
H532   H     0.40682   0.71288   0.55911   0.00000  Uiso   1.00
H533   H     0.29041   0.80297   0.53169   0.00000  Uiso   1.00
H534   H     0.26194   0.61885   0.28452   0.00000  Uiso   1.00
H535   H     0.49836   0.70098   0.60473   0.00000  Uiso   1.00
H536   H     0.25288   0.89096   0.54692   0.00000  Uiso   1.00
H537   H     0.40375   0.80233   0.28591   0.00000  Uiso   1.00
H538   H     0.36976   0.74827   0.18812   0.00000  Uiso   1.00
H539   H     0.48189   0.78722   0.33997   0.00000  Uiso   1.00
H540   H     0.36547   0.87730   0.31256   0.00000  Uiso   1.00
H541   H     0.32287   0.67918   0.10666   0.00000  Uiso   1.00
H542   H     0.55929   0.76132   0.42687   0.00000  Uiso   1.00
H543   H     0.31380   0.95128   0.36906   0.00000  Uiso   1.00
O544   O     0.26877   0.61217   0.13501   0.00000  Uiso   1.00
O545   O     0.57895   0.71994   0.55512   0.00000  Uiso   1.00
O546   O     0.25687   0.96917   0.47927   0.00000  Uiso   1.00
N547   N     0.28094   0.64047   0.25608   0.00000  Uiso   1.00
N548   N     0.50198   0.71726   0.55545   0.00000  Uiso   1.00
N549   N     0.27248   0.89487   0.50142   0.00000  Uiso   1.00
N550   N     0.31372   0.67293   0.16038   0.00000  Uiso   1.00
N551   N     0.53476   0.74972   0.45974   0.00000  Uiso   1.00
N552   N     0.30526   0.92733   0.40571   0.00000  Uiso   1.00
C553   C     0.74801   0.65111   0.55395   0.00000  Uiso   1.00
C554   C     0.72631   0.66183   0.62970   0.00000  Uiso   1.00
C555   C     0.68998   0.68910   0.64007   0.00000  Uiso   1.00
C556   C     0.67509   0.69470   0.71383   0.00000  Uiso   1.00
C557   C     0.63823   0.71452   0.82213   0.00000  Uiso   1.00
C558   C     0.74746   0.60091   0.54719   0.00000  Uiso   1.00
C559   C     0.72893   0.57696   0.48819   0.00000  Uiso   1.00
C560   C     0.73186   0.53127   0.49250   0.00000  Uiso   1.00
C561   C     0.72787   0.45651   0.47269   0.00000  Uiso   1.00
C562   C     0.79641   0.66417   0.56209   0.00000  Uiso   1.00
C563   C     0.81903   0.69339   0.51561   0.00000  Uiso   1.00
C564   C     0.86318   0.70096   0.53245   0.00000  Uiso   1.00
C565   C     0.93518   0.72440   0.53577   0.00000  Uiso   1.00
C566   C     0.78619   0.61256   0.66650   0.00000  Uiso   1.00
C567   C     0.74705   0.64089   0.69082   0.00000  Uiso   1.00
C568   C     0.73222   0.64645   0.76459   0.00000  Uiso   1.00
C569   C     0.69587   0.67372   0.77507   0.00000  Uiso   1.00
C570   C     0.76820   0.57997   0.60832   0.00000  Uiso   1.00
C571   C     0.77116   0.53431   0.61271   0.00000  Uiso   1.00
C572   C     0.75263   0.51029   0.55374   0.00000  Uiso   1.00
C573   C     0.81715   0.64323   0.62322   0.00000  Uiso   1.00
C574   C     0.86127   0.65074   0.64013   0.00000  Uiso   1.00
C575   C     0.88395   0.67998   0.59369   0.00000  Uiso   1.00
H576   H     0.73186   0.66741   0.50636   0.00000  Uiso   1.00
H577   H     0.67394   0.70530   0.59274   0.00000  Uiso   1.00
H578   H     0.71288   0.59318   0.44089   0.00000  Uiso   1.00
H579   H     0.80297   0.70959   0.46831   0.00000  Uiso   1.00
H580   H     0.61885   0.73806   0.71548   0.00000  Uiso   1.00
H581   H     0.70098   0.50164   0.39527   0.00000  Uiso   1.00
H582   H     0.89096   0.74712   0.45308   0.00000  Uiso   1.00
H583   H     0.80233   0.59625   0.71409   0.00000  Uiso   1.00
H584   H     0.74827   0.63024   0.81188   0.00000  Uiso   1.00
H585   H     0.78722   0.51811   0.66003   0.00000  Uiso   1.00
H586   H     0.87730   0.63453   0.68744   0.00000  Uiso   1.00
H587   H     0.67918   0.67713   0.89334   0.00000  Uiso   1.00
H588   H     0.76132   0.44071   0.57313   0.00000  Uiso   1.00
H589   H     0.95128   0.68620   0.63094   0.00000  Uiso   1.00
O590   O     0.61217   0.73123   0.86499   0.00000  Uiso   1.00
O591   O     0.71994   0.42105   0.44488   0.00000  Uiso   1.00
O592   O     0.96917   0.74313   0.52073   0.00000  Uiso   1.00
N593   N     0.64047   0.71906   0.74392   0.00000  Uiso   1.00
N594   N     0.71726   0.49802   0.44455   0.00000  Uiso   1.00
N595   N     0.89487   0.72752   0.49858   0.00000  Uiso   1.00
N596   N     0.67293   0.68628   0.83962   0.00000  Uiso   1.00
N597   N     0.74972   0.46524   0.54026   0.00000  Uiso   1.00
N598   N     0.92733   0.69474   0.59429   0.00000  Uiso   1.00
C599   C     0.24801   0.15111   0.05395   0.00000  Uiso   1.00
C600   C     0.22631   0.16183   0.12970   0.00000  Uiso   1.00
C601   C     0.18998   0.18910   0.14007   0.00000  Uiso   1.00
C602   C     0.17509   0.19470   0.21383   0.00000  Uiso   1.00
C603   C     0.13823   0.21452   0.32213   0.00000  Uiso   1.00
C604   C     0.24746   0.10091   0.04719   0.00000  Uiso   1.00
C605   C     0.22893   0.07696   0.98819   0.00000  Uiso   1.00
C606   C     0.23186   0.03127   0.99250   0.00000  Uiso   1.00
C607   C     0.22787   0.95651   0.97269   0.00000  Uiso   1.00
C608   C     0.29641   0.16417   0.06209   0.00000  Uiso   1.00
C609   C     0.31903   0.19339   0.01561   0.00000  Uiso   1.00
C610   C     0.36318   0.20096   0.03245   0.00000  Uiso   1.00
C611   C     0.43518   0.22440   0.03577   0.00000  Uiso   1.00
C612   C     0.28619   0.11256   0.16650   0.00000  Uiso   1.00
C613   C     0.24705   0.14089   0.19082   0.00000  Uiso   1.00
C614   C     0.23222   0.14645   0.26459   0.00000  Uiso   1.00
C615   C     0.19587   0.17372   0.27507   0.00000  Uiso   1.00
C616   C     0.26820   0.07997   0.10832   0.00000  Uiso   1.00
C617   C     0.27116   0.03431   0.11271   0.00000  Uiso   1.00
C618   C     0.25263   0.01029   0.05374   0.00000  Uiso   1.00
C619   C     0.31715   0.14323   0.12322   0.00000  Uiso   1.00
C620   C     0.36127   0.15074   0.14013   0.00000  Uiso   1.00
C621   C     0.38395   0.17998   0.09369   0.00000  Uiso   1.00
H622   H     0.23186   0.16741   0.00636   0.00000  Uiso   1.00
H623   H     0.17394   0.20530   0.09274   0.00000  Uiso   1.00
H624   H     0.21288   0.09318   0.94089   0.00000  Uiso   1.00
H625   H     0.30297   0.20959   0.96831   0.00000  Uiso   1.00
H626   H     0.11885   0.23806   0.21548   0.00000  Uiso   1.00
H627   H     0.20098   0.00164   0.89527   0.00000  Uiso   1.00
H628   H     0.39096   0.24712   0.95308   0.00000  Uiso   1.00
H629   H     0.30233   0.09625   0.21409   0.00000  Uiso   1.00
H630   H     0.24827   0.13024   0.31188   0.00000  Uiso   1.00
H631   H     0.28722   0.01811   0.16003   0.00000  Uiso   1.00
H632   H     0.37730   0.13453   0.18744   0.00000  Uiso   1.00
H633   H     0.17918   0.17713   0.39334   0.00000  Uiso   1.00
H634   H     0.26132   0.94071   0.07313   0.00000  Uiso   1.00
H635   H     0.45128   0.18620   0.13094   0.00000  Uiso   1.00
O636   O     0.11217   0.23123   0.36499   0.00000  Uiso   1.00
O637   O     0.21994   0.92105   0.94488   0.00000  Uiso   1.00
O638   O     0.46917   0.24313   0.02073   0.00000  Uiso   1.00
N639   N     0.14047   0.21906   0.24392   0.00000  Uiso   1.00
N640   N     0.21726   0.99802   0.94455   0.00000  Uiso   1.00
N641   N     0.39487   0.22752   0.99858   0.00000  Uiso   1.00
N642   N     0.17293   0.18628   0.33962   0.00000  Uiso   1.00
N643   N     0.24972   0.96524   0.04026   0.00000  Uiso   1.00
N644   N     0.42733   0.19474   0.09429   0.00000  Uiso   1.00
C645   C     0.25199   0.34889   0.55395   0.00000  Uiso   1.00
C646   C     0.27369   0.33817   0.62970   0.00000  Uiso   1.00
C647   C     0.31002   0.31090   0.64007   0.00000  Uiso   1.00
C648   C     0.32491   0.30530   0.71383   0.00000  Uiso   1.00
C649   C     0.36177   0.28548   0.82213   0.00000  Uiso   1.00
C650   C     0.25254   0.39909   0.54719   0.00000  Uiso   1.00
C651   C     0.27107   0.42304   0.48819   0.00000  Uiso   1.00
C652   C     0.26814   0.46873   0.49250   0.00000  Uiso   1.00
C653   C     0.27213   0.54349   0.47269   0.00000  Uiso   1.00
C654   C     0.20359   0.33583   0.56209   0.00000  Uiso   1.00
C655   C     0.18097   0.30661   0.51561   0.00000  Uiso   1.00
C656   C     0.13682   0.29904   0.53245   0.00000  Uiso   1.00
C657   C     0.06482   0.27560   0.53577   0.00000  Uiso   1.00
C658   C     0.21381   0.38744   0.66650   0.00000  Uiso   1.00
C659   C     0.25295   0.35911   0.69082   0.00000  Uiso   1.00
C660   C     0.26778   0.35355   0.76459   0.00000  Uiso   1.00
C661   C     0.30413   0.32628   0.77507   0.00000  Uiso   1.00
C662   C     0.23180   0.42003   0.60832   0.00000  Uiso   1.00
C663   C     0.22884   0.46569   0.61271   0.00000  Uiso   1.00
C664   C     0.24737   0.48971   0.55374   0.00000  Uiso   1.00
C665   C     0.18285   0.35677   0.62322   0.00000  Uiso   1.00
C666   C     0.13873   0.34926   0.64013   0.00000  Uiso   1.00
C667   C     0.11605   0.32002   0.59369   0.00000  Uiso   1.00
H668   H     0.26814   0.33259   0.50636   0.00000  Uiso   1.00
H669   H     0.32606   0.29470   0.59274   0.00000  Uiso   1.00
H670   H     0.28712   0.40682   0.44089   0.00000  Uiso   1.00
H671   H     0.19703   0.29041   0.46831   0.00000  Uiso   1.00
H672   H     0.38115   0.26194   0.71548   0.00000  Uiso   1.00
H673   H     0.29902   0.49836   0.39527   0.00000  Uiso   1.00
H674   H     0.10904   0.25288   0.45308   0.00000  Uiso   1.00
H675   H     0.19767   0.40375   0.71409   0.00000  Uiso   1.00
H676   H     0.25173   0.36976   0.81188   0.00000  Uiso   1.00
H677   H     0.21278   0.48189   0.66003   0.00000  Uiso   1.00
H678   H     0.12270   0.36547   0.68744   0.00000  Uiso   1.00
H679   H     0.32082   0.32287   0.89334   0.00000  Uiso   1.00
H680   H     0.23868   0.55929   0.57313   0.00000  Uiso   1.00
H681   H     0.04872   0.31380   0.63094   0.00000  Uiso   1.00
O682   O     0.38783   0.26877   0.86499   0.00000  Uiso   1.00
O683   O     0.28006   0.57895   0.44488   0.00000  Uiso   1.00
O684   O     0.03083   0.25687   0.52073   0.00000  Uiso   1.00
N685   N     0.35953   0.28094   0.74392   0.00000  Uiso   1.00
N686   N     0.28274   0.50198   0.44455   0.00000  Uiso   1.00
N687   N     0.10513   0.27248   0.49858   0.00000  Uiso   1.00
N688   N     0.32707   0.31372   0.83962   0.00000  Uiso   1.00
N689   N     0.25028   0.53476   0.54026   0.00000  Uiso   1.00
N690   N     0.07267   0.30526   0.59429   0.00000  Uiso   1.00
C691   C     0.75199   0.84889   0.05395   0.00000  Uiso   1.00
C692   C     0.77369   0.83817   0.12970   0.00000  Uiso   1.00
C693   C     0.81002   0.81090   0.14007   0.00000  Uiso   1.00
C694   C     0.82491   0.80530   0.21383   0.00000  Uiso   1.00
C695   C     0.86177   0.78548   0.32213   0.00000  Uiso   1.00
C696   C     0.75254   0.89909   0.04719   0.00000  Uiso   1.00
C697   C     0.77107   0.92304   0.98819   0.00000  Uiso   1.00
C698   C     0.76814   0.96873   0.99250   0.00000  Uiso   1.00
C699   C     0.77213   0.04349   0.97269   0.00000  Uiso   1.00
C700   C     0.70359   0.83583   0.06209   0.00000  Uiso   1.00
C701   C     0.68097   0.80661   0.01561   0.00000  Uiso   1.00
C702   C     0.63682   0.79904   0.03245   0.00000  Uiso   1.00
C703   C     0.56482   0.77560   0.03577   0.00000  Uiso   1.00
C704   C     0.71381   0.88744   0.16650   0.00000  Uiso   1.00
C705   C     0.75295   0.85911   0.19082   0.00000  Uiso   1.00
C706   C     0.76778   0.85355   0.26459   0.00000  Uiso   1.00
C707   C     0.80413   0.82628   0.27507   0.00000  Uiso   1.00
C708   C     0.73180   0.92003   0.10832   0.00000  Uiso   1.00
C709   C     0.72884   0.96569   0.11271   0.00000  Uiso   1.00
C710   C     0.74737   0.98971   0.05374   0.00000  Uiso   1.00
C711   C     0.68285   0.85677   0.12322   0.00000  Uiso   1.00
C712   C     0.63873   0.84926   0.14013   0.00000  Uiso   1.00
C713   C     0.61605   0.82002   0.09369   0.00000  Uiso   1.00
H714   H     0.76814   0.83259   0.00636   0.00000  Uiso   1.00
H715   H     0.82606   0.79470   0.09274   0.00000  Uiso   1.00
H716   H     0.78712   0.90682   0.94089   0.00000  Uiso   1.00
H717   H     0.69703   0.79041   0.96831   0.00000  Uiso   1.00
H718   H     0.88115   0.76194   0.21548   0.00000  Uiso   1.00
H719   H     0.79902   0.99836   0.89527   0.00000  Uiso   1.00
H720   H     0.60904   0.75288   0.95308   0.00000  Uiso   1.00
H721   H     0.69767   0.90375   0.21409   0.00000  Uiso   1.00
H722   H     0.75173   0.86976   0.31188   0.00000  Uiso   1.00
H723   H     0.71278   0.98189   0.16003   0.00000  Uiso   1.00
H724   H     0.62270   0.86547   0.18744   0.00000  Uiso   1.00
H725   H     0.82082   0.82287   0.39334   0.00000  Uiso   1.00
H726   H     0.73868   0.05929   0.07313   0.00000  Uiso   1.00
H727   H     0.54872   0.81380   0.13094   0.00000  Uiso   1.00
O728   O     0.88783   0.76877   0.36499   0.00000  Uiso   1.00
O729   O     0.78006   0.07895   0.94488   0.00000  Uiso   1.00
O730   O     0.53083   0.75687   0.02073   0.00000  Uiso   1.00
N731   N     0.85953   0.78094   0.24392   0.00000  Uiso   1.00
N732   N     0.78274   0.00198   0.94455   0.00000  Uiso   1.00
N733   N     0.60513   0.77248   0.99858   0.00000  Uiso   1.00
N734   N     0.82707   0.81372   0.33962   0.00000  Uiso   1.00
N735   N     0.75028   0.03476   0.04026   0.00000  Uiso   1.00
N736   N     0.57267   0.80526   0.09429   0.00000  Uiso   1.00
