data_job_05770
_audit_creation_date              2018-12-19
_audit_creation_method            'Materials Studio'
_symmetry_space_group_name_H-M    'P1'
_symmetry_Int_Tables_number       1
_symmetry_cell_setting            triclinic
loop_
_symmetry_equiv_pos_as_xyz
  x,y,z
_cell_length_a                    17.8559
_cell_length_b                    17.8559
_cell_length_c                    27.4367
_cell_angle_alpha                 90.0000
_cell_angle_beta                  90.0000
_cell_angle_gamma                 90.0000
loop_
_atom_site_label
_atom_site_type_symbol
_atom_site_fract_x
_atom_site_fract_y
_atom_site_fract_z
_atom_site_U_iso_or_equiv
_atom_site_adp_type
_atom_site_occupancy
C1     C     0.26729   0.01410   0.70459   0.00000  Uiso   1.00
C2     C     0.33069   0.03806   0.67077   0.00000  Uiso   1.00
C3     C     0.39473   0.07661   0.68464   0.00000  Uiso   1.00
C4     C     0.44609   0.09334   0.64824   0.00000  Uiso   1.00
C5     C     0.54639   0.13379   0.60311   0.00000  Uiso   1.00
C6     C     0.19601   0.04806   0.68341   0.00000  Uiso   1.00
C7     C     0.14680   0.09501   0.70790   0.00000  Uiso   1.00
C8     C     0.08478   0.12015   0.68213   0.00000  Uiso   1.00
C9     C     0.97596   0.17608   0.65663   0.00000  Uiso   1.00
C10    C     0.25963   0.92959   0.69839   0.00000  Uiso   1.00
C11    C     0.26390   0.87691   0.73548   0.00000  Uiso   1.00
C12    C     0.25543   0.80230   0.72233   0.00000  Uiso   1.00
C13    C     0.24539   0.67427   0.72008   0.00000  Uiso   1.00
C14    C     0.24463   0.97528   0.61529   0.00000  Uiso   1.00
C15    C     0.31838   0.01698   0.62227   0.00000  Uiso   1.00
C16    C     0.36966   0.03365   0.58584   0.00000  Uiso   1.00
C17    C     0.43376   0.07221   0.59965   0.00000  Uiso   1.00
C18    C     0.18370   0.02698   0.63490   0.00000  Uiso   1.00
C19    C     0.12173   0.05205   0.60910   0.00000  Uiso   1.00
C20    C     0.07245   0.09903   0.63354   0.00000  Uiso   1.00
C21    C     0.24733   0.90849   0.64988   0.00000  Uiso   1.00
C22    C     0.23883   0.83395   0.63667   0.00000  Uiso   1.00
C23    C     0.24309   0.78117   0.67373   0.00000  Uiso   1.00
H24    H     0.27687   0.03053   0.74235   0.00000  Uiso   1.00
H25    H     0.40423   0.09293   0.72218   0.00000  Uiso   1.00
H26    H     0.15634   0.11131   0.74544   0.00000  Uiso   1.00
H27    H     0.27343   0.89325   0.77301   0.00000  Uiso   1.00
H28    H     0.54000   0.15283   0.67842   0.00000  Uiso   1.00
H29    H     0.01729   0.19158   0.72746   0.00000  Uiso   1.00
H30    H     0.26419   0.73175   0.78561   0.00000  Uiso   1.00
H31    H     0.23504   0.95886   0.57752   0.00000  Uiso   1.00
H32    H     0.36011   0.01733   0.54831   0.00000  Uiso   1.00
H33    H     0.11222   0.03572   0.57156   0.00000  Uiso   1.00
H34    H     0.22931   0.81765   0.59913   0.00000  Uiso   1.00
H35    H     0.50419   0.09148   0.53730   0.00000  Uiso   1.00
H36    H     0.98148   0.13023   0.58634   0.00000  Uiso   1.00
H37    H     0.22838   0.67039   0.64448   0.00000  Uiso   1.00
O38    O     0.60511   0.16193   0.59161   0.00000  Uiso   1.00
O39    O     0.91934   0.21276   0.65596   0.00000  Uiso   1.00
O40    O     0.24327   0.60947   0.73224   0.00000  Uiso   1.00
N41    N     0.51441   0.13036   0.64922   0.00000  Uiso   1.00
N42    N     0.02572   0.16660   0.69507   0.00000  Uiso   1.00
N43    N     0.25653   0.73669   0.74943   0.00000  Uiso   1.00
N44    N     0.49514   0.09734   0.57328   0.00000  Uiso   1.00
N45    N     0.00645   0.13358   0.61913   0.00000  Uiso   1.00
N46    N     0.23726   0.70368   0.67349   0.00000  Uiso   1.00
C47    C     0.76729   0.51410   0.20459   0.00000  Uiso   1.00
C48    C     0.83069   0.53806   0.17077   0.00000  Uiso   1.00
C49    C     0.89473   0.57661   0.18464   0.00000  Uiso   1.00
C50    C     0.94609   0.59334   0.14824   0.00000  Uiso   1.00
C51    C     0.04639   0.63379   0.10311   0.00000  Uiso   1.00
C52    C     0.69601   0.54806   0.18341   0.00000  Uiso   1.00
C53    C     0.64680   0.59501   0.20790   0.00000  Uiso   1.00
C54    C     0.58478   0.62015   0.18213   0.00000  Uiso   1.00
C55    C     0.47596   0.67608   0.15663   0.00000  Uiso   1.00
C56    C     0.75963   0.42959   0.19839   0.00000  Uiso   1.00
C57    C     0.76390   0.37691   0.23548   0.00000  Uiso   1.00
C58    C     0.75543   0.30230   0.22233   0.00000  Uiso   1.00
C59    C     0.74539   0.17427   0.22008   0.00000  Uiso   1.00
C60    C     0.74463   0.47528   0.11529   0.00000  Uiso   1.00
C61    C     0.81838   0.51698   0.12227   0.00000  Uiso   1.00
C62    C     0.86966   0.53365   0.08584   0.00000  Uiso   1.00
C63    C     0.93376   0.57221   0.09965   0.00000  Uiso   1.00
C64    C     0.68370   0.52698   0.13490   0.00000  Uiso   1.00
C65    C     0.62173   0.55205   0.10910   0.00000  Uiso   1.00
C66    C     0.57245   0.59903   0.13354   0.00000  Uiso   1.00
C67    C     0.74733   0.40849   0.14988   0.00000  Uiso   1.00
C68    C     0.73883   0.33395   0.13667   0.00000  Uiso   1.00
C69    C     0.74309   0.28117   0.17373   0.00000  Uiso   1.00
H70    H     0.77687   0.53053   0.24235   0.00000  Uiso   1.00
H71    H     0.90423   0.59293   0.22218   0.00000  Uiso   1.00
H72    H     0.65634   0.61131   0.24544   0.00000  Uiso   1.00
H73    H     0.77343   0.39325   0.27301   0.00000  Uiso   1.00
H74    H     0.04000   0.65283   0.17842   0.00000  Uiso   1.00
H75    H     0.51729   0.69158   0.22746   0.00000  Uiso   1.00
H76    H     0.76419   0.23175   0.28561   0.00000  Uiso   1.00
H77    H     0.73504   0.45886   0.07752   0.00000  Uiso   1.00
H78    H     0.86011   0.51733   0.04831   0.00000  Uiso   1.00
H79    H     0.61222   0.53572   0.07156   0.00000  Uiso   1.00
H80    H     0.72931   0.31765   0.09913   0.00000  Uiso   1.00
H81    H     0.00419   0.59148   0.03730   0.00000  Uiso   1.00
H82    H     0.48148   0.63023   0.08634   0.00000  Uiso   1.00
H83    H     0.72838   0.17039   0.14448   0.00000  Uiso   1.00
O84    O     0.10511   0.66193   0.09161   0.00000  Uiso   1.00
O85    O     0.41934   0.71276   0.15596   0.00000  Uiso   1.00
O86    O     0.74327   0.10947   0.23224   0.00000  Uiso   1.00
N87    N     0.01441   0.63036   0.14922   0.00000  Uiso   1.00
N88    N     0.52572   0.66660   0.19507   0.00000  Uiso   1.00
N89    N     0.75653   0.23669   0.24943   0.00000  Uiso   1.00
N90    N     0.99514   0.59734   0.07328   0.00000  Uiso   1.00
N91    N     0.50645   0.63358   0.11913   0.00000  Uiso   1.00
N92    N     0.73726   0.20368   0.17349   0.00000  Uiso   1.00
C93    C     0.23271   0.48590   0.20459   0.00000  Uiso   1.00
C94    C     0.16931   0.46194   0.17077   0.00000  Uiso   1.00
C95    C     0.10527   0.42339   0.18464   0.00000  Uiso   1.00
C96    C     0.05391   0.40666   0.14824   0.00000  Uiso   1.00
C97    C     0.95361   0.36621   0.10311   0.00000  Uiso   1.00
C98    C     0.30399   0.45194   0.18341   0.00000  Uiso   1.00
C99    C     0.35320   0.40499   0.20790   0.00000  Uiso   1.00
C100   C     0.41522   0.37985   0.18213   0.00000  Uiso   1.00
C101   C     0.52404   0.32392   0.15663   0.00000  Uiso   1.00
C102   C     0.24037   0.57041   0.19839   0.00000  Uiso   1.00
C103   C     0.23610   0.62309   0.23548   0.00000  Uiso   1.00
C104   C     0.24457   0.69770   0.22233   0.00000  Uiso   1.00
C105   C     0.25461   0.82573   0.22008   0.00000  Uiso   1.00
C106   C     0.25537   0.52472   0.11529   0.00000  Uiso   1.00
C107   C     0.18162   0.48302   0.12227   0.00000  Uiso   1.00
C108   C     0.13034   0.46635   0.08584   0.00000  Uiso   1.00
C109   C     0.06624   0.42779   0.09965   0.00000  Uiso   1.00
C110   C     0.31630   0.47302   0.13490   0.00000  Uiso   1.00
C111   C     0.37827   0.44795   0.10910   0.00000  Uiso   1.00
C112   C     0.42755   0.40097   0.13354   0.00000  Uiso   1.00
C113   C     0.25267   0.59151   0.14988   0.00000  Uiso   1.00
C114   C     0.26117   0.66605   0.13667   0.00000  Uiso   1.00
C115   C     0.25691   0.71883   0.17373   0.00000  Uiso   1.00
H116   H     0.22313   0.46947   0.24235   0.00000  Uiso   1.00
H117   H     0.09577   0.40707   0.22218   0.00000  Uiso   1.00
H118   H     0.34366   0.38869   0.24544   0.00000  Uiso   1.00
H119   H     0.22657   0.60675   0.27301   0.00000  Uiso   1.00
H120   H     0.96000   0.34717   0.17842   0.00000  Uiso   1.00
H121   H     0.48271   0.30842   0.22746   0.00000  Uiso   1.00
H122   H     0.23581   0.76825   0.28561   0.00000  Uiso   1.00
H123   H     0.26496   0.54114   0.07752   0.00000  Uiso   1.00
H124   H     0.13989   0.48267   0.04831   0.00000  Uiso   1.00
H125   H     0.38778   0.46428   0.07156   0.00000  Uiso   1.00
H126   H     0.27069   0.68235   0.09913   0.00000  Uiso   1.00
H127   H     0.99581   0.40852   0.03730   0.00000  Uiso   1.00
H128   H     0.51852   0.36977   0.08634   0.00000  Uiso   1.00
H129   H     0.27162   0.82961   0.14448   0.00000  Uiso   1.00
O130   O     0.89489   0.33807   0.09161   0.00000  Uiso   1.00
O131   O     0.58066   0.28724   0.15596   0.00000  Uiso   1.00
O132   O     0.25673   0.89053   0.23224   0.00000  Uiso   1.00
N133   N     0.98559   0.36964   0.14922   0.00000  Uiso   1.00
N134   N     0.47428   0.33340   0.19507   0.00000  Uiso   1.00
N135   N     0.24347   0.76331   0.24943   0.00000  Uiso   1.00
N136   N     0.00486   0.40266   0.07328   0.00000  Uiso   1.00
N137   N     0.49355   0.36642   0.11913   0.00000  Uiso   1.00
N138   N     0.26274   0.79632   0.17349   0.00000  Uiso   1.00
C139   C     0.73271   0.98590   0.70459   0.00000  Uiso   1.00
C140   C     0.66931   0.96194   0.67077   0.00000  Uiso   1.00
C141   C     0.60527   0.92339   0.68464   0.00000  Uiso   1.00
C142   C     0.55391   0.90666   0.64824   0.00000  Uiso   1.00
C143   C     0.45361   0.86621   0.60311   0.00000  Uiso   1.00
C144   C     0.80399   0.95194   0.68341   0.00000  Uiso   1.00
C145   C     0.85320   0.90499   0.70790   0.00000  Uiso   1.00
C146   C     0.91522   0.87985   0.68213   0.00000  Uiso   1.00
C147   C     0.02404   0.82392   0.65663   0.00000  Uiso   1.00
C148   C     0.74037   0.07041   0.69839   0.00000  Uiso   1.00
C149   C     0.73610   0.12309   0.73548   0.00000  Uiso   1.00
C150   C     0.74457   0.19770   0.72233   0.00000  Uiso   1.00
C151   C     0.75461   0.32573   0.72008   0.00000  Uiso   1.00
C152   C     0.75537   0.02472   0.61529   0.00000  Uiso   1.00
C153   C     0.68162   0.98302   0.62227   0.00000  Uiso   1.00
C154   C     0.63034   0.96635   0.58584   0.00000  Uiso   1.00
C155   C     0.56624   0.92779   0.59965   0.00000  Uiso   1.00
C156   C     0.81630   0.97302   0.63490   0.00000  Uiso   1.00
C157   C     0.87827   0.94795   0.60910   0.00000  Uiso   1.00
C158   C     0.92755   0.90097   0.63354   0.00000  Uiso   1.00
C159   C     0.75267   0.09151   0.64988   0.00000  Uiso   1.00
C160   C     0.76117   0.16605   0.63667   0.00000  Uiso   1.00
C161   C     0.75691   0.21883   0.67373   0.00000  Uiso   1.00
H162   H     0.72313   0.96947   0.74235   0.00000  Uiso   1.00
H163   H     0.59577   0.90707   0.72218   0.00000  Uiso   1.00
H164   H     0.84366   0.88869   0.74544   0.00000  Uiso   1.00
H165   H     0.72657   0.10675   0.77301   0.00000  Uiso   1.00
H166   H     0.46000   0.84717   0.67842   0.00000  Uiso   1.00
H167   H     0.98271   0.80842   0.72746   0.00000  Uiso   1.00
H168   H     0.73581   0.26825   0.78561   0.00000  Uiso   1.00
H169   H     0.76496   0.04114   0.57752   0.00000  Uiso   1.00
H170   H     0.63989   0.98267   0.54831   0.00000  Uiso   1.00
H171   H     0.88778   0.96428   0.57156   0.00000  Uiso   1.00
H172   H     0.77069   0.18235   0.59913   0.00000  Uiso   1.00
H173   H     0.49581   0.90852   0.53730   0.00000  Uiso   1.00
H174   H     0.01852   0.86977   0.58634   0.00000  Uiso   1.00
H175   H     0.77162   0.32961   0.64448   0.00000  Uiso   1.00
O176   O     0.39489   0.83807   0.59161   0.00000  Uiso   1.00
O177   O     0.08066   0.78724   0.65596   0.00000  Uiso   1.00
O178   O     0.75673   0.39053   0.73224   0.00000  Uiso   1.00
N179   N     0.48559   0.86964   0.64922   0.00000  Uiso   1.00
N180   N     0.97428   0.83340   0.69507   0.00000  Uiso   1.00
N181   N     0.74347   0.26331   0.74943   0.00000  Uiso   1.00
N182   N     0.50486   0.90266   0.57328   0.00000  Uiso   1.00
N183   N     0.99355   0.86642   0.61913   0.00000  Uiso   1.00
N184   N     0.76274   0.29632   0.67349   0.00000  Uiso   1.00
C185   C     0.98590   0.76729   0.95459   0.00000  Uiso   1.00
C186   C     0.96194   0.83069   0.92077   0.00000  Uiso   1.00
C187   C     0.92339   0.89473   0.93464   0.00000  Uiso   1.00
C188   C     0.90666   0.94609   0.89824   0.00000  Uiso   1.00
C189   C     0.86621   0.04639   0.85311   0.00000  Uiso   1.00
C190   C     0.95194   0.69601   0.93341   0.00000  Uiso   1.00
C191   C     0.90499   0.64680   0.95790   0.00000  Uiso   1.00
C192   C     0.87985   0.58478   0.93213   0.00000  Uiso   1.00
C193   C     0.82392   0.47596   0.90663   0.00000  Uiso   1.00
C194   C     0.07041   0.75963   0.94839   0.00000  Uiso   1.00
C195   C     0.12309   0.76390   0.98548   0.00000  Uiso   1.00
C196   C     0.19770   0.75543   0.97233   0.00000  Uiso   1.00
C197   C     0.32573   0.74539   0.97008   0.00000  Uiso   1.00
C198   C     0.02472   0.74463   0.86529   0.00000  Uiso   1.00
C199   C     0.98302   0.81838   0.87227   0.00000  Uiso   1.00
C200   C     0.96635   0.86966   0.83584   0.00000  Uiso   1.00
C201   C     0.92779   0.93376   0.84965   0.00000  Uiso   1.00
C202   C     0.97302   0.68370   0.88490   0.00000  Uiso   1.00
C203   C     0.94795   0.62173   0.85910   0.00000  Uiso   1.00
C204   C     0.90097   0.57245   0.88354   0.00000  Uiso   1.00
C205   C     0.09151   0.74733   0.89988   0.00000  Uiso   1.00
C206   C     0.16605   0.73883   0.88667   0.00000  Uiso   1.00
C207   C     0.21883   0.74309   0.92373   0.00000  Uiso   1.00
H208   H     0.96947   0.77687   0.99235   0.00000  Uiso   1.00
H209   H     0.90707   0.90423   0.97218   0.00000  Uiso   1.00
H210   H     0.88869   0.65634   0.99544   0.00000  Uiso   1.00
H211   H     0.10675   0.77343   0.02301   0.00000  Uiso   1.00
H212   H     0.84717   0.04000   0.92842   0.00000  Uiso   1.00
H213   H     0.80842   0.51729   0.97746   0.00000  Uiso   1.00
H214   H     0.26825   0.76419   0.03561   0.00000  Uiso   1.00
H215   H     0.04114   0.73504   0.82752   0.00000  Uiso   1.00
H216   H     0.98267   0.86011   0.79831   0.00000  Uiso   1.00
H217   H     0.96428   0.61222   0.82156   0.00000  Uiso   1.00
H218   H     0.18235   0.72931   0.84913   0.00000  Uiso   1.00
H219   H     0.90852   0.00419   0.78730   0.00000  Uiso   1.00
H220   H     0.86977   0.48148   0.83634   0.00000  Uiso   1.00
H221   H     0.32961   0.72838   0.89448   0.00000  Uiso   1.00
O222   O     0.83807   0.10511   0.84161   0.00000  Uiso   1.00
O223   O     0.78724   0.41934   0.90596   0.00000  Uiso   1.00
O224   O     0.39053   0.74327   0.98224   0.00000  Uiso   1.00
N225   N     0.86964   0.01441   0.89922   0.00000  Uiso   1.00
N226   N     0.83340   0.52572   0.94507   0.00000  Uiso   1.00
N227   N     0.26331   0.75653   0.99943   0.00000  Uiso   1.00
N228   N     0.90266   0.99514   0.82328   0.00000  Uiso   1.00
N229   N     0.86642   0.50645   0.86913   0.00000  Uiso   1.00
N230   N     0.29632   0.73726   0.92349   0.00000  Uiso   1.00
C231   C     0.48590   0.26729   0.45459   0.00000  Uiso   1.00
C232   C     0.46194   0.33069   0.42077   0.00000  Uiso   1.00
C233   C     0.42339   0.39473   0.43464   0.00000  Uiso   1.00
C234   C     0.40666   0.44609   0.39824   0.00000  Uiso   1.00
C235   C     0.36621   0.54639   0.35311   0.00000  Uiso   1.00
C236   C     0.45194   0.19601   0.43341   0.00000  Uiso   1.00
C237   C     0.40499   0.14680   0.45790   0.00000  Uiso   1.00
C238   C     0.37985   0.08478   0.43213   0.00000  Uiso   1.00
C239   C     0.32392   0.97596   0.40663   0.00000  Uiso   1.00
C240   C     0.57041   0.25963   0.44839   0.00000  Uiso   1.00
C241   C     0.62309   0.26390   0.48548   0.00000  Uiso   1.00
C242   C     0.69770   0.25543   0.47233   0.00000  Uiso   1.00
C243   C     0.82573   0.24539   0.47008   0.00000  Uiso   1.00
C244   C     0.52472   0.24463   0.36529   0.00000  Uiso   1.00
C245   C     0.48302   0.31838   0.37227   0.00000  Uiso   1.00
C246   C     0.46635   0.36966   0.33584   0.00000  Uiso   1.00
C247   C     0.42779   0.43376   0.34965   0.00000  Uiso   1.00
C248   C     0.47302   0.18370   0.38490   0.00000  Uiso   1.00
C249   C     0.44795   0.12173   0.35910   0.00000  Uiso   1.00
C250   C     0.40097   0.07245   0.38354   0.00000  Uiso   1.00
C251   C     0.59151   0.24733   0.39988   0.00000  Uiso   1.00
C252   C     0.66605   0.23883   0.38667   0.00000  Uiso   1.00
C253   C     0.71883   0.24309   0.42373   0.00000  Uiso   1.00
H254   H     0.46947   0.27687   0.49235   0.00000  Uiso   1.00
H255   H     0.40707   0.40423   0.47218   0.00000  Uiso   1.00
H256   H     0.38869   0.15634   0.49544   0.00000  Uiso   1.00
H257   H     0.60675   0.27343   0.52301   0.00000  Uiso   1.00
H258   H     0.34717   0.54000   0.42842   0.00000  Uiso   1.00
H259   H     0.30842   0.01729   0.47746   0.00000  Uiso   1.00
H260   H     0.76825   0.26419   0.53561   0.00000  Uiso   1.00
H261   H     0.54114   0.23504   0.32752   0.00000  Uiso   1.00
H262   H     0.48267   0.36011   0.29831   0.00000  Uiso   1.00
H263   H     0.46428   0.11222   0.32156   0.00000  Uiso   1.00
H264   H     0.68235   0.22931   0.34913   0.00000  Uiso   1.00
H265   H     0.40852   0.50419   0.28730   0.00000  Uiso   1.00
H266   H     0.36977   0.98148   0.33634   0.00000  Uiso   1.00
H267   H     0.82961   0.22838   0.39448   0.00000  Uiso   1.00
O268   O     0.33807   0.60511   0.34161   0.00000  Uiso   1.00
O269   O     0.28724   0.91934   0.40596   0.00000  Uiso   1.00
O270   O     0.89053   0.24327   0.48224   0.00000  Uiso   1.00
N271   N     0.36964   0.51441   0.39922   0.00000  Uiso   1.00
N272   N     0.33340   0.02572   0.44507   0.00000  Uiso   1.00
N273   N     0.76331   0.25653   0.49943   0.00000  Uiso   1.00
N274   N     0.40266   0.49514   0.32328   0.00000  Uiso   1.00
N275   N     0.36642   0.00645   0.36913   0.00000  Uiso   1.00
N276   N     0.79632   0.23726   0.42349   0.00000  Uiso   1.00
C277   C     0.51410   0.73271   0.45459   0.00000  Uiso   1.00
C278   C     0.53806   0.66931   0.42077   0.00000  Uiso   1.00
C279   C     0.57661   0.60527   0.43464   0.00000  Uiso   1.00
C280   C     0.59334   0.55391   0.39824   0.00000  Uiso   1.00
C281   C     0.63379   0.45361   0.35311   0.00000  Uiso   1.00
C282   C     0.54806   0.80399   0.43341   0.00000  Uiso   1.00
C283   C     0.59501   0.85320   0.45790   0.00000  Uiso   1.00
C284   C     0.62015   0.91522   0.43213   0.00000  Uiso   1.00
C285   C     0.67608   0.02404   0.40663   0.00000  Uiso   1.00
C286   C     0.42959   0.74037   0.44839   0.00000  Uiso   1.00
C287   C     0.37691   0.73610   0.48548   0.00000  Uiso   1.00
C288   C     0.30230   0.74457   0.47233   0.00000  Uiso   1.00
C289   C     0.17427   0.75461   0.47008   0.00000  Uiso   1.00
C290   C     0.47528   0.75537   0.36529   0.00000  Uiso   1.00
C291   C     0.51698   0.68162   0.37227   0.00000  Uiso   1.00
C292   C     0.53365   0.63034   0.33584   0.00000  Uiso   1.00
C293   C     0.57221   0.56624   0.34965   0.00000  Uiso   1.00
C294   C     0.52698   0.81630   0.38490   0.00000  Uiso   1.00
C295   C     0.55205   0.87827   0.35910   0.00000  Uiso   1.00
C296   C     0.59903   0.92755   0.38354   0.00000  Uiso   1.00
C297   C     0.40849   0.75267   0.39988   0.00000  Uiso   1.00
C298   C     0.33395   0.76117   0.38667   0.00000  Uiso   1.00
C299   C     0.28117   0.75691   0.42373   0.00000  Uiso   1.00
H300   H     0.53053   0.72313   0.49235   0.00000  Uiso   1.00
H301   H     0.59293   0.59577   0.47218   0.00000  Uiso   1.00
H302   H     0.61131   0.84366   0.49544   0.00000  Uiso   1.00
H303   H     0.39325   0.72657   0.52301   0.00000  Uiso   1.00
H304   H     0.65283   0.46000   0.42842   0.00000  Uiso   1.00
H305   H     0.69158   0.98271   0.47746   0.00000  Uiso   1.00
H306   H     0.23175   0.73581   0.53561   0.00000  Uiso   1.00
H307   H     0.45886   0.76496   0.32752   0.00000  Uiso   1.00
H308   H     0.51733   0.63989   0.29831   0.00000  Uiso   1.00
H309   H     0.53572   0.88778   0.32156   0.00000  Uiso   1.00
H310   H     0.31765   0.77069   0.34913   0.00000  Uiso   1.00
H311   H     0.59148   0.49581   0.28730   0.00000  Uiso   1.00
H312   H     0.63023   0.01852   0.33634   0.00000  Uiso   1.00
H313   H     0.17039   0.77162   0.39448   0.00000  Uiso   1.00
O314   O     0.66193   0.39489   0.34161   0.00000  Uiso   1.00
O315   O     0.71276   0.08066   0.40596   0.00000  Uiso   1.00
O316   O     0.10947   0.75673   0.48224   0.00000  Uiso   1.00
N317   N     0.63036   0.48559   0.39922   0.00000  Uiso   1.00
N318   N     0.66660   0.97428   0.44507   0.00000  Uiso   1.00
N319   N     0.23669   0.74347   0.49943   0.00000  Uiso   1.00
N320   N     0.59734   0.50486   0.32328   0.00000  Uiso   1.00
N321   N     0.63358   0.99355   0.36913   0.00000  Uiso   1.00
N322   N     0.20368   0.76274   0.42349   0.00000  Uiso   1.00
C323   C     0.01410   0.23271   0.95459   0.00000  Uiso   1.00
C324   C     0.03806   0.16931   0.92077   0.00000  Uiso   1.00
C325   C     0.07661   0.10527   0.93464   0.00000  Uiso   1.00
C326   C     0.09334   0.05391   0.89824   0.00000  Uiso   1.00
C327   C     0.13379   0.95361   0.85311   0.00000  Uiso   1.00
C328   C     0.04806   0.30399   0.93341   0.00000  Uiso   1.00
C329   C     0.09501   0.35320   0.95790   0.00000  Uiso   1.00
C330   C     0.12015   0.41522   0.93213   0.00000  Uiso   1.00
C331   C     0.17608   0.52404   0.90663   0.00000  Uiso   1.00
C332   C     0.92959   0.24037   0.94839   0.00000  Uiso   1.00
C333   C     0.87691   0.23610   0.98548   0.00000  Uiso   1.00
C334   C     0.80230   0.24457   0.97233   0.00000  Uiso   1.00
C335   C     0.67427   0.25461   0.97008   0.00000  Uiso   1.00
C336   C     0.97528   0.25537   0.86529   0.00000  Uiso   1.00
C337   C     0.01698   0.18162   0.87227   0.00000  Uiso   1.00
C338   C     0.03365   0.13034   0.83584   0.00000  Uiso   1.00
C339   C     0.07221   0.06624   0.84965   0.00000  Uiso   1.00
C340   C     0.02698   0.31630   0.88490   0.00000  Uiso   1.00
C341   C     0.05205   0.37827   0.85910   0.00000  Uiso   1.00
C342   C     0.09903   0.42755   0.88354   0.00000  Uiso   1.00
C343   C     0.90849   0.25267   0.89988   0.00000  Uiso   1.00
C344   C     0.83395   0.26117   0.88667   0.00000  Uiso   1.00
C345   C     0.78117   0.25691   0.92373   0.00000  Uiso   1.00
H346   H     0.03053   0.22313   0.99235   0.00000  Uiso   1.00
H347   H     0.09293   0.09577   0.97218   0.00000  Uiso   1.00
H348   H     0.11131   0.34366   0.99544   0.00000  Uiso   1.00
H349   H     0.89325   0.22657   0.02301   0.00000  Uiso   1.00
H350   H     0.15283   0.96000   0.92842   0.00000  Uiso   1.00
H351   H     0.19158   0.48271   0.97746   0.00000  Uiso   1.00
H352   H     0.73175   0.23581   0.03561   0.00000  Uiso   1.00
H353   H     0.95886   0.26496   0.82752   0.00000  Uiso   1.00
H354   H     0.01733   0.13989   0.79831   0.00000  Uiso   1.00
H355   H     0.03572   0.38778   0.82156   0.00000  Uiso   1.00
H356   H     0.81765   0.27069   0.84913   0.00000  Uiso   1.00
H357   H     0.09148   0.99581   0.78730   0.00000  Uiso   1.00
H358   H     0.13023   0.51852   0.83634   0.00000  Uiso   1.00
H359   H     0.67039   0.27162   0.89448   0.00000  Uiso   1.00
O360   O     0.16193   0.89489   0.84161   0.00000  Uiso   1.00
O361   O     0.21276   0.58066   0.90596   0.00000  Uiso   1.00
O362   O     0.60947   0.25673   0.98224   0.00000  Uiso   1.00
N363   N     0.13036   0.98559   0.89922   0.00000  Uiso   1.00
N364   N     0.16660   0.47428   0.94507   0.00000  Uiso   1.00
N365   N     0.73669   0.24347   0.99943   0.00000  Uiso   1.00
N366   N     0.09734   0.00486   0.82328   0.00000  Uiso   1.00
N367   N     0.13358   0.49355   0.86913   0.00000  Uiso   1.00
N368   N     0.70368   0.26274   0.92349   0.00000  Uiso   1.00
C369   C     0.73271   0.48590   0.54541   0.00000  Uiso   1.00
C370   C     0.66931   0.46194   0.57923   0.00000  Uiso   1.00
C371   C     0.60527   0.42339   0.56536   0.00000  Uiso   1.00
C372   C     0.55391   0.40666   0.60176   0.00000  Uiso   1.00
C373   C     0.45361   0.36621   0.64689   0.00000  Uiso   1.00
C374   C     0.80399   0.45194   0.56659   0.00000  Uiso   1.00
C375   C     0.85320   0.40499   0.54210   0.00000  Uiso   1.00
C376   C     0.91522   0.37985   0.56787   0.00000  Uiso   1.00
C377   C     0.02404   0.32392   0.59337   0.00000  Uiso   1.00
C378   C     0.74037   0.57041   0.55161   0.00000  Uiso   1.00
C379   C     0.73610   0.62309   0.51452   0.00000  Uiso   1.00
C380   C     0.74457   0.69770   0.52767   0.00000  Uiso   1.00
C381   C     0.75461   0.82573   0.52992   0.00000  Uiso   1.00
C382   C     0.75537   0.52472   0.63471   0.00000  Uiso   1.00
C383   C     0.68162   0.48302   0.62773   0.00000  Uiso   1.00
C384   C     0.63034   0.46635   0.66416   0.00000  Uiso   1.00
C385   C     0.56624   0.42779   0.65035   0.00000  Uiso   1.00
C386   C     0.81630   0.47302   0.61510   0.00000  Uiso   1.00
C387   C     0.87827   0.44795   0.64090   0.00000  Uiso   1.00
C388   C     0.92755   0.40097   0.61646   0.00000  Uiso   1.00
C389   C     0.75267   0.59151   0.60012   0.00000  Uiso   1.00
C390   C     0.76117   0.66605   0.61333   0.00000  Uiso   1.00
C391   C     0.75691   0.71883   0.57627   0.00000  Uiso   1.00
H392   H     0.72313   0.46947   0.50765   0.00000  Uiso   1.00
H393   H     0.59577   0.40707   0.52782   0.00000  Uiso   1.00
H394   H     0.84366   0.38869   0.50456   0.00000  Uiso   1.00
H395   H     0.72657   0.60675   0.47699   0.00000  Uiso   1.00
H396   H     0.46000   0.34717   0.57158   0.00000  Uiso   1.00
H397   H     0.98271   0.30842   0.52254   0.00000  Uiso   1.00
H398   H     0.73581   0.76825   0.46439   0.00000  Uiso   1.00
H399   H     0.76496   0.54114   0.67248   0.00000  Uiso   1.00
H400   H     0.63989   0.48267   0.70169   0.00000  Uiso   1.00
H401   H     0.88778   0.46428   0.67844   0.00000  Uiso   1.00
H402   H     0.77069   0.68235   0.65087   0.00000  Uiso   1.00
H403   H     0.49581   0.40852   0.71270   0.00000  Uiso   1.00
H404   H     0.01852   0.36977   0.66366   0.00000  Uiso   1.00
H405   H     0.77162   0.82961   0.60552   0.00000  Uiso   1.00
O406   O     0.39489   0.33807   0.65839   0.00000  Uiso   1.00
O407   O     0.08066   0.28724   0.59404   0.00000  Uiso   1.00
O408   O     0.75673   0.89053   0.51776   0.00000  Uiso   1.00
N409   N     0.48559   0.36964   0.60078   0.00000  Uiso   1.00
N410   N     0.97428   0.33340   0.55493   0.00000  Uiso   1.00
N411   N     0.74347   0.76331   0.50057   0.00000  Uiso   1.00
N412   N     0.50486   0.40266   0.67672   0.00000  Uiso   1.00
N413   N     0.99355   0.36642   0.63087   0.00000  Uiso   1.00
N414   N     0.76274   0.79632   0.57651   0.00000  Uiso   1.00
C415   C     0.23271   0.98590   0.04541   0.00000  Uiso   1.00
C416   C     0.16931   0.96194   0.07923   0.00000  Uiso   1.00
C417   C     0.10527   0.92339   0.06536   0.00000  Uiso   1.00
C418   C     0.05391   0.90666   0.10176   0.00000  Uiso   1.00
C419   C     0.95361   0.86621   0.14689   0.00000  Uiso   1.00
C420   C     0.30399   0.95194   0.06659   0.00000  Uiso   1.00
C421   C     0.35320   0.90499   0.04210   0.00000  Uiso   1.00
C422   C     0.41522   0.87985   0.06787   0.00000  Uiso   1.00
C423   C     0.52404   0.82392   0.09337   0.00000  Uiso   1.00
C424   C     0.24037   0.07041   0.05161   0.00000  Uiso   1.00
C425   C     0.23610   0.12309   0.01452   0.00000  Uiso   1.00
C426   C     0.24457   0.19770   0.02767   0.00000  Uiso   1.00
C427   C     0.25461   0.32573   0.02992   0.00000  Uiso   1.00
C428   C     0.25537   0.02472   0.13471   0.00000  Uiso   1.00
C429   C     0.18162   0.98302   0.12773   0.00000  Uiso   1.00
C430   C     0.13034   0.96635   0.16416   0.00000  Uiso   1.00
C431   C     0.06624   0.92779   0.15035   0.00000  Uiso   1.00
C432   C     0.31630   0.97302   0.11510   0.00000  Uiso   1.00
C433   C     0.37827   0.94795   0.14090   0.00000  Uiso   1.00
C434   C     0.42755   0.90097   0.11646   0.00000  Uiso   1.00
C435   C     0.25267   0.09151   0.10012   0.00000  Uiso   1.00
C436   C     0.26117   0.16605   0.11333   0.00000  Uiso   1.00
C437   C     0.25691   0.21883   0.07627   0.00000  Uiso   1.00
H438   H     0.22313   0.96947   0.00765   0.00000  Uiso   1.00
H439   H     0.09577   0.90707   0.02782   0.00000  Uiso   1.00
H440   H     0.34366   0.88869   0.00456   0.00000  Uiso   1.00
H441   H     0.22657   0.10675   0.97699   0.00000  Uiso   1.00
H442   H     0.96000   0.84717   0.07158   0.00000  Uiso   1.00
H443   H     0.48271   0.80842   0.02254   0.00000  Uiso   1.00
H444   H     0.23581   0.26825   0.96439   0.00000  Uiso   1.00
H445   H     0.26496   0.04114   0.17248   0.00000  Uiso   1.00
H446   H     0.13989   0.98267   0.20169   0.00000  Uiso   1.00
H447   H     0.38778   0.96428   0.17844   0.00000  Uiso   1.00
H448   H     0.27069   0.18235   0.15087   0.00000  Uiso   1.00
H449   H     0.99581   0.90852   0.21270   0.00000  Uiso   1.00
H450   H     0.51852   0.86977   0.16366   0.00000  Uiso   1.00
H451   H     0.27162   0.32961   0.10552   0.00000  Uiso   1.00
O452   O     0.89489   0.83807   0.15839   0.00000  Uiso   1.00
O453   O     0.58066   0.78724   0.09404   0.00000  Uiso   1.00
O454   O     0.25673   0.39053   0.01776   0.00000  Uiso   1.00
N455   N     0.98559   0.86964   0.10078   0.00000  Uiso   1.00
N456   N     0.47428   0.83340   0.05493   0.00000  Uiso   1.00
N457   N     0.24347   0.26331   0.00057   0.00000  Uiso   1.00
N458   N     0.00486   0.90266   0.17672   0.00000  Uiso   1.00
N459   N     0.49355   0.86642   0.13087   0.00000  Uiso   1.00
N460   N     0.26274   0.29632   0.07651   0.00000  Uiso   1.00
C461   C     0.76729   0.01410   0.04541   0.00000  Uiso   1.00
C462   C     0.83069   0.03806   0.07923   0.00000  Uiso   1.00
C463   C     0.89473   0.07661   0.06536   0.00000  Uiso   1.00
C464   C     0.94609   0.09334   0.10176   0.00000  Uiso   1.00
C465   C     0.04639   0.13379   0.14689   0.00000  Uiso   1.00
C466   C     0.69601   0.04806   0.06659   0.00000  Uiso   1.00
C467   C     0.64680   0.09501   0.04210   0.00000  Uiso   1.00
C468   C     0.58478   0.12015   0.06787   0.00000  Uiso   1.00
C469   C     0.47596   0.17608   0.09337   0.00000  Uiso   1.00
C470   C     0.75963   0.92959   0.05161   0.00000  Uiso   1.00
C471   C     0.76390   0.87691   0.01452   0.00000  Uiso   1.00
C472   C     0.75543   0.80230   0.02767   0.00000  Uiso   1.00
C473   C     0.74539   0.67427   0.02992   0.00000  Uiso   1.00
C474   C     0.74463   0.97528   0.13471   0.00000  Uiso   1.00
C475   C     0.81838   0.01698   0.12773   0.00000  Uiso   1.00
C476   C     0.86966   0.03365   0.16416   0.00000  Uiso   1.00
C477   C     0.93376   0.07221   0.15035   0.00000  Uiso   1.00
C478   C     0.68370   0.02698   0.11510   0.00000  Uiso   1.00
C479   C     0.62173   0.05205   0.14090   0.00000  Uiso   1.00
C480   C     0.57245   0.09903   0.11646   0.00000  Uiso   1.00
C481   C     0.74733   0.90849   0.10012   0.00000  Uiso   1.00
C482   C     0.73883   0.83395   0.11333   0.00000  Uiso   1.00
C483   C     0.74309   0.78117   0.07627   0.00000  Uiso   1.00
H484   H     0.77687   0.03053   0.00765   0.00000  Uiso   1.00
H485   H     0.90423   0.09293   0.02782   0.00000  Uiso   1.00
H486   H     0.65634   0.11131   0.00456   0.00000  Uiso   1.00
H487   H     0.77343   0.89325   0.97699   0.00000  Uiso   1.00
H488   H     0.04000   0.15283   0.07158   0.00000  Uiso   1.00
H489   H     0.51729   0.19158   0.02254   0.00000  Uiso   1.00
H490   H     0.76419   0.73175   0.96439   0.00000  Uiso   1.00
H491   H     0.73504   0.95886   0.17248   0.00000  Uiso   1.00
H492   H     0.86011   0.01733   0.20169   0.00000  Uiso   1.00
H493   H     0.61222   0.03572   0.17844   0.00000  Uiso   1.00
H494   H     0.72931   0.81765   0.15087   0.00000  Uiso   1.00
H495   H     0.00419   0.09148   0.21270   0.00000  Uiso   1.00
H496   H     0.48148   0.13023   0.16366   0.00000  Uiso   1.00
H497   H     0.72838   0.67039   0.10552   0.00000  Uiso   1.00
O498   O     0.10511   0.16193   0.15839   0.00000  Uiso   1.00
O499   O     0.41934   0.21276   0.09404   0.00000  Uiso   1.00
O500   O     0.74327   0.60947   0.01776   0.00000  Uiso   1.00
N501   N     0.01441   0.13036   0.10078   0.00000  Uiso   1.00
N502   N     0.52572   0.16660   0.05493   0.00000  Uiso   1.00
N503   N     0.75653   0.73669   0.00057   0.00000  Uiso   1.00
N504   N     0.99514   0.09734   0.17672   0.00000  Uiso   1.00
N505   N     0.50645   0.13358   0.13087   0.00000  Uiso   1.00
N506   N     0.73726   0.70368   0.07651   0.00000  Uiso   1.00
C507   C     0.26729   0.51410   0.54541   0.00000  Uiso   1.00
C508   C     0.33069   0.53806   0.57923   0.00000  Uiso   1.00
C509   C     0.39473   0.57661   0.56536   0.00000  Uiso   1.00
C510   C     0.44609   0.59334   0.60176   0.00000  Uiso   1.00
C511   C     0.54639   0.63379   0.64689   0.00000  Uiso   1.00
C512   C     0.19601   0.54806   0.56659   0.00000  Uiso   1.00
C513   C     0.14680   0.59501   0.54210   0.00000  Uiso   1.00
C514   C     0.08478   0.62015   0.56787   0.00000  Uiso   1.00
C515   C     0.97596   0.67608   0.59337   0.00000  Uiso   1.00
C516   C     0.25963   0.42959   0.55161   0.00000  Uiso   1.00
C517   C     0.26390   0.37691   0.51452   0.00000  Uiso   1.00
C518   C     0.25543   0.30230   0.52767   0.00000  Uiso   1.00
C519   C     0.24539   0.17427   0.52992   0.00000  Uiso   1.00
C520   C     0.24463   0.47528   0.63471   0.00000  Uiso   1.00
C521   C     0.31838   0.51698   0.62773   0.00000  Uiso   1.00
C522   C     0.36966   0.53365   0.66416   0.00000  Uiso   1.00
C523   C     0.43376   0.57221   0.65035   0.00000  Uiso   1.00
C524   C     0.18370   0.52698   0.61510   0.00000  Uiso   1.00
C525   C     0.12173   0.55205   0.64090   0.00000  Uiso   1.00
C526   C     0.07245   0.59903   0.61646   0.00000  Uiso   1.00
C527   C     0.24733   0.40849   0.60012   0.00000  Uiso   1.00
C528   C     0.23883   0.33395   0.61333   0.00000  Uiso   1.00
C529   C     0.24309   0.28117   0.57627   0.00000  Uiso   1.00
H530   H     0.27687   0.53053   0.50765   0.00000  Uiso   1.00
H531   H     0.40423   0.59293   0.52782   0.00000  Uiso   1.00
H532   H     0.15634   0.61131   0.50456   0.00000  Uiso   1.00
H533   H     0.27343   0.39325   0.47699   0.00000  Uiso   1.00
H534   H     0.54000   0.65283   0.57158   0.00000  Uiso   1.00
H535   H     0.01729   0.69158   0.52254   0.00000  Uiso   1.00
H536   H     0.26419   0.23175   0.46439   0.00000  Uiso   1.00
H537   H     0.23504   0.45886   0.67248   0.00000  Uiso   1.00
H538   H     0.36011   0.51733   0.70169   0.00000  Uiso   1.00
H539   H     0.11222   0.53572   0.67844   0.00000  Uiso   1.00
H540   H     0.22931   0.31765   0.65087   0.00000  Uiso   1.00
H541   H     0.50419   0.59148   0.71270   0.00000  Uiso   1.00
H542   H     0.98148   0.63023   0.66366   0.00000  Uiso   1.00
H543   H     0.22838   0.17039   0.60552   0.00000  Uiso   1.00
O544   O     0.60511   0.66193   0.65839   0.00000  Uiso   1.00
O545   O     0.91934   0.71276   0.59404   0.00000  Uiso   1.00
O546   O     0.24327   0.10947   0.51776   0.00000  Uiso   1.00
N547   N     0.51441   0.63036   0.60078   0.00000  Uiso   1.00
N548   N     0.02572   0.66660   0.55493   0.00000  Uiso   1.00
N549   N     0.25653   0.23669   0.50057   0.00000  Uiso   1.00
N550   N     0.49514   0.59734   0.67672   0.00000  Uiso   1.00
N551   N     0.00645   0.63358   0.63087   0.00000  Uiso   1.00
N552   N     0.23726   0.20368   0.57651   0.00000  Uiso   1.00
C553   C     0.01410   0.73271   0.29541   0.00000  Uiso   1.00
C554   C     0.03806   0.66931   0.32923   0.00000  Uiso   1.00
C555   C     0.07661   0.60527   0.31536   0.00000  Uiso   1.00
C556   C     0.09334   0.55391   0.35176   0.00000  Uiso   1.00
C557   C     0.13379   0.45361   0.39689   0.00000  Uiso   1.00
C558   C     0.04806   0.80399   0.31659   0.00000  Uiso   1.00
C559   C     0.09501   0.85320   0.29210   0.00000  Uiso   1.00
C560   C     0.12015   0.91522   0.31787   0.00000  Uiso   1.00
C561   C     0.17608   0.02404   0.34337   0.00000  Uiso   1.00
C562   C     0.92959   0.74037   0.30161   0.00000  Uiso   1.00
C563   C     0.87691   0.73610   0.26452   0.00000  Uiso   1.00
C564   C     0.80230   0.74457   0.27767   0.00000  Uiso   1.00
C565   C     0.67427   0.75461   0.27992   0.00000  Uiso   1.00
C566   C     0.97528   0.75537   0.38471   0.00000  Uiso   1.00
C567   C     0.01698   0.68162   0.37773   0.00000  Uiso   1.00
C568   C     0.03365   0.63034   0.41416   0.00000  Uiso   1.00
C569   C     0.07221   0.56624   0.40035   0.00000  Uiso   1.00
C570   C     0.02698   0.81630   0.36510   0.00000  Uiso   1.00
C571   C     0.05205   0.87827   0.39090   0.00000  Uiso   1.00
C572   C     0.09903   0.92755   0.36646   0.00000  Uiso   1.00
C573   C     0.90849   0.75267   0.35012   0.00000  Uiso   1.00
C574   C     0.83395   0.76117   0.36333   0.00000  Uiso   1.00
C575   C     0.78117   0.75691   0.32627   0.00000  Uiso   1.00
H576   H     0.03053   0.72313   0.25765   0.00000  Uiso   1.00
H577   H     0.09293   0.59577   0.27782   0.00000  Uiso   1.00
H578   H     0.11131   0.84366   0.25456   0.00000  Uiso   1.00
H579   H     0.89325   0.72657   0.22699   0.00000  Uiso   1.00
H580   H     0.15283   0.46000   0.32158   0.00000  Uiso   1.00
H581   H     0.19158   0.98271   0.27254   0.00000  Uiso   1.00
H582   H     0.73175   0.73581   0.21439   0.00000  Uiso   1.00
H583   H     0.95886   0.76496   0.42248   0.00000  Uiso   1.00
H584   H     0.01733   0.63989   0.45169   0.00000  Uiso   1.00
H585   H     0.03572   0.88778   0.42844   0.00000  Uiso   1.00
H586   H     0.81765   0.77069   0.40087   0.00000  Uiso   1.00
H587   H     0.09148   0.49581   0.46270   0.00000  Uiso   1.00
H588   H     0.13023   0.01852   0.41366   0.00000  Uiso   1.00
H589   H     0.67039   0.77162   0.35552   0.00000  Uiso   1.00
O590   O     0.16193   0.39489   0.40839   0.00000  Uiso   1.00
O591   O     0.21276   0.08066   0.34404   0.00000  Uiso   1.00
O592   O     0.60947   0.75673   0.26776   0.00000  Uiso   1.00
N593   N     0.13036   0.48559   0.35078   0.00000  Uiso   1.00
N594   N     0.16660   0.97428   0.30493   0.00000  Uiso   1.00
N595   N     0.73669   0.74347   0.25057   0.00000  Uiso   1.00
N596   N     0.09734   0.50486   0.42672   0.00000  Uiso   1.00
N597   N     0.13358   0.99355   0.38087   0.00000  Uiso   1.00
N598   N     0.70368   0.76274   0.32651   0.00000  Uiso   1.00
C599   C     0.51410   0.23271   0.79541   0.00000  Uiso   1.00
C600   C     0.53806   0.16931   0.82923   0.00000  Uiso   1.00
C601   C     0.57661   0.10527   0.81536   0.00000  Uiso   1.00
C602   C     0.59334   0.05391   0.85176   0.00000  Uiso   1.00
C603   C     0.63379   0.95361   0.89689   0.00000  Uiso   1.00
C604   C     0.54806   0.30399   0.81659   0.00000  Uiso   1.00
C605   C     0.59501   0.35320   0.79210   0.00000  Uiso   1.00
C606   C     0.62015   0.41522   0.81787   0.00000  Uiso   1.00
C607   C     0.67608   0.52404   0.84337   0.00000  Uiso   1.00
C608   C     0.42959   0.24037   0.80161   0.00000  Uiso   1.00
C609   C     0.37691   0.23610   0.76452   0.00000  Uiso   1.00
C610   C     0.30230   0.24457   0.77767   0.00000  Uiso   1.00
C611   C     0.17427   0.25461   0.77992   0.00000  Uiso   1.00
C612   C     0.47528   0.25537   0.88471   0.00000  Uiso   1.00
C613   C     0.51698   0.18162   0.87773   0.00000  Uiso   1.00
C614   C     0.53365   0.13034   0.91416   0.00000  Uiso   1.00
C615   C     0.57221   0.06624   0.90035   0.00000  Uiso   1.00
C616   C     0.52698   0.31630   0.86510   0.00000  Uiso   1.00
C617   C     0.55205   0.37827   0.89090   0.00000  Uiso   1.00
C618   C     0.59903   0.42755   0.86646   0.00000  Uiso   1.00
C619   C     0.40849   0.25267   0.85012   0.00000  Uiso   1.00
C620   C     0.33395   0.26117   0.86333   0.00000  Uiso   1.00
C621   C     0.28117   0.25691   0.82627   0.00000  Uiso   1.00
H622   H     0.53053   0.22313   0.75765   0.00000  Uiso   1.00
H623   H     0.59293   0.09577   0.77782   0.00000  Uiso   1.00
H624   H     0.61131   0.34366   0.75456   0.00000  Uiso   1.00
H625   H     0.39325   0.22657   0.72699   0.00000  Uiso   1.00
H626   H     0.65283   0.96000   0.82158   0.00000  Uiso   1.00
H627   H     0.69158   0.48271   0.77254   0.00000  Uiso   1.00
H628   H     0.23175   0.23581   0.71439   0.00000  Uiso   1.00
H629   H     0.45886   0.26496   0.92248   0.00000  Uiso   1.00
H630   H     0.51733   0.13989   0.95169   0.00000  Uiso   1.00
H631   H     0.53572   0.38778   0.92844   0.00000  Uiso   1.00
H632   H     0.31765   0.27069   0.90087   0.00000  Uiso   1.00
H633   H     0.59148   0.99581   0.96270   0.00000  Uiso   1.00
H634   H     0.63023   0.51852   0.91366   0.00000  Uiso   1.00
H635   H     0.17039   0.27162   0.85552   0.00000  Uiso   1.00
O636   O     0.66193   0.89489   0.90839   0.00000  Uiso   1.00
O637   O     0.71276   0.58066   0.84404   0.00000  Uiso   1.00
O638   O     0.10947   0.25673   0.76776   0.00000  Uiso   1.00
N639   N     0.63036   0.98559   0.85078   0.00000  Uiso   1.00
N640   N     0.66660   0.47428   0.80493   0.00000  Uiso   1.00
N641   N     0.23669   0.24347   0.75057   0.00000  Uiso   1.00
N642   N     0.59734   0.00486   0.92672   0.00000  Uiso   1.00
N643   N     0.63358   0.49355   0.88087   0.00000  Uiso   1.00
N644   N     0.20368   0.26274   0.82651   0.00000  Uiso   1.00
C645   C     0.48590   0.76729   0.79541   0.00000  Uiso   1.00
C646   C     0.46194   0.83069   0.82923   0.00000  Uiso   1.00
C647   C     0.42339   0.89473   0.81536   0.00000  Uiso   1.00
C648   C     0.40666   0.94609   0.85176   0.00000  Uiso   1.00
C649   C     0.36621   0.04639   0.89689   0.00000  Uiso   1.00
C650   C     0.45194   0.69601   0.81659   0.00000  Uiso   1.00
C651   C     0.40499   0.64680   0.79210   0.00000  Uiso   1.00
C652   C     0.37985   0.58478   0.81787   0.00000  Uiso   1.00
C653   C     0.32392   0.47596   0.84337   0.00000  Uiso   1.00
C654   C     0.57041   0.75963   0.80161   0.00000  Uiso   1.00
C655   C     0.62309   0.76390   0.76452   0.00000  Uiso   1.00
C656   C     0.69770   0.75543   0.77767   0.00000  Uiso   1.00
C657   C     0.82573   0.74539   0.77992   0.00000  Uiso   1.00
C658   C     0.52472   0.74463   0.88471   0.00000  Uiso   1.00
C659   C     0.48302   0.81838   0.87773   0.00000  Uiso   1.00
C660   C     0.46635   0.86966   0.91416   0.00000  Uiso   1.00
C661   C     0.42779   0.93376   0.90035   0.00000  Uiso   1.00
C662   C     0.47302   0.68370   0.86510   0.00000  Uiso   1.00
C663   C     0.44795   0.62173   0.89090   0.00000  Uiso   1.00
C664   C     0.40097   0.57245   0.86646   0.00000  Uiso   1.00
C665   C     0.59151   0.74733   0.85012   0.00000  Uiso   1.00
C666   C     0.66605   0.73883   0.86333   0.00000  Uiso   1.00
C667   C     0.71883   0.74309   0.82627   0.00000  Uiso   1.00
H668   H     0.46947   0.77687   0.75765   0.00000  Uiso   1.00
H669   H     0.40707   0.90423   0.77782   0.00000  Uiso   1.00
H670   H     0.38869   0.65634   0.75456   0.00000  Uiso   1.00
H671   H     0.60675   0.77343   0.72699   0.00000  Uiso   1.00
H672   H     0.34717   0.04000   0.82158   0.00000  Uiso   1.00
H673   H     0.30842   0.51729   0.77254   0.00000  Uiso   1.00
H674   H     0.76825   0.76419   0.71439   0.00000  Uiso   1.00
H675   H     0.54114   0.73504   0.92248   0.00000  Uiso   1.00
H676   H     0.48267   0.86011   0.95169   0.00000  Uiso   1.00
H677   H     0.46428   0.61222   0.92844   0.00000  Uiso   1.00
H678   H     0.68235   0.72931   0.90087   0.00000  Uiso   1.00
H679   H     0.40852   0.00419   0.96270   0.00000  Uiso   1.00
H680   H     0.36977   0.48148   0.91366   0.00000  Uiso   1.00
H681   H     0.82961   0.72838   0.85552   0.00000  Uiso   1.00
O682   O     0.33807   0.10511   0.90839   0.00000  Uiso   1.00
O683   O     0.28724   0.41934   0.84404   0.00000  Uiso   1.00
O684   O     0.89053   0.74327   0.76776   0.00000  Uiso   1.00
N685   N     0.36964   0.01441   0.85078   0.00000  Uiso   1.00
N686   N     0.33340   0.52572   0.80493   0.00000  Uiso   1.00
N687   N     0.76331   0.75653   0.75057   0.00000  Uiso   1.00
N688   N     0.40266   0.99514   0.92672   0.00000  Uiso   1.00
N689   N     0.36642   0.50645   0.88087   0.00000  Uiso   1.00
N690   N     0.79632   0.73726   0.82651   0.00000  Uiso   1.00
C691   C     0.98590   0.26729   0.29541   0.00000  Uiso   1.00
C692   C     0.96194   0.33069   0.32923   0.00000  Uiso   1.00
C693   C     0.92339   0.39473   0.31536   0.00000  Uiso   1.00
C694   C     0.90666   0.44609   0.35176   0.00000  Uiso   1.00
C695   C     0.86621   0.54639   0.39689   0.00000  Uiso   1.00
C696   C     0.95194   0.19601   0.31659   0.00000  Uiso   1.00
C697   C     0.90499   0.14680   0.29210   0.00000  Uiso   1.00
C698   C     0.87985   0.08478   0.31787   0.00000  Uiso   1.00
C699   C     0.82392   0.97596   0.34337   0.00000  Uiso   1.00
C700   C     0.07041   0.25963   0.30161   0.00000  Uiso   1.00
C701   C     0.12309   0.26390   0.26452   0.00000  Uiso   1.00
C702   C     0.19770   0.25543   0.27767   0.00000  Uiso   1.00
C703   C     0.32573   0.24539   0.27992   0.00000  Uiso   1.00
C704   C     0.02472   0.24463   0.38471   0.00000  Uiso   1.00
C705   C     0.98302   0.31838   0.37773   0.00000  Uiso   1.00
C706   C     0.96635   0.36966   0.41416   0.00000  Uiso   1.00
C707   C     0.92779   0.43376   0.40035   0.00000  Uiso   1.00
C708   C     0.97302   0.18370   0.36510   0.00000  Uiso   1.00
C709   C     0.94795   0.12173   0.39090   0.00000  Uiso   1.00
C710   C     0.90097   0.07245   0.36646   0.00000  Uiso   1.00
C711   C     0.09151   0.24733   0.35012   0.00000  Uiso   1.00
C712   C     0.16605   0.23883   0.36333   0.00000  Uiso   1.00
C713   C     0.21883   0.24309   0.32627   0.00000  Uiso   1.00
H714   H     0.96947   0.27687   0.25765   0.00000  Uiso   1.00
H715   H     0.90707   0.40423   0.27782   0.00000  Uiso   1.00
H716   H     0.88869   0.15634   0.25456   0.00000  Uiso   1.00
H717   H     0.10675   0.27343   0.22699   0.00000  Uiso   1.00
H718   H     0.84717   0.54000   0.32158   0.00000  Uiso   1.00
H719   H     0.80842   0.01729   0.27254   0.00000  Uiso   1.00
H720   H     0.26825   0.26419   0.21439   0.00000  Uiso   1.00
H721   H     0.04114   0.23504   0.42248   0.00000  Uiso   1.00
H722   H     0.98267   0.36011   0.45169   0.00000  Uiso   1.00
H723   H     0.96428   0.11222   0.42844   0.00000  Uiso   1.00
H724   H     0.18235   0.22931   0.40087   0.00000  Uiso   1.00
H725   H     0.90852   0.50419   0.46270   0.00000  Uiso   1.00
H726   H     0.86977   0.98148   0.41366   0.00000  Uiso   1.00
H727   H     0.32961   0.22838   0.35552   0.00000  Uiso   1.00
O728   O     0.83807   0.60511   0.40839   0.00000  Uiso   1.00
O729   O     0.78724   0.91934   0.34404   0.00000  Uiso   1.00
O730   O     0.39053   0.24327   0.26776   0.00000  Uiso   1.00
N731   N     0.86964   0.51441   0.35078   0.00000  Uiso   1.00
N732   N     0.83340   0.02572   0.30493   0.00000  Uiso   1.00
N733   N     0.26331   0.25653   0.25057   0.00000  Uiso   1.00
N734   N     0.90266   0.49514   0.42672   0.00000  Uiso   1.00
N735   N     0.86642   0.00645   0.38087   0.00000  Uiso   1.00
N736   N     0.29632   0.23726   0.32651   0.00000  Uiso   1.00
