data_job_04177
_audit_creation_date              2018-12-19
_audit_creation_method            'Materials Studio'
_symmetry_space_group_name_H-M    'P1'
_symmetry_Int_Tables_number       1
_symmetry_cell_setting            triclinic
loop_
_symmetry_equiv_pos_as_xyz
  x,y,z
_cell_length_a                    28.8779
_cell_length_b                    28.8779
_cell_length_c                    12.3049
_cell_angle_alpha                 90.0000
_cell_angle_beta                  90.0000
_cell_angle_gamma                 90.0000
loop_
_atom_site_label
_atom_site_type_symbol
_atom_site_fract_x
_atom_site_fract_y
_atom_site_fract_z
_atom_site_U_iso_or_equiv
_atom_site_adp_type
_atom_site_occupancy
C1     C     0.65456   0.38604   0.06838   0.00000  Uiso   1.00
C2     C     0.68103   0.43098   0.04884   0.00000  Uiso   1.00
C3     C     0.72840   0.43704   0.06124   0.00000  Uiso   1.00
C4     C     0.74597   0.48081   0.03940   0.00000  Uiso   1.00
C5     C     0.79144   0.54505   0.01414   0.00000  Uiso   1.00
C6     C     0.61726   0.39747   0.15191   0.00000  Uiso   1.00
C7     C     0.61103   0.37535   0.25096   0.00000  Uiso   1.00
C8     C     0.57492   0.39091   0.31589   0.00000  Uiso   1.00
C9     C     0.52138   0.40310   0.45061   0.00000  Uiso   1.00
C10    C     0.62904   0.37559   0.96270   0.00000  Uiso   1.00
C11    C     0.63269   0.33506   0.90269   0.00000  Uiso   1.00
C12    C     0.60648   0.33220   0.80832   0.00000  Uiso   1.00
C13    C     0.57123   0.31042   0.64928   0.00000  Uiso   1.00
C14    C     0.60151   0.45301   0.00754   0.00000  Uiso   1.00
C15    C     0.65221   0.46735   0.01579   0.00000  Uiso   1.00
C16    C     0.66971   0.51113   0.99393   0.00000  Uiso   1.00
C17    C     0.71710   0.51725   0.00630   0.00000  Uiso   1.00
C18    C     0.58845   0.43384   0.11887   0.00000  Uiso   1.00
C19    C     0.55233   0.44944   0.18366   0.00000  Uiso   1.00
C20    C     0.54605   0.42735   0.28279   0.00000  Uiso   1.00
C21    C     0.60022   0.41196   0.92966   0.00000  Uiso   1.00
C22    C     0.57400   0.40916   0.83538   0.00000  Uiso   1.00
C23    C     0.57761   0.36864   0.77522   0.00000  Uiso   1.00
H24    H     0.67699   0.35773   0.09411   0.00000  Uiso   1.00
H25    H     0.75069   0.40888   0.08682   0.00000  Uiso   1.00
H26    H     0.63333   0.34720   0.27651   0.00000  Uiso   1.00
H27    H     0.65500   0.30692   0.92828   0.00000  Uiso   1.00
H28    H     0.81969   0.48164   0.06421   0.00000  Uiso   1.00
H29    H     0.57222   0.35156   0.46416   0.00000  Uiso   1.00
H30    H     0.61790   0.26663   0.72986   0.00000  Uiso   1.00
H31    H     0.57907   0.48133   0.98181   0.00000  Uiso   1.00
H32    H     0.64740   0.53927   0.96836   0.00000  Uiso   1.00
H33    H     0.53004   0.47759   0.15805   0.00000  Uiso   1.00
H34    H     0.55170   0.43731   0.80983   0.00000  Uiso   1.00
H35    H     0.73585   0.58747   0.96807   0.00000  Uiso   1.00
H36    H     0.48838   0.45739   0.36802   0.00000  Uiso   1.00
H37    H     0.53406   0.37247   0.63372   0.00000  Uiso   1.00
O38    O     0.82448   0.57044   0.00935   0.00000  Uiso   1.00
O39    O     0.49981   0.39978   0.53406   0.00000  Uiso   1.00
O40    O     0.55974   0.28836   0.57068   0.00000  Uiso   1.00
N41    N     0.79058   0.49859   0.04341   0.00000  Uiso   1.00
N42    N     0.55922   0.37698   0.41735   0.00000  Uiso   1.00
N43    N     0.60192   0.29758   0.73085   0.00000  Uiso   1.00
N44    N     0.74547   0.55554   0.99167   0.00000  Uiso   1.00
N45    N     0.51411   0.43393   0.36561   0.00000  Uiso   1.00
N46    N     0.55680   0.35452   0.67912   0.00000  Uiso   1.00
C47    C     0.15456   0.88604   0.56838   0.00000  Uiso   1.00
C48    C     0.18103   0.93098   0.54884   0.00000  Uiso   1.00
C49    C     0.22840   0.93704   0.56124   0.00000  Uiso   1.00
C50    C     0.24597   0.98081   0.53940   0.00000  Uiso   1.00
C51    C     0.29144   0.04505   0.51414   0.00000  Uiso   1.00
C52    C     0.11726   0.89747   0.65191   0.00000  Uiso   1.00
C53    C     0.11103   0.87535   0.75096   0.00000  Uiso   1.00
C54    C     0.07492   0.89091   0.81589   0.00000  Uiso   1.00
C55    C     0.02138   0.90310   0.95061   0.00000  Uiso   1.00
C56    C     0.12904   0.87559   0.46270   0.00000  Uiso   1.00
C57    C     0.13269   0.83506   0.40269   0.00000  Uiso   1.00
C58    C     0.10648   0.83220   0.30832   0.00000  Uiso   1.00
C59    C     0.07123   0.81042   0.14928   0.00000  Uiso   1.00
C60    C     0.10151   0.95301   0.50754   0.00000  Uiso   1.00
C61    C     0.15221   0.96735   0.51579   0.00000  Uiso   1.00
C62    C     0.16971   0.01113   0.49393   0.00000  Uiso   1.00
C63    C     0.21710   0.01725   0.50630   0.00000  Uiso   1.00
C64    C     0.08845   0.93384   0.61887   0.00000  Uiso   1.00
C65    C     0.05233   0.94944   0.68366   0.00000  Uiso   1.00
C66    C     0.04605   0.92735   0.78279   0.00000  Uiso   1.00
C67    C     0.10022   0.91196   0.42966   0.00000  Uiso   1.00
C68    C     0.07400   0.90916   0.33538   0.00000  Uiso   1.00
C69    C     0.07761   0.86864   0.27522   0.00000  Uiso   1.00
H70    H     0.17699   0.85773   0.59411   0.00000  Uiso   1.00
H71    H     0.25069   0.90888   0.58682   0.00000  Uiso   1.00
H72    H     0.13333   0.84720   0.77651   0.00000  Uiso   1.00
H73    H     0.15500   0.80692   0.42828   0.00000  Uiso   1.00
H74    H     0.31969   0.98164   0.56421   0.00000  Uiso   1.00
H75    H     0.07222   0.85156   0.96416   0.00000  Uiso   1.00
H76    H     0.11790   0.76663   0.22986   0.00000  Uiso   1.00
H77    H     0.07907   0.98133   0.48181   0.00000  Uiso   1.00
H78    H     0.14740   0.03927   0.46836   0.00000  Uiso   1.00
H79    H     0.03004   0.97759   0.65805   0.00000  Uiso   1.00
H80    H     0.05170   0.93731   0.30983   0.00000  Uiso   1.00
H81    H     0.23585   0.08747   0.46807   0.00000  Uiso   1.00
H82    H     0.98838   0.95739   0.86802   0.00000  Uiso   1.00
H83    H     0.03406   0.87247   0.13372   0.00000  Uiso   1.00
O84    O     0.32448   0.07044   0.50935   0.00000  Uiso   1.00
O85    O     0.99981   0.89978   0.03406   0.00000  Uiso   1.00
O86    O     0.05974   0.78836   0.07068   0.00000  Uiso   1.00
N87    N     0.29058   0.99859   0.54341   0.00000  Uiso   1.00
N88    N     0.05922   0.87698   0.91735   0.00000  Uiso   1.00
N89    N     0.10192   0.79758   0.23085   0.00000  Uiso   1.00
N90    N     0.24547   0.05554   0.49167   0.00000  Uiso   1.00
N91    N     0.01411   0.93393   0.86561   0.00000  Uiso   1.00
N92    N     0.05680   0.85452   0.17912   0.00000  Uiso   1.00
C93    C     0.84544   0.11396   0.56838   0.00000  Uiso   1.00
C94    C     0.81897   0.06902   0.54884   0.00000  Uiso   1.00
C95    C     0.77160   0.06296   0.56124   0.00000  Uiso   1.00
C96    C     0.75403   0.01919   0.53940   0.00000  Uiso   1.00
C97    C     0.70856   0.95495   0.51414   0.00000  Uiso   1.00
C98    C     0.88274   0.10253   0.65191   0.00000  Uiso   1.00
C99    C     0.88897   0.12465   0.75096   0.00000  Uiso   1.00
C100   C     0.92508   0.10909   0.81589   0.00000  Uiso   1.00
C101   C     0.97862   0.09690   0.95061   0.00000  Uiso   1.00
C102   C     0.87096   0.12441   0.46270   0.00000  Uiso   1.00
C103   C     0.86731   0.16494   0.40269   0.00000  Uiso   1.00
C104   C     0.89352   0.16780   0.30832   0.00000  Uiso   1.00
C105   C     0.92877   0.18958   0.14928   0.00000  Uiso   1.00
C106   C     0.89849   0.04699   0.50754   0.00000  Uiso   1.00
C107   C     0.84779   0.03265   0.51579   0.00000  Uiso   1.00
C108   C     0.83029   0.98887   0.49393   0.00000  Uiso   1.00
C109   C     0.78290   0.98275   0.50630   0.00000  Uiso   1.00
C110   C     0.91155   0.06616   0.61887   0.00000  Uiso   1.00
C111   C     0.94767   0.05056   0.68366   0.00000  Uiso   1.00
C112   C     0.95395   0.07265   0.78279   0.00000  Uiso   1.00
C113   C     0.89978   0.08804   0.42966   0.00000  Uiso   1.00
C114   C     0.92600   0.09084   0.33538   0.00000  Uiso   1.00
C115   C     0.92239   0.13136   0.27522   0.00000  Uiso   1.00
H116   H     0.82301   0.14227   0.59411   0.00000  Uiso   1.00
H117   H     0.74931   0.09112   0.58682   0.00000  Uiso   1.00
H118   H     0.86667   0.15280   0.77651   0.00000  Uiso   1.00
H119   H     0.84500   0.19308   0.42828   0.00000  Uiso   1.00
H120   H     0.68031   0.01836   0.56421   0.00000  Uiso   1.00
H121   H     0.92778   0.14844   0.96416   0.00000  Uiso   1.00
H122   H     0.88210   0.23337   0.22986   0.00000  Uiso   1.00
H123   H     0.92093   0.01867   0.48181   0.00000  Uiso   1.00
H124   H     0.85260   0.96073   0.46836   0.00000  Uiso   1.00
H125   H     0.96996   0.02241   0.65805   0.00000  Uiso   1.00
H126   H     0.94830   0.06269   0.30983   0.00000  Uiso   1.00
H127   H     0.76415   0.91253   0.46807   0.00000  Uiso   1.00
H128   H     0.01162   0.04261   0.86802   0.00000  Uiso   1.00
H129   H     0.96594   0.12753   0.13372   0.00000  Uiso   1.00
O130   O     0.67552   0.92956   0.50935   0.00000  Uiso   1.00
O131   O     0.00019   0.10022   0.03406   0.00000  Uiso   1.00
O132   O     0.94026   0.21164   0.07068   0.00000  Uiso   1.00
N133   N     0.70942   0.00141   0.54341   0.00000  Uiso   1.00
N134   N     0.94078   0.12302   0.91735   0.00000  Uiso   1.00
N135   N     0.89808   0.20242   0.23085   0.00000  Uiso   1.00
N136   N     0.75453   0.94446   0.49167   0.00000  Uiso   1.00
N137   N     0.98589   0.06607   0.86561   0.00000  Uiso   1.00
N138   N     0.94320   0.14548   0.17912   0.00000  Uiso   1.00
C139   C     0.34544   0.61396   0.06838   0.00000  Uiso   1.00
C140   C     0.31897   0.56902   0.04884   0.00000  Uiso   1.00
C141   C     0.27160   0.56296   0.06124   0.00000  Uiso   1.00
C142   C     0.25403   0.51919   0.03940   0.00000  Uiso   1.00
C143   C     0.20856   0.45495   0.01414   0.00000  Uiso   1.00
C144   C     0.38274   0.60253   0.15191   0.00000  Uiso   1.00
C145   C     0.38897   0.62465   0.25096   0.00000  Uiso   1.00
C146   C     0.42508   0.60909   0.31589   0.00000  Uiso   1.00
C147   C     0.47862   0.59690   0.45061   0.00000  Uiso   1.00
C148   C     0.37096   0.62441   0.96270   0.00000  Uiso   1.00
C149   C     0.36731   0.66494   0.90269   0.00000  Uiso   1.00
C150   C     0.39352   0.66780   0.80832   0.00000  Uiso   1.00
C151   C     0.42877   0.68958   0.64928   0.00000  Uiso   1.00
C152   C     0.39849   0.54699   0.00754   0.00000  Uiso   1.00
C153   C     0.34779   0.53265   0.01579   0.00000  Uiso   1.00
C154   C     0.33029   0.48887   0.99393   0.00000  Uiso   1.00
C155   C     0.28290   0.48275   0.00630   0.00000  Uiso   1.00
C156   C     0.41155   0.56616   0.11887   0.00000  Uiso   1.00
C157   C     0.44767   0.55056   0.18366   0.00000  Uiso   1.00
C158   C     0.45395   0.57265   0.28279   0.00000  Uiso   1.00
C159   C     0.39978   0.58804   0.92966   0.00000  Uiso   1.00
C160   C     0.42600   0.59084   0.83538   0.00000  Uiso   1.00
C161   C     0.42239   0.63136   0.77522   0.00000  Uiso   1.00
H162   H     0.32301   0.64227   0.09411   0.00000  Uiso   1.00
H163   H     0.24931   0.59112   0.08682   0.00000  Uiso   1.00
H164   H     0.36667   0.65280   0.27651   0.00000  Uiso   1.00
H165   H     0.34500   0.69308   0.92828   0.00000  Uiso   1.00
H166   H     0.18031   0.51836   0.06421   0.00000  Uiso   1.00
H167   H     0.42778   0.64844   0.46416   0.00000  Uiso   1.00
H168   H     0.38210   0.73337   0.72986   0.00000  Uiso   1.00
H169   H     0.42093   0.51867   0.98181   0.00000  Uiso   1.00
H170   H     0.35260   0.46073   0.96836   0.00000  Uiso   1.00
H171   H     0.46996   0.52241   0.15805   0.00000  Uiso   1.00
H172   H     0.44830   0.56269   0.80983   0.00000  Uiso   1.00
H173   H     0.26415   0.41253   0.96807   0.00000  Uiso   1.00
H174   H     0.51162   0.54261   0.36802   0.00000  Uiso   1.00
H175   H     0.46594   0.62753   0.63372   0.00000  Uiso   1.00
O176   O     0.17552   0.42956   0.00935   0.00000  Uiso   1.00
O177   O     0.50019   0.60022   0.53406   0.00000  Uiso   1.00
O178   O     0.44026   0.71164   0.57068   0.00000  Uiso   1.00
N179   N     0.20942   0.50141   0.04341   0.00000  Uiso   1.00
N180   N     0.44078   0.62302   0.41735   0.00000  Uiso   1.00
N181   N     0.39808   0.70242   0.73085   0.00000  Uiso   1.00
N182   N     0.25453   0.44446   0.99167   0.00000  Uiso   1.00
N183   N     0.48589   0.56607   0.36561   0.00000  Uiso   1.00
N184   N     0.44320   0.64548   0.67912   0.00000  Uiso   1.00
C185   C     0.61396   0.15456   0.31838   0.00000  Uiso   1.00
C186   C     0.56902   0.18103   0.29884   0.00000  Uiso   1.00
C187   C     0.56296   0.22840   0.31124   0.00000  Uiso   1.00
C188   C     0.51919   0.24597   0.28940   0.00000  Uiso   1.00
C189   C     0.45495   0.29144   0.26414   0.00000  Uiso   1.00
C190   C     0.60253   0.11726   0.40191   0.00000  Uiso   1.00
C191   C     0.62465   0.11103   0.50096   0.00000  Uiso   1.00
C192   C     0.60909   0.07492   0.56589   0.00000  Uiso   1.00
C193   C     0.59690   0.02138   0.70061   0.00000  Uiso   1.00
C194   C     0.62441   0.12904   0.21270   0.00000  Uiso   1.00
C195   C     0.66494   0.13269   0.15269   0.00000  Uiso   1.00
C196   C     0.66780   0.10648   0.05832   0.00000  Uiso   1.00
C197   C     0.68958   0.07123   0.89928   0.00000  Uiso   1.00
C198   C     0.54699   0.10151   0.25754   0.00000  Uiso   1.00
C199   C     0.53265   0.15221   0.26579   0.00000  Uiso   1.00
C200   C     0.48887   0.16971   0.24393   0.00000  Uiso   1.00
C201   C     0.48275   0.21710   0.25630   0.00000  Uiso   1.00
C202   C     0.56616   0.08845   0.36887   0.00000  Uiso   1.00
C203   C     0.55056   0.05233   0.43366   0.00000  Uiso   1.00
C204   C     0.57265   0.04605   0.53279   0.00000  Uiso   1.00
C205   C     0.58804   0.10022   0.17966   0.00000  Uiso   1.00
C206   C     0.59084   0.07400   0.08538   0.00000  Uiso   1.00
C207   C     0.63136   0.07761   0.02522   0.00000  Uiso   1.00
H208   H     0.64227   0.17699   0.34411   0.00000  Uiso   1.00
H209   H     0.59112   0.25069   0.33682   0.00000  Uiso   1.00
H210   H     0.65280   0.13333   0.52651   0.00000  Uiso   1.00
H211   H     0.69308   0.15500   0.17828   0.00000  Uiso   1.00
H212   H     0.51836   0.31969   0.31421   0.00000  Uiso   1.00
H213   H     0.64844   0.07222   0.71416   0.00000  Uiso   1.00
H214   H     0.73337   0.11790   0.97986   0.00000  Uiso   1.00
H215   H     0.51867   0.07907   0.23181   0.00000  Uiso   1.00
H216   H     0.46073   0.14740   0.21836   0.00000  Uiso   1.00
H217   H     0.52241   0.03004   0.40805   0.00000  Uiso   1.00
H218   H     0.56269   0.05170   0.05983   0.00000  Uiso   1.00
H219   H     0.41253   0.23585   0.21807   0.00000  Uiso   1.00
H220   H     0.54261   0.98838   0.61802   0.00000  Uiso   1.00
H221   H     0.62753   0.03406   0.88372   0.00000  Uiso   1.00
O222   O     0.42956   0.32448   0.25935   0.00000  Uiso   1.00
O223   O     0.60022   0.99981   0.78406   0.00000  Uiso   1.00
O224   O     0.71164   0.05974   0.82068   0.00000  Uiso   1.00
N225   N     0.50141   0.29058   0.29341   0.00000  Uiso   1.00
N226   N     0.62302   0.05922   0.66735   0.00000  Uiso   1.00
N227   N     0.70242   0.10192   0.98085   0.00000  Uiso   1.00
N228   N     0.44446   0.24547   0.24167   0.00000  Uiso   1.00
N229   N     0.56607   0.01411   0.61561   0.00000  Uiso   1.00
N230   N     0.64548   0.05680   0.92912   0.00000  Uiso   1.00
C231   C     0.11396   0.65456   0.81838   0.00000  Uiso   1.00
C232   C     0.06902   0.68103   0.79884   0.00000  Uiso   1.00
C233   C     0.06296   0.72840   0.81124   0.00000  Uiso   1.00
C234   C     0.01919   0.74597   0.78940   0.00000  Uiso   1.00
C235   C     0.95495   0.79144   0.76414   0.00000  Uiso   1.00
C236   C     0.10253   0.61726   0.90191   0.00000  Uiso   1.00
C237   C     0.12465   0.61103   0.00096   0.00000  Uiso   1.00
C238   C     0.10909   0.57492   0.06589   0.00000  Uiso   1.00
C239   C     0.09690   0.52138   0.20061   0.00000  Uiso   1.00
C240   C     0.12441   0.62904   0.71270   0.00000  Uiso   1.00
C241   C     0.16494   0.63269   0.65269   0.00000  Uiso   1.00
C242   C     0.16780   0.60648   0.55832   0.00000  Uiso   1.00
C243   C     0.18958   0.57123   0.39928   0.00000  Uiso   1.00
C244   C     0.04699   0.60151   0.75754   0.00000  Uiso   1.00
C245   C     0.03265   0.65221   0.76579   0.00000  Uiso   1.00
C246   C     0.98887   0.66971   0.74393   0.00000  Uiso   1.00
C247   C     0.98275   0.71710   0.75630   0.00000  Uiso   1.00
C248   C     0.06616   0.58845   0.86887   0.00000  Uiso   1.00
C249   C     0.05056   0.55233   0.93366   0.00000  Uiso   1.00
C250   C     0.07265   0.54605   0.03279   0.00000  Uiso   1.00
C251   C     0.08804   0.60022   0.67966   0.00000  Uiso   1.00
C252   C     0.09084   0.57400   0.58538   0.00000  Uiso   1.00
C253   C     0.13136   0.57761   0.52522   0.00000  Uiso   1.00
H254   H     0.14227   0.67699   0.84411   0.00000  Uiso   1.00
H255   H     0.09112   0.75069   0.83682   0.00000  Uiso   1.00
H256   H     0.15280   0.63333   0.02651   0.00000  Uiso   1.00
H257   H     0.19308   0.65500   0.67828   0.00000  Uiso   1.00
H258   H     0.01836   0.81969   0.81421   0.00000  Uiso   1.00
H259   H     0.14844   0.57222   0.21416   0.00000  Uiso   1.00
H260   H     0.23337   0.61790   0.47986   0.00000  Uiso   1.00
H261   H     0.01867   0.57907   0.73181   0.00000  Uiso   1.00
H262   H     0.96073   0.64740   0.71836   0.00000  Uiso   1.00
H263   H     0.02241   0.53004   0.90805   0.00000  Uiso   1.00
H264   H     0.06269   0.55170   0.55983   0.00000  Uiso   1.00
H265   H     0.91253   0.73585   0.71807   0.00000  Uiso   1.00
H266   H     0.04261   0.48838   0.11802   0.00000  Uiso   1.00
H267   H     0.12753   0.53406   0.38372   0.00000  Uiso   1.00
O268   O     0.92956   0.82448   0.75935   0.00000  Uiso   1.00
O269   O     0.10022   0.49981   0.28406   0.00000  Uiso   1.00
O270   O     0.21164   0.55974   0.32068   0.00000  Uiso   1.00
N271   N     0.00141   0.79058   0.79341   0.00000  Uiso   1.00
N272   N     0.12302   0.55922   0.16735   0.00000  Uiso   1.00
N273   N     0.20242   0.60192   0.48085   0.00000  Uiso   1.00
N274   N     0.94446   0.74547   0.74167   0.00000  Uiso   1.00
N275   N     0.06607   0.51411   0.11561   0.00000  Uiso   1.00
N276   N     0.14548   0.55680   0.42912   0.00000  Uiso   1.00
C277   C     0.88604   0.34544   0.81838   0.00000  Uiso   1.00
C278   C     0.93098   0.31897   0.79884   0.00000  Uiso   1.00
C279   C     0.93704   0.27160   0.81124   0.00000  Uiso   1.00
C280   C     0.98081   0.25403   0.78940   0.00000  Uiso   1.00
C281   C     0.04505   0.20856   0.76414   0.00000  Uiso   1.00
C282   C     0.89747   0.38274   0.90191   0.00000  Uiso   1.00
C283   C     0.87535   0.38897   0.00096   0.00000  Uiso   1.00
C284   C     0.89091   0.42508   0.06589   0.00000  Uiso   1.00
C285   C     0.90310   0.47862   0.20061   0.00000  Uiso   1.00
C286   C     0.87559   0.37096   0.71270   0.00000  Uiso   1.00
C287   C     0.83506   0.36731   0.65269   0.00000  Uiso   1.00
C288   C     0.83220   0.39352   0.55832   0.00000  Uiso   1.00
C289   C     0.81042   0.42877   0.39928   0.00000  Uiso   1.00
C290   C     0.95301   0.39849   0.75754   0.00000  Uiso   1.00
C291   C     0.96735   0.34779   0.76579   0.00000  Uiso   1.00
C292   C     0.01113   0.33029   0.74393   0.00000  Uiso   1.00
C293   C     0.01725   0.28290   0.75630   0.00000  Uiso   1.00
C294   C     0.93384   0.41155   0.86887   0.00000  Uiso   1.00
C295   C     0.94944   0.44767   0.93366   0.00000  Uiso   1.00
C296   C     0.92735   0.45395   0.03279   0.00000  Uiso   1.00
C297   C     0.91196   0.39978   0.67966   0.00000  Uiso   1.00
C298   C     0.90916   0.42600   0.58538   0.00000  Uiso   1.00
C299   C     0.86864   0.42239   0.52522   0.00000  Uiso   1.00
H300   H     0.85773   0.32301   0.84411   0.00000  Uiso   1.00
H301   H     0.90888   0.24931   0.83682   0.00000  Uiso   1.00
H302   H     0.84720   0.36667   0.02651   0.00000  Uiso   1.00
H303   H     0.80692   0.34500   0.67828   0.00000  Uiso   1.00
H304   H     0.98164   0.18031   0.81421   0.00000  Uiso   1.00
H305   H     0.85156   0.42778   0.21416   0.00000  Uiso   1.00
H306   H     0.76663   0.38210   0.47986   0.00000  Uiso   1.00
H307   H     0.98133   0.42093   0.73181   0.00000  Uiso   1.00
H308   H     0.03927   0.35260   0.71836   0.00000  Uiso   1.00
H309   H     0.97759   0.46996   0.90805   0.00000  Uiso   1.00
H310   H     0.93731   0.44830   0.55983   0.00000  Uiso   1.00
H311   H     0.08747   0.26415   0.71807   0.00000  Uiso   1.00
H312   H     0.95739   0.51162   0.11802   0.00000  Uiso   1.00
H313   H     0.87247   0.46594   0.38372   0.00000  Uiso   1.00
O314   O     0.07044   0.17552   0.75935   0.00000  Uiso   1.00
O315   O     0.89978   0.50019   0.28406   0.00000  Uiso   1.00
O316   O     0.78836   0.44026   0.32068   0.00000  Uiso   1.00
N317   N     0.99859   0.20942   0.79341   0.00000  Uiso   1.00
N318   N     0.87698   0.44078   0.16735   0.00000  Uiso   1.00
N319   N     0.79758   0.39808   0.48085   0.00000  Uiso   1.00
N320   N     0.05554   0.25453   0.74167   0.00000  Uiso   1.00
N321   N     0.93393   0.48589   0.11561   0.00000  Uiso   1.00
N322   N     0.85452   0.44320   0.42912   0.00000  Uiso   1.00
C323   C     0.38604   0.84544   0.31838   0.00000  Uiso   1.00
C324   C     0.43098   0.81897   0.29884   0.00000  Uiso   1.00
C325   C     0.43704   0.77160   0.31124   0.00000  Uiso   1.00
C326   C     0.48081   0.75403   0.28940   0.00000  Uiso   1.00
C327   C     0.54505   0.70856   0.26414   0.00000  Uiso   1.00
C328   C     0.39747   0.88274   0.40191   0.00000  Uiso   1.00
C329   C     0.37535   0.88897   0.50096   0.00000  Uiso   1.00
C330   C     0.39091   0.92508   0.56589   0.00000  Uiso   1.00
C331   C     0.40310   0.97862   0.70061   0.00000  Uiso   1.00
C332   C     0.37559   0.87096   0.21270   0.00000  Uiso   1.00
C333   C     0.33506   0.86731   0.15269   0.00000  Uiso   1.00
C334   C     0.33220   0.89352   0.05832   0.00000  Uiso   1.00
C335   C     0.31042   0.92877   0.89928   0.00000  Uiso   1.00
C336   C     0.45301   0.89849   0.25754   0.00000  Uiso   1.00
C337   C     0.46735   0.84779   0.26579   0.00000  Uiso   1.00
C338   C     0.51113   0.83029   0.24393   0.00000  Uiso   1.00
C339   C     0.51725   0.78290   0.25630   0.00000  Uiso   1.00
C340   C     0.43384   0.91155   0.36887   0.00000  Uiso   1.00
C341   C     0.44944   0.94767   0.43366   0.00000  Uiso   1.00
C342   C     0.42735   0.95395   0.53279   0.00000  Uiso   1.00
C343   C     0.41196   0.89978   0.17966   0.00000  Uiso   1.00
C344   C     0.40916   0.92600   0.08538   0.00000  Uiso   1.00
C345   C     0.36864   0.92239   0.02522   0.00000  Uiso   1.00
H346   H     0.35773   0.82301   0.34411   0.00000  Uiso   1.00
H347   H     0.40888   0.74931   0.33682   0.00000  Uiso   1.00
H348   H     0.34720   0.86667   0.52651   0.00000  Uiso   1.00
H349   H     0.30692   0.84500   0.17828   0.00000  Uiso   1.00
H350   H     0.48164   0.68031   0.31421   0.00000  Uiso   1.00
H351   H     0.35156   0.92778   0.71416   0.00000  Uiso   1.00
H352   H     0.26663   0.88210   0.97986   0.00000  Uiso   1.00
H353   H     0.48133   0.92093   0.23181   0.00000  Uiso   1.00
H354   H     0.53927   0.85260   0.21836   0.00000  Uiso   1.00
H355   H     0.47759   0.96996   0.40805   0.00000  Uiso   1.00
H356   H     0.43731   0.94830   0.05983   0.00000  Uiso   1.00
H357   H     0.58747   0.76415   0.21807   0.00000  Uiso   1.00
H358   H     0.45739   0.01162   0.61802   0.00000  Uiso   1.00
H359   H     0.37247   0.96594   0.88372   0.00000  Uiso   1.00
O360   O     0.57044   0.67552   0.25935   0.00000  Uiso   1.00
O361   O     0.39978   0.00019   0.78406   0.00000  Uiso   1.00
O362   O     0.28836   0.94026   0.82068   0.00000  Uiso   1.00
N363   N     0.49859   0.70942   0.29341   0.00000  Uiso   1.00
N364   N     0.37698   0.94078   0.66735   0.00000  Uiso   1.00
N365   N     0.29758   0.89808   0.98085   0.00000  Uiso   1.00
N366   N     0.55554   0.75453   0.24167   0.00000  Uiso   1.00
N367   N     0.43393   0.98589   0.61561   0.00000  Uiso   1.00
N368   N     0.35452   0.94320   0.92912   0.00000  Uiso   1.00
C369   C     0.34544   0.11396   0.18162   0.00000  Uiso   1.00
C370   C     0.31897   0.06902   0.20116   0.00000  Uiso   1.00
C371   C     0.27160   0.06296   0.18876   0.00000  Uiso   1.00
C372   C     0.25403   0.01919   0.21060   0.00000  Uiso   1.00
C373   C     0.20856   0.95495   0.23586   0.00000  Uiso   1.00
C374   C     0.38274   0.10253   0.09809   0.00000  Uiso   1.00
C375   C     0.38897   0.12465   0.99904   0.00000  Uiso   1.00
C376   C     0.42508   0.10909   0.93411   0.00000  Uiso   1.00
C377   C     0.47862   0.09690   0.79939   0.00000  Uiso   1.00
C378   C     0.37096   0.12441   0.28730   0.00000  Uiso   1.00
C379   C     0.36731   0.16494   0.34731   0.00000  Uiso   1.00
C380   C     0.39352   0.16780   0.44168   0.00000  Uiso   1.00
C381   C     0.42877   0.18958   0.60072   0.00000  Uiso   1.00
C382   C     0.39849   0.04699   0.24246   0.00000  Uiso   1.00
C383   C     0.34779   0.03265   0.23421   0.00000  Uiso   1.00
C384   C     0.33029   0.98887   0.25607   0.00000  Uiso   1.00
C385   C     0.28290   0.98275   0.24370   0.00000  Uiso   1.00
C386   C     0.41155   0.06616   0.13113   0.00000  Uiso   1.00
C387   C     0.44767   0.05056   0.06634   0.00000  Uiso   1.00
C388   C     0.45395   0.07265   0.96721   0.00000  Uiso   1.00
C389   C     0.39978   0.08804   0.32034   0.00000  Uiso   1.00
C390   C     0.42600   0.09084   0.41462   0.00000  Uiso   1.00
C391   C     0.42239   0.13136   0.47478   0.00000  Uiso   1.00
H392   H     0.32301   0.14227   0.15589   0.00000  Uiso   1.00
H393   H     0.24931   0.09112   0.16318   0.00000  Uiso   1.00
H394   H     0.36667   0.15280   0.97349   0.00000  Uiso   1.00
H395   H     0.34500   0.19308   0.32172   0.00000  Uiso   1.00
H396   H     0.18031   0.01836   0.18579   0.00000  Uiso   1.00
H397   H     0.42778   0.14844   0.78584   0.00000  Uiso   1.00
H398   H     0.38210   0.23337   0.52014   0.00000  Uiso   1.00
H399   H     0.42093   0.01867   0.26819   0.00000  Uiso   1.00
H400   H     0.35260   0.96073   0.28164   0.00000  Uiso   1.00
H401   H     0.46996   0.02241   0.09195   0.00000  Uiso   1.00
H402   H     0.44830   0.06269   0.44017   0.00000  Uiso   1.00
H403   H     0.26415   0.91253   0.28193   0.00000  Uiso   1.00
H404   H     0.51162   0.04261   0.88198   0.00000  Uiso   1.00
H405   H     0.46594   0.12753   0.61628   0.00000  Uiso   1.00
O406   O     0.17552   0.92956   0.24065   0.00000  Uiso   1.00
O407   O     0.50019   0.10022   0.71594   0.00000  Uiso   1.00
O408   O     0.44026   0.21164   0.67932   0.00000  Uiso   1.00
N409   N     0.20942   0.00141   0.20659   0.00000  Uiso   1.00
N410   N     0.44078   0.12302   0.83265   0.00000  Uiso   1.00
N411   N     0.39808   0.20242   0.51915   0.00000  Uiso   1.00
N412   N     0.25453   0.94446   0.25833   0.00000  Uiso   1.00
N413   N     0.48589   0.06607   0.88439   0.00000  Uiso   1.00
N414   N     0.44320   0.14548   0.57088   0.00000  Uiso   1.00
C415   C     0.84544   0.61396   0.68162   0.00000  Uiso   1.00
C416   C     0.81897   0.56902   0.70116   0.00000  Uiso   1.00
C417   C     0.77160   0.56296   0.68876   0.00000  Uiso   1.00
C418   C     0.75403   0.51919   0.71060   0.00000  Uiso   1.00
C419   C     0.70856   0.45495   0.73586   0.00000  Uiso   1.00
C420   C     0.88274   0.60253   0.59809   0.00000  Uiso   1.00
C421   C     0.88897   0.62465   0.49904   0.00000  Uiso   1.00
C422   C     0.92508   0.60909   0.43411   0.00000  Uiso   1.00
C423   C     0.97862   0.59690   0.29939   0.00000  Uiso   1.00
C424   C     0.87096   0.62441   0.78730   0.00000  Uiso   1.00
C425   C     0.86731   0.66494   0.84731   0.00000  Uiso   1.00
C426   C     0.89352   0.66780   0.94168   0.00000  Uiso   1.00
C427   C     0.92877   0.68958   0.10072   0.00000  Uiso   1.00
C428   C     0.89849   0.54699   0.74246   0.00000  Uiso   1.00
C429   C     0.84779   0.53265   0.73421   0.00000  Uiso   1.00
C430   C     0.83029   0.48887   0.75607   0.00000  Uiso   1.00
C431   C     0.78290   0.48275   0.74370   0.00000  Uiso   1.00
C432   C     0.91155   0.56616   0.63113   0.00000  Uiso   1.00
C433   C     0.94767   0.55056   0.56634   0.00000  Uiso   1.00
C434   C     0.95395   0.57265   0.46721   0.00000  Uiso   1.00
C435   C     0.89978   0.58804   0.82034   0.00000  Uiso   1.00
C436   C     0.92600   0.59084   0.91462   0.00000  Uiso   1.00
C437   C     0.92239   0.63136   0.97478   0.00000  Uiso   1.00
H438   H     0.82301   0.64227   0.65589   0.00000  Uiso   1.00
H439   H     0.74931   0.59112   0.66318   0.00000  Uiso   1.00
H440   H     0.86667   0.65280   0.47349   0.00000  Uiso   1.00
H441   H     0.84500   0.69308   0.82172   0.00000  Uiso   1.00
H442   H     0.68031   0.51836   0.68579   0.00000  Uiso   1.00
H443   H     0.92778   0.64844   0.28584   0.00000  Uiso   1.00
H444   H     0.88210   0.73337   0.02014   0.00000  Uiso   1.00
H445   H     0.92093   0.51867   0.76819   0.00000  Uiso   1.00
H446   H     0.85260   0.46073   0.78164   0.00000  Uiso   1.00
H447   H     0.96996   0.52241   0.59195   0.00000  Uiso   1.00
H448   H     0.94830   0.56269   0.94017   0.00000  Uiso   1.00
H449   H     0.76415   0.41253   0.78193   0.00000  Uiso   1.00
H450   H     0.01162   0.54261   0.38198   0.00000  Uiso   1.00
H451   H     0.96594   0.62753   0.11628   0.00000  Uiso   1.00
O452   O     0.67552   0.42956   0.74065   0.00000  Uiso   1.00
O453   O     0.00019   0.60022   0.21594   0.00000  Uiso   1.00
O454   O     0.94026   0.71164   0.17932   0.00000  Uiso   1.00
N455   N     0.70942   0.50141   0.70659   0.00000  Uiso   1.00
N456   N     0.94078   0.62302   0.33265   0.00000  Uiso   1.00
N457   N     0.89808   0.70242   0.01915   0.00000  Uiso   1.00
N458   N     0.75453   0.44446   0.75833   0.00000  Uiso   1.00
N459   N     0.98589   0.56607   0.38439   0.00000  Uiso   1.00
N460   N     0.94320   0.64548   0.07088   0.00000  Uiso   1.00
C461   C     0.15456   0.38604   0.68162   0.00000  Uiso   1.00
C462   C     0.18103   0.43098   0.70116   0.00000  Uiso   1.00
C463   C     0.22840   0.43704   0.68876   0.00000  Uiso   1.00
C464   C     0.24597   0.48081   0.71060   0.00000  Uiso   1.00
C465   C     0.29144   0.54505   0.73586   0.00000  Uiso   1.00
C466   C     0.11726   0.39747   0.59809   0.00000  Uiso   1.00
C467   C     0.11103   0.37535   0.49904   0.00000  Uiso   1.00
C468   C     0.07492   0.39091   0.43411   0.00000  Uiso   1.00
C469   C     0.02138   0.40310   0.29939   0.00000  Uiso   1.00
C470   C     0.12904   0.37559   0.78730   0.00000  Uiso   1.00
C471   C     0.13269   0.33506   0.84731   0.00000  Uiso   1.00
C472   C     0.10648   0.33220   0.94168   0.00000  Uiso   1.00
C473   C     0.07123   0.31042   0.10072   0.00000  Uiso   1.00
C474   C     0.10151   0.45301   0.74246   0.00000  Uiso   1.00
C475   C     0.15221   0.46735   0.73421   0.00000  Uiso   1.00
C476   C     0.16971   0.51113   0.75607   0.00000  Uiso   1.00
C477   C     0.21710   0.51725   0.74370   0.00000  Uiso   1.00
C478   C     0.08845   0.43384   0.63113   0.00000  Uiso   1.00
C479   C     0.05233   0.44944   0.56634   0.00000  Uiso   1.00
C480   C     0.04605   0.42735   0.46721   0.00000  Uiso   1.00
C481   C     0.10022   0.41196   0.82034   0.00000  Uiso   1.00
C482   C     0.07400   0.40916   0.91462   0.00000  Uiso   1.00
C483   C     0.07761   0.36864   0.97478   0.00000  Uiso   1.00
H484   H     0.17699   0.35773   0.65589   0.00000  Uiso   1.00
H485   H     0.25069   0.40888   0.66318   0.00000  Uiso   1.00
H486   H     0.13333   0.34720   0.47349   0.00000  Uiso   1.00
H487   H     0.15500   0.30692   0.82172   0.00000  Uiso   1.00
H488   H     0.31969   0.48164   0.68579   0.00000  Uiso   1.00
H489   H     0.07222   0.35156   0.28584   0.00000  Uiso   1.00
H490   H     0.11790   0.26663   0.02014   0.00000  Uiso   1.00
H491   H     0.07907   0.48133   0.76819   0.00000  Uiso   1.00
H492   H     0.14740   0.53927   0.78164   0.00000  Uiso   1.00
H493   H     0.03004   0.47759   0.59195   0.00000  Uiso   1.00
H494   H     0.05170   0.43731   0.94017   0.00000  Uiso   1.00
H495   H     0.23585   0.58747   0.78193   0.00000  Uiso   1.00
H496   H     0.98838   0.45739   0.38198   0.00000  Uiso   1.00
H497   H     0.03406   0.37247   0.11628   0.00000  Uiso   1.00
O498   O     0.32448   0.57044   0.74065   0.00000  Uiso   1.00
O499   O     0.99981   0.39978   0.21594   0.00000  Uiso   1.00
O500   O     0.05974   0.28836   0.17932   0.00000  Uiso   1.00
N501   N     0.29058   0.49859   0.70659   0.00000  Uiso   1.00
N502   N     0.05922   0.37698   0.33265   0.00000  Uiso   1.00
N503   N     0.10192   0.29758   0.01915   0.00000  Uiso   1.00
N504   N     0.24547   0.55554   0.75833   0.00000  Uiso   1.00
N505   N     0.01411   0.43393   0.38439   0.00000  Uiso   1.00
N506   N     0.05680   0.35452   0.07088   0.00000  Uiso   1.00
C507   C     0.65456   0.88604   0.18162   0.00000  Uiso   1.00
C508   C     0.68103   0.93098   0.20116   0.00000  Uiso   1.00
C509   C     0.72840   0.93704   0.18876   0.00000  Uiso   1.00
C510   C     0.74597   0.98081   0.21060   0.00000  Uiso   1.00
C511   C     0.79144   0.04505   0.23586   0.00000  Uiso   1.00
C512   C     0.61726   0.89747   0.09809   0.00000  Uiso   1.00
C513   C     0.61103   0.87535   0.99904   0.00000  Uiso   1.00
C514   C     0.57492   0.89091   0.93411   0.00000  Uiso   1.00
C515   C     0.52138   0.90310   0.79939   0.00000  Uiso   1.00
C516   C     0.62904   0.87559   0.28730   0.00000  Uiso   1.00
C517   C     0.63269   0.83506   0.34731   0.00000  Uiso   1.00
C518   C     0.60648   0.83220   0.44168   0.00000  Uiso   1.00
C519   C     0.57123   0.81042   0.60072   0.00000  Uiso   1.00
C520   C     0.60151   0.95301   0.24246   0.00000  Uiso   1.00
C521   C     0.65221   0.96735   0.23421   0.00000  Uiso   1.00
C522   C     0.66971   0.01113   0.25607   0.00000  Uiso   1.00
C523   C     0.71710   0.01725   0.24370   0.00000  Uiso   1.00
C524   C     0.58845   0.93384   0.13113   0.00000  Uiso   1.00
C525   C     0.55233   0.94944   0.06634   0.00000  Uiso   1.00
C526   C     0.54605   0.92735   0.96721   0.00000  Uiso   1.00
C527   C     0.60022   0.91196   0.32034   0.00000  Uiso   1.00
C528   C     0.57400   0.90916   0.41462   0.00000  Uiso   1.00
C529   C     0.57761   0.86864   0.47478   0.00000  Uiso   1.00
H530   H     0.67699   0.85773   0.15589   0.00000  Uiso   1.00
H531   H     0.75069   0.90888   0.16318   0.00000  Uiso   1.00
H532   H     0.63333   0.84720   0.97349   0.00000  Uiso   1.00
H533   H     0.65500   0.80692   0.32172   0.00000  Uiso   1.00
H534   H     0.81969   0.98164   0.18579   0.00000  Uiso   1.00
H535   H     0.57222   0.85156   0.78584   0.00000  Uiso   1.00
H536   H     0.61790   0.76663   0.52014   0.00000  Uiso   1.00
H537   H     0.57907   0.98133   0.26819   0.00000  Uiso   1.00
H538   H     0.64740   0.03927   0.28164   0.00000  Uiso   1.00
H539   H     0.53004   0.97759   0.09195   0.00000  Uiso   1.00
H540   H     0.55170   0.93731   0.44017   0.00000  Uiso   1.00
H541   H     0.73585   0.08747   0.28193   0.00000  Uiso   1.00
H542   H     0.48838   0.95739   0.88198   0.00000  Uiso   1.00
H543   H     0.53406   0.87247   0.61628   0.00000  Uiso   1.00
O544   O     0.82448   0.07044   0.24065   0.00000  Uiso   1.00
O545   O     0.49981   0.89978   0.71594   0.00000  Uiso   1.00
O546   O     0.55974   0.78836   0.67932   0.00000  Uiso   1.00
N547   N     0.79058   0.99859   0.20659   0.00000  Uiso   1.00
N548   N     0.55922   0.87698   0.83265   0.00000  Uiso   1.00
N549   N     0.60192   0.79758   0.51915   0.00000  Uiso   1.00
N550   N     0.74547   0.05554   0.25833   0.00000  Uiso   1.00
N551   N     0.51411   0.93393   0.88439   0.00000  Uiso   1.00
N552   N     0.55680   0.85452   0.57088   0.00000  Uiso   1.00
C553   C     0.38604   0.34544   0.93162   0.00000  Uiso   1.00
C554   C     0.43098   0.31897   0.95116   0.00000  Uiso   1.00
C555   C     0.43704   0.27160   0.93876   0.00000  Uiso   1.00
C556   C     0.48081   0.25403   0.96060   0.00000  Uiso   1.00
C557   C     0.54505   0.20856   0.98586   0.00000  Uiso   1.00
C558   C     0.39747   0.38274   0.84809   0.00000  Uiso   1.00
C559   C     0.37535   0.38897   0.74904   0.00000  Uiso   1.00
C560   C     0.39091   0.42508   0.68411   0.00000  Uiso   1.00
C561   C     0.40310   0.47862   0.54939   0.00000  Uiso   1.00
C562   C     0.37559   0.37096   0.03730   0.00000  Uiso   1.00
C563   C     0.33506   0.36731   0.09731   0.00000  Uiso   1.00
C564   C     0.33220   0.39352   0.19168   0.00000  Uiso   1.00
C565   C     0.31042   0.42877   0.35072   0.00000  Uiso   1.00
C566   C     0.45301   0.39849   0.99246   0.00000  Uiso   1.00
C567   C     0.46735   0.34779   0.98421   0.00000  Uiso   1.00
C568   C     0.51113   0.33029   0.00607   0.00000  Uiso   1.00
C569   C     0.51725   0.28290   0.99370   0.00000  Uiso   1.00
C570   C     0.43384   0.41155   0.88113   0.00000  Uiso   1.00
C571   C     0.44944   0.44767   0.81634   0.00000  Uiso   1.00
C572   C     0.42735   0.45395   0.71721   0.00000  Uiso   1.00
C573   C     0.41196   0.39978   0.07034   0.00000  Uiso   1.00
C574   C     0.40916   0.42600   0.16462   0.00000  Uiso   1.00
C575   C     0.36864   0.42239   0.22478   0.00000  Uiso   1.00
H576   H     0.35773   0.32301   0.90589   0.00000  Uiso   1.00
H577   H     0.40888   0.24931   0.91318   0.00000  Uiso   1.00
H578   H     0.34720   0.36667   0.72349   0.00000  Uiso   1.00
H579   H     0.30692   0.34500   0.07172   0.00000  Uiso   1.00
H580   H     0.48164   0.18031   0.93579   0.00000  Uiso   1.00
H581   H     0.35156   0.42778   0.53584   0.00000  Uiso   1.00
H582   H     0.26663   0.38210   0.27014   0.00000  Uiso   1.00
H583   H     0.48133   0.42093   0.01819   0.00000  Uiso   1.00
H584   H     0.53927   0.35260   0.03164   0.00000  Uiso   1.00
H585   H     0.47759   0.46996   0.84195   0.00000  Uiso   1.00
H586   H     0.43731   0.44830   0.19017   0.00000  Uiso   1.00
H587   H     0.58747   0.26415   0.03193   0.00000  Uiso   1.00
H588   H     0.45739   0.51162   0.63198   0.00000  Uiso   1.00
H589   H     0.37247   0.46594   0.36628   0.00000  Uiso   1.00
O590   O     0.57044   0.17552   0.99065   0.00000  Uiso   1.00
O591   O     0.39978   0.50019   0.46594   0.00000  Uiso   1.00
O592   O     0.28836   0.44026   0.42932   0.00000  Uiso   1.00
N593   N     0.49859   0.20942   0.95659   0.00000  Uiso   1.00
N594   N     0.37698   0.44078   0.58265   0.00000  Uiso   1.00
N595   N     0.29758   0.39808   0.26915   0.00000  Uiso   1.00
N596   N     0.55554   0.25453   0.00833   0.00000  Uiso   1.00
N597   N     0.43393   0.48589   0.63439   0.00000  Uiso   1.00
N598   N     0.35452   0.44320   0.32088   0.00000  Uiso   1.00
C599   C     0.88604   0.84544   0.43162   0.00000  Uiso   1.00
C600   C     0.93098   0.81897   0.45116   0.00000  Uiso   1.00
C601   C     0.93704   0.77160   0.43876   0.00000  Uiso   1.00
C602   C     0.98081   0.75403   0.46060   0.00000  Uiso   1.00
C603   C     0.04505   0.70856   0.48586   0.00000  Uiso   1.00
C604   C     0.89747   0.88274   0.34809   0.00000  Uiso   1.00
C605   C     0.87535   0.88897   0.24904   0.00000  Uiso   1.00
C606   C     0.89091   0.92508   0.18411   0.00000  Uiso   1.00
C607   C     0.90310   0.97862   0.04939   0.00000  Uiso   1.00
C608   C     0.87559   0.87096   0.53730   0.00000  Uiso   1.00
C609   C     0.83506   0.86731   0.59731   0.00000  Uiso   1.00
C610   C     0.83220   0.89352   0.69168   0.00000  Uiso   1.00
C611   C     0.81042   0.92877   0.85072   0.00000  Uiso   1.00
C612   C     0.95301   0.89849   0.49246   0.00000  Uiso   1.00
C613   C     0.96735   0.84779   0.48421   0.00000  Uiso   1.00
C614   C     0.01113   0.83029   0.50607   0.00000  Uiso   1.00
C615   C     0.01725   0.78290   0.49370   0.00000  Uiso   1.00
C616   C     0.93384   0.91155   0.38113   0.00000  Uiso   1.00
C617   C     0.94944   0.94767   0.31634   0.00000  Uiso   1.00
C618   C     0.92735   0.95395   0.21721   0.00000  Uiso   1.00
C619   C     0.91196   0.89978   0.57034   0.00000  Uiso   1.00
C620   C     0.90916   0.92600   0.66462   0.00000  Uiso   1.00
C621   C     0.86864   0.92239   0.72478   0.00000  Uiso   1.00
H622   H     0.85773   0.82301   0.40589   0.00000  Uiso   1.00
H623   H     0.90888   0.74931   0.41318   0.00000  Uiso   1.00
H624   H     0.84720   0.86667   0.22349   0.00000  Uiso   1.00
H625   H     0.80692   0.84500   0.57172   0.00000  Uiso   1.00
H626   H     0.98164   0.68031   0.43579   0.00000  Uiso   1.00
H627   H     0.85156   0.92778   0.03584   0.00000  Uiso   1.00
H628   H     0.76663   0.88210   0.77014   0.00000  Uiso   1.00
H629   H     0.98133   0.92093   0.51819   0.00000  Uiso   1.00
H630   H     0.03927   0.85260   0.53164   0.00000  Uiso   1.00
H631   H     0.97759   0.96996   0.34195   0.00000  Uiso   1.00
H632   H     0.93731   0.94830   0.69017   0.00000  Uiso   1.00
H633   H     0.08747   0.76415   0.53193   0.00000  Uiso   1.00
H634   H     0.95739   0.01162   0.13198   0.00000  Uiso   1.00
H635   H     0.87247   0.96594   0.86628   0.00000  Uiso   1.00
O636   O     0.07044   0.67552   0.49065   0.00000  Uiso   1.00
O637   O     0.89978   0.00019   0.96594   0.00000  Uiso   1.00
O638   O     0.78836   0.94026   0.92932   0.00000  Uiso   1.00
N639   N     0.99859   0.70942   0.45659   0.00000  Uiso   1.00
N640   N     0.87698   0.94078   0.08265   0.00000  Uiso   1.00
N641   N     0.79758   0.89808   0.76915   0.00000  Uiso   1.00
N642   N     0.05554   0.75453   0.50833   0.00000  Uiso   1.00
N643   N     0.93393   0.98589   0.13439   0.00000  Uiso   1.00
N644   N     0.85452   0.94320   0.82088   0.00000  Uiso   1.00
C645   C     0.11396   0.15456   0.43162   0.00000  Uiso   1.00
C646   C     0.06902   0.18103   0.45116   0.00000  Uiso   1.00
C647   C     0.06296   0.22840   0.43876   0.00000  Uiso   1.00
C648   C     0.01919   0.24597   0.46060   0.00000  Uiso   1.00
C649   C     0.95495   0.29144   0.48586   0.00000  Uiso   1.00
C650   C     0.10253   0.11726   0.34809   0.00000  Uiso   1.00
C651   C     0.12465   0.11103   0.24904   0.00000  Uiso   1.00
C652   C     0.10909   0.07492   0.18411   0.00000  Uiso   1.00
C653   C     0.09690   0.02138   0.04939   0.00000  Uiso   1.00
C654   C     0.12441   0.12904   0.53730   0.00000  Uiso   1.00
C655   C     0.16494   0.13269   0.59731   0.00000  Uiso   1.00
C656   C     0.16780   0.10648   0.69168   0.00000  Uiso   1.00
C657   C     0.18958   0.07123   0.85072   0.00000  Uiso   1.00
C658   C     0.04699   0.10151   0.49246   0.00000  Uiso   1.00
C659   C     0.03265   0.15221   0.48421   0.00000  Uiso   1.00
C660   C     0.98887   0.16971   0.50607   0.00000  Uiso   1.00
C661   C     0.98275   0.21710   0.49370   0.00000  Uiso   1.00
C662   C     0.06616   0.08845   0.38113   0.00000  Uiso   1.00
C663   C     0.05056   0.05233   0.31634   0.00000  Uiso   1.00
C664   C     0.07265   0.04605   0.21721   0.00000  Uiso   1.00
C665   C     0.08804   0.10022   0.57034   0.00000  Uiso   1.00
C666   C     0.09084   0.07400   0.66462   0.00000  Uiso   1.00
C667   C     0.13136   0.07761   0.72478   0.00000  Uiso   1.00
H668   H     0.14227   0.17699   0.40589   0.00000  Uiso   1.00
H669   H     0.09112   0.25069   0.41318   0.00000  Uiso   1.00
H670   H     0.15280   0.13333   0.22349   0.00000  Uiso   1.00
H671   H     0.19308   0.15500   0.57172   0.00000  Uiso   1.00
H672   H     0.01836   0.31969   0.43579   0.00000  Uiso   1.00
H673   H     0.14844   0.07222   0.03584   0.00000  Uiso   1.00
H674   H     0.23337   0.11790   0.77014   0.00000  Uiso   1.00
H675   H     0.01867   0.07907   0.51819   0.00000  Uiso   1.00
H676   H     0.96073   0.14740   0.53164   0.00000  Uiso   1.00
H677   H     0.02241   0.03004   0.34195   0.00000  Uiso   1.00
H678   H     0.06269   0.05170   0.69017   0.00000  Uiso   1.00
H679   H     0.91253   0.23585   0.53193   0.00000  Uiso   1.00
H680   H     0.04261   0.98838   0.13198   0.00000  Uiso   1.00
H681   H     0.12753   0.03406   0.86628   0.00000  Uiso   1.00
O682   O     0.92956   0.32448   0.49065   0.00000  Uiso   1.00
O683   O     0.10022   0.99981   0.96594   0.00000  Uiso   1.00
O684   O     0.21164   0.05974   0.92932   0.00000  Uiso   1.00
N685   N     0.00141   0.29058   0.45659   0.00000  Uiso   1.00
N686   N     0.12302   0.05922   0.08265   0.00000  Uiso   1.00
N687   N     0.20242   0.10192   0.76915   0.00000  Uiso   1.00
N688   N     0.94446   0.24547   0.50833   0.00000  Uiso   1.00
N689   N     0.06607   0.01411   0.13439   0.00000  Uiso   1.00
N690   N     0.14548   0.05680   0.82088   0.00000  Uiso   1.00
C691   C     0.61396   0.65456   0.93162   0.00000  Uiso   1.00
C692   C     0.56902   0.68103   0.95116   0.00000  Uiso   1.00
C693   C     0.56296   0.72840   0.93876   0.00000  Uiso   1.00
C694   C     0.51919   0.74597   0.96060   0.00000  Uiso   1.00
C695   C     0.45495   0.79144   0.98586   0.00000  Uiso   1.00
C696   C     0.60253   0.61726   0.84809   0.00000  Uiso   1.00
C697   C     0.62465   0.61103   0.74904   0.00000  Uiso   1.00
C698   C     0.60909   0.57492   0.68411   0.00000  Uiso   1.00
C699   C     0.59690   0.52138   0.54939   0.00000  Uiso   1.00
C700   C     0.62441   0.62904   0.03730   0.00000  Uiso   1.00
C701   C     0.66494   0.63269   0.09731   0.00000  Uiso   1.00
C702   C     0.66780   0.60648   0.19168   0.00000  Uiso   1.00
C703   C     0.68958   0.57123   0.35072   0.00000  Uiso   1.00
C704   C     0.54699   0.60151   0.99246   0.00000  Uiso   1.00
C705   C     0.53265   0.65221   0.98421   0.00000  Uiso   1.00
C706   C     0.48887   0.66971   0.00607   0.00000  Uiso   1.00
C707   C     0.48275   0.71710   0.99370   0.00000  Uiso   1.00
C708   C     0.56616   0.58845   0.88113   0.00000  Uiso   1.00
C709   C     0.55056   0.55233   0.81634   0.00000  Uiso   1.00
C710   C     0.57265   0.54605   0.71721   0.00000  Uiso   1.00
C711   C     0.58804   0.60022   0.07034   0.00000  Uiso   1.00
C712   C     0.59084   0.57400   0.16462   0.00000  Uiso   1.00
C713   C     0.63136   0.57761   0.22478   0.00000  Uiso   1.00
H714   H     0.64227   0.67699   0.90589   0.00000  Uiso   1.00
H715   H     0.59112   0.75069   0.91318   0.00000  Uiso   1.00
H716   H     0.65280   0.63333   0.72349   0.00000  Uiso   1.00
H717   H     0.69308   0.65500   0.07172   0.00000  Uiso   1.00
H718   H     0.51836   0.81969   0.93579   0.00000  Uiso   1.00
H719   H     0.64844   0.57222   0.53584   0.00000  Uiso   1.00
H720   H     0.73337   0.61790   0.27014   0.00000  Uiso   1.00
H721   H     0.51867   0.57907   0.01819   0.00000  Uiso   1.00
H722   H     0.46073   0.64740   0.03164   0.00000  Uiso   1.00
H723   H     0.52241   0.53004   0.84195   0.00000  Uiso   1.00
H724   H     0.56269   0.55170   0.19017   0.00000  Uiso   1.00
H725   H     0.41253   0.73585   0.03193   0.00000  Uiso   1.00
H726   H     0.54261   0.48838   0.63198   0.00000  Uiso   1.00
H727   H     0.62753   0.53406   0.36628   0.00000  Uiso   1.00
O728   O     0.42956   0.82448   0.99065   0.00000  Uiso   1.00
O729   O     0.60022   0.49981   0.46594   0.00000  Uiso   1.00
O730   O     0.71164   0.55974   0.42932   0.00000  Uiso   1.00
N731   N     0.50141   0.79058   0.95659   0.00000  Uiso   1.00
N732   N     0.62302   0.55922   0.58265   0.00000  Uiso   1.00
N733   N     0.70242   0.60192   0.26915   0.00000  Uiso   1.00
N734   N     0.44446   0.74547   0.00833   0.00000  Uiso   1.00
N735   N     0.56607   0.51411   0.63439   0.00000  Uiso   1.00
N736   N     0.64548   0.55680   0.32088   0.00000  Uiso   1.00
