data_job_05827
_audit_creation_date              2018-12-19
_audit_creation_method            'Materials Studio'
_symmetry_space_group_name_H-M    'P1'
_symmetry_Int_Tables_number       1
_symmetry_cell_setting            triclinic
loop_
_symmetry_equiv_pos_as_xyz
  x,y,z
_cell_length_a                    29.0939
_cell_length_b                    29.0939
_cell_length_c                    11.0324
_cell_angle_alpha                 90.0000
_cell_angle_beta                  90.0000
_cell_angle_gamma                 90.0000
loop_
_atom_site_label
_atom_site_type_symbol
_atom_site_fract_x
_atom_site_fract_y
_atom_site_fract_z
_atom_site_U_iso_or_equiv
_atom_site_adp_type
_atom_site_occupancy
C1     C     0.11786   0.55251   0.38169   0.00000  Uiso   1.00
C2     C     0.07685   0.57056   0.45338   0.00000  Uiso   1.00
C3     C     0.03250   0.55306   0.44920   0.00000  Uiso   1.00
C4     C     0.99981   0.57438   0.52162   0.00000  Uiso   1.00
C5     C     0.93439   0.59672   0.62165   0.00000  Uiso   1.00
C6     C     0.13627   0.59333   0.30987   0.00000  Uiso   1.00
C7     C     0.14190   0.59498   0.18502   0.00000  Uiso   1.00
C8     C     0.15924   0.63547   0.13663   0.00000  Uiso   1.00
C9     C     0.18612   0.69316   0.01385   0.00000  Uiso   1.00
C10    C     0.15473   0.54092   0.47506   0.00000  Uiso   1.00
C11    C     0.17589   0.49850   0.48909   0.00000  Uiso   1.00
C12    C     0.20879   0.49487   0.57976   0.00000  Uiso   1.00
C13    C     0.26433   0.47117   0.71347   0.00000  Uiso   1.00
C14    C     0.13867   0.62150   0.51774   0.00000  Uiso   1.00
C15    C     0.08815   0.60803   0.52727   0.00000  Uiso   1.00
C16    C     0.05552   0.62938   0.59972   0.00000  Uiso   1.00
C17    C     0.01113   0.61192   0.59565   0.00000  Uiso   1.00
C18    C     0.14757   0.63080   0.38375   0.00000  Uiso   1.00
C19    C     0.16492   0.67130   0.33554   0.00000  Uiso   1.00
C20    C     0.17057   0.67301   0.21066   0.00000  Uiso   1.00
C21    C     0.16604   0.57839   0.54895   0.00000  Uiso   1.00
C22    C     0.19891   0.57482   0.63961   0.00000  Uiso   1.00
C23    C     0.22011   0.53241   0.65379   0.00000  Uiso   1.00
H24    H     0.10907   0.52334   0.32416   0.00000  Uiso   1.00
H25    H     0.02377   0.52406   0.39199   0.00000  Uiso   1.00
H26    H     0.13315   0.56597   0.12786   0.00000  Uiso   1.00
H27    H     0.16714   0.46951   0.43189   0.00000  Uiso   1.00
H28    H     0.93417   0.54140   0.49976   0.00000  Uiso   1.00
H29    H     0.16484   0.62977   0.94282   0.00000  Uiso   1.00
H30    H     0.23650   0.42635   0.58392   0.00000  Uiso   1.00
H31    H     0.14747   0.65067   0.57527   0.00000  Uiso   1.00
H32    H     0.06428   0.65838   0.65690   0.00000  Uiso   1.00
H33    H     0.17366   0.70029   0.39275   0.00000  Uiso   1.00
H34    H     0.20765   0.60383   0.69678   0.00000  Uiso   1.00
H35    H     0.96705   0.65042   0.71476   0.00000  Uiso   1.00
H36    H     0.19772   0.73879   0.15781   0.00000  Uiso   1.00
H37    H     0.26938   0.53537   0.79891   0.00000  Uiso   1.00
O38    O     0.89519   0.59869   0.65639   0.00000  Uiso   1.00
O39    O     0.19782   0.71462   0.92571   0.00000  Uiso   1.00
O40    O     0.29184   0.44775   0.76682   0.00000  Uiso   1.00
N41    N     0.95333   0.56599   0.53918   0.00000  Uiso   1.00
N42    N     0.16898   0.64861   0.01847   0.00000  Uiso   1.00
N43    N     0.23599   0.45844   0.61782   0.00000  Uiso   1.00
N44    N     0.97102   0.62465   0.65487   0.00000  Uiso   1.00
N45    N     0.18667   0.70728   0.13416   0.00000  Uiso   1.00
N46    N     0.25368   0.51711   0.73351   0.00000  Uiso   1.00
C47    C     0.61786   0.05251   0.88169   0.00000  Uiso   1.00
C48    C     0.57685   0.07056   0.95338   0.00000  Uiso   1.00
C49    C     0.53250   0.05306   0.94920   0.00000  Uiso   1.00
C50    C     0.49981   0.07438   0.02162   0.00000  Uiso   1.00
C51    C     0.43439   0.09672   0.12165   0.00000  Uiso   1.00
C52    C     0.63627   0.09333   0.80987   0.00000  Uiso   1.00
C53    C     0.64190   0.09498   0.68502   0.00000  Uiso   1.00
C54    C     0.65924   0.13547   0.63663   0.00000  Uiso   1.00
C55    C     0.68612   0.19316   0.51385   0.00000  Uiso   1.00
C56    C     0.65473   0.04092   0.97506   0.00000  Uiso   1.00
C57    C     0.67589   0.99850   0.98909   0.00000  Uiso   1.00
C58    C     0.70879   0.99487   0.07976   0.00000  Uiso   1.00
C59    C     0.76433   0.97117   0.21347   0.00000  Uiso   1.00
C60    C     0.63867   0.12150   0.01774   0.00000  Uiso   1.00
C61    C     0.58815   0.10803   0.02727   0.00000  Uiso   1.00
C62    C     0.55552   0.12938   0.09972   0.00000  Uiso   1.00
C63    C     0.51113   0.11192   0.09565   0.00000  Uiso   1.00
C64    C     0.64757   0.13080   0.88375   0.00000  Uiso   1.00
C65    C     0.66492   0.17130   0.83554   0.00000  Uiso   1.00
C66    C     0.67057   0.17301   0.71066   0.00000  Uiso   1.00
C67    C     0.66604   0.07839   0.04895   0.00000  Uiso   1.00
C68    C     0.69891   0.07482   0.13961   0.00000  Uiso   1.00
C69    C     0.72011   0.03241   0.15379   0.00000  Uiso   1.00
H70    H     0.60907   0.02334   0.82416   0.00000  Uiso   1.00
H71    H     0.52377   0.02406   0.89199   0.00000  Uiso   1.00
H72    H     0.63315   0.06597   0.62786   0.00000  Uiso   1.00
H73    H     0.66714   0.96951   0.93189   0.00000  Uiso   1.00
H74    H     0.43417   0.04140   0.99976   0.00000  Uiso   1.00
H75    H     0.66484   0.12977   0.44282   0.00000  Uiso   1.00
H76    H     0.73650   0.92635   0.08392   0.00000  Uiso   1.00
H77    H     0.64747   0.15067   0.07527   0.00000  Uiso   1.00
H78    H     0.56428   0.15838   0.15690   0.00000  Uiso   1.00
H79    H     0.67366   0.20029   0.89275   0.00000  Uiso   1.00
H80    H     0.70765   0.10383   0.19678   0.00000  Uiso   1.00
H81    H     0.46705   0.15042   0.21476   0.00000  Uiso   1.00
H82    H     0.69772   0.23879   0.65781   0.00000  Uiso   1.00
H83    H     0.76938   0.03537   0.29891   0.00000  Uiso   1.00
O84    O     0.39519   0.09869   0.15639   0.00000  Uiso   1.00
O85    O     0.69782   0.21462   0.42571   0.00000  Uiso   1.00
O86    O     0.79184   0.94775   0.26682   0.00000  Uiso   1.00
N87    N     0.45333   0.06599   0.03918   0.00000  Uiso   1.00
N88    N     0.66898   0.14861   0.51847   0.00000  Uiso   1.00
N89    N     0.73599   0.95844   0.11782   0.00000  Uiso   1.00
N90    N     0.47102   0.12465   0.15487   0.00000  Uiso   1.00
N91    N     0.68667   0.20728   0.63416   0.00000  Uiso   1.00
N92    N     0.75368   0.01711   0.23351   0.00000  Uiso   1.00
C93    C     0.38214   0.94749   0.88169   0.00000  Uiso   1.00
C94    C     0.42315   0.92944   0.95338   0.00000  Uiso   1.00
C95    C     0.46750   0.94694   0.94920   0.00000  Uiso   1.00
C96    C     0.50019   0.92562   0.02162   0.00000  Uiso   1.00
C97    C     0.56561   0.90328   0.12165   0.00000  Uiso   1.00
C98    C     0.36373   0.90667   0.80987   0.00000  Uiso   1.00
C99    C     0.35810   0.90502   0.68502   0.00000  Uiso   1.00
C100   C     0.34076   0.86453   0.63663   0.00000  Uiso   1.00
C101   C     0.31388   0.80684   0.51385   0.00000  Uiso   1.00
C102   C     0.34527   0.95908   0.97506   0.00000  Uiso   1.00
C103   C     0.32411   0.00150   0.98909   0.00000  Uiso   1.00
C104   C     0.29121   0.00513   0.07976   0.00000  Uiso   1.00
C105   C     0.23567   0.02883   0.21347   0.00000  Uiso   1.00
C106   C     0.36133   0.87850   0.01774   0.00000  Uiso   1.00
C107   C     0.41185   0.89197   0.02727   0.00000  Uiso   1.00
C108   C     0.44448   0.87062   0.09972   0.00000  Uiso   1.00
C109   C     0.48887   0.88808   0.09565   0.00000  Uiso   1.00
C110   C     0.35243   0.86920   0.88375   0.00000  Uiso   1.00
C111   C     0.33508   0.82870   0.83554   0.00000  Uiso   1.00
C112   C     0.32943   0.82699   0.71066   0.00000  Uiso   1.00
C113   C     0.33396   0.92161   0.04895   0.00000  Uiso   1.00
C114   C     0.30109   0.92518   0.13961   0.00000  Uiso   1.00
C115   C     0.27989   0.96759   0.15379   0.00000  Uiso   1.00
H116   H     0.39093   0.97666   0.82416   0.00000  Uiso   1.00
H117   H     0.47623   0.97594   0.89199   0.00000  Uiso   1.00
H118   H     0.36685   0.93403   0.62786   0.00000  Uiso   1.00
H119   H     0.33286   0.03049   0.93189   0.00000  Uiso   1.00
H120   H     0.56583   0.95860   0.99976   0.00000  Uiso   1.00
H121   H     0.33516   0.87023   0.44282   0.00000  Uiso   1.00
H122   H     0.26350   0.07365   0.08392   0.00000  Uiso   1.00
H123   H     0.35253   0.84933   0.07527   0.00000  Uiso   1.00
H124   H     0.43572   0.84162   0.15690   0.00000  Uiso   1.00
H125   H     0.32634   0.79971   0.89275   0.00000  Uiso   1.00
H126   H     0.29235   0.89617   0.19678   0.00000  Uiso   1.00
H127   H     0.53295   0.84958   0.21476   0.00000  Uiso   1.00
H128   H     0.30228   0.76121   0.65781   0.00000  Uiso   1.00
H129   H     0.23062   0.96463   0.29891   0.00000  Uiso   1.00
O130   O     0.60481   0.90131   0.15639   0.00000  Uiso   1.00
O131   O     0.30218   0.78538   0.42571   0.00000  Uiso   1.00
O132   O     0.20816   0.05225   0.26682   0.00000  Uiso   1.00
N133   N     0.54667   0.93401   0.03918   0.00000  Uiso   1.00
N134   N     0.33102   0.85139   0.51847   0.00000  Uiso   1.00
N135   N     0.26401   0.04156   0.11782   0.00000  Uiso   1.00
N136   N     0.52898   0.87535   0.15487   0.00000  Uiso   1.00
N137   N     0.31333   0.79272   0.63416   0.00000  Uiso   1.00
N138   N     0.24632   0.98289   0.23351   0.00000  Uiso   1.00
C139   C     0.88214   0.44749   0.38169   0.00000  Uiso   1.00
C140   C     0.92315   0.42944   0.45338   0.00000  Uiso   1.00
C141   C     0.96750   0.44694   0.44920   0.00000  Uiso   1.00
C142   C     0.00019   0.42562   0.52162   0.00000  Uiso   1.00
C143   C     0.06561   0.40328   0.62165   0.00000  Uiso   1.00
C144   C     0.86373   0.40667   0.30987   0.00000  Uiso   1.00
C145   C     0.85810   0.40502   0.18502   0.00000  Uiso   1.00
C146   C     0.84076   0.36453   0.13663   0.00000  Uiso   1.00
C147   C     0.81388   0.30684   0.01385   0.00000  Uiso   1.00
C148   C     0.84527   0.45908   0.47506   0.00000  Uiso   1.00
C149   C     0.82411   0.50150   0.48909   0.00000  Uiso   1.00
C150   C     0.79121   0.50513   0.57976   0.00000  Uiso   1.00
C151   C     0.73567   0.52883   0.71347   0.00000  Uiso   1.00
C152   C     0.86133   0.37850   0.51774   0.00000  Uiso   1.00
C153   C     0.91185   0.39197   0.52727   0.00000  Uiso   1.00
C154   C     0.94448   0.37062   0.59972   0.00000  Uiso   1.00
C155   C     0.98887   0.38808   0.59565   0.00000  Uiso   1.00
C156   C     0.85243   0.36920   0.38375   0.00000  Uiso   1.00
C157   C     0.83508   0.32870   0.33554   0.00000  Uiso   1.00
C158   C     0.82943   0.32699   0.21066   0.00000  Uiso   1.00
C159   C     0.83396   0.42161   0.54895   0.00000  Uiso   1.00
C160   C     0.80109   0.42518   0.63961   0.00000  Uiso   1.00
C161   C     0.77989   0.46759   0.65379   0.00000  Uiso   1.00
H162   H     0.89093   0.47666   0.32416   0.00000  Uiso   1.00
H163   H     0.97623   0.47594   0.39199   0.00000  Uiso   1.00
H164   H     0.86685   0.43403   0.12786   0.00000  Uiso   1.00
H165   H     0.83286   0.53049   0.43189   0.00000  Uiso   1.00
H166   H     0.06583   0.45860   0.49976   0.00000  Uiso   1.00
H167   H     0.83516   0.37023   0.94282   0.00000  Uiso   1.00
H168   H     0.76350   0.57365   0.58392   0.00000  Uiso   1.00
H169   H     0.85253   0.34933   0.57527   0.00000  Uiso   1.00
H170   H     0.93572   0.34162   0.65690   0.00000  Uiso   1.00
H171   H     0.82634   0.29971   0.39275   0.00000  Uiso   1.00
H172   H     0.79235   0.39617   0.69678   0.00000  Uiso   1.00
H173   H     0.03295   0.34958   0.71476   0.00000  Uiso   1.00
H174   H     0.80228   0.26121   0.15781   0.00000  Uiso   1.00
H175   H     0.73062   0.46463   0.79891   0.00000  Uiso   1.00
O176   O     0.10481   0.40131   0.65639   0.00000  Uiso   1.00
O177   O     0.80218   0.28538   0.92571   0.00000  Uiso   1.00
O178   O     0.70816   0.55225   0.76682   0.00000  Uiso   1.00
N179   N     0.04667   0.43401   0.53918   0.00000  Uiso   1.00
N180   N     0.83102   0.35139   0.01847   0.00000  Uiso   1.00
N181   N     0.76401   0.54156   0.61782   0.00000  Uiso   1.00
N182   N     0.02898   0.37535   0.65487   0.00000  Uiso   1.00
N183   N     0.81333   0.29272   0.13416   0.00000  Uiso   1.00
N184   N     0.74632   0.48289   0.73351   0.00000  Uiso   1.00
C185   C     0.44749   0.61786   0.63169   0.00000  Uiso   1.00
C186   C     0.42944   0.57685   0.70338   0.00000  Uiso   1.00
C187   C     0.44694   0.53250   0.69920   0.00000  Uiso   1.00
C188   C     0.42562   0.49981   0.77162   0.00000  Uiso   1.00
C189   C     0.40328   0.43439   0.87165   0.00000  Uiso   1.00
C190   C     0.40667   0.63627   0.55987   0.00000  Uiso   1.00
C191   C     0.40502   0.64190   0.43502   0.00000  Uiso   1.00
C192   C     0.36453   0.65924   0.38663   0.00000  Uiso   1.00
C193   C     0.30684   0.68612   0.26385   0.00000  Uiso   1.00
C194   C     0.45908   0.65473   0.72506   0.00000  Uiso   1.00
C195   C     0.50150   0.67589   0.73909   0.00000  Uiso   1.00
C196   C     0.50513   0.70879   0.82976   0.00000  Uiso   1.00
C197   C     0.52883   0.76433   0.96347   0.00000  Uiso   1.00
C198   C     0.37850   0.63867   0.76774   0.00000  Uiso   1.00
C199   C     0.39197   0.58815   0.77727   0.00000  Uiso   1.00
C200   C     0.37062   0.55552   0.84972   0.00000  Uiso   1.00
C201   C     0.38808   0.51113   0.84565   0.00000  Uiso   1.00
C202   C     0.36920   0.64757   0.63375   0.00000  Uiso   1.00
C203   C     0.32870   0.66492   0.58554   0.00000  Uiso   1.00
C204   C     0.32699   0.67057   0.46066   0.00000  Uiso   1.00
C205   C     0.42161   0.66604   0.79895   0.00000  Uiso   1.00
C206   C     0.42518   0.69891   0.88961   0.00000  Uiso   1.00
C207   C     0.46759   0.72011   0.90379   0.00000  Uiso   1.00
H208   H     0.47666   0.60907   0.57416   0.00000  Uiso   1.00
H209   H     0.47594   0.52377   0.64199   0.00000  Uiso   1.00
H210   H     0.43403   0.63315   0.37786   0.00000  Uiso   1.00
H211   H     0.53049   0.66714   0.68189   0.00000  Uiso   1.00
H212   H     0.45860   0.43417   0.74976   0.00000  Uiso   1.00
H213   H     0.37023   0.66484   0.19282   0.00000  Uiso   1.00
H214   H     0.57365   0.73650   0.83392   0.00000  Uiso   1.00
H215   H     0.34933   0.64747   0.82527   0.00000  Uiso   1.00
H216   H     0.34162   0.56428   0.90690   0.00000  Uiso   1.00
H217   H     0.29971   0.67366   0.64275   0.00000  Uiso   1.00
H218   H     0.39617   0.70765   0.94678   0.00000  Uiso   1.00
H219   H     0.34958   0.46705   0.96476   0.00000  Uiso   1.00
H220   H     0.26121   0.69772   0.40781   0.00000  Uiso   1.00
H221   H     0.46463   0.76938   0.04891   0.00000  Uiso   1.00
O222   O     0.40131   0.39519   0.90639   0.00000  Uiso   1.00
O223   O     0.28538   0.69782   0.17571   0.00000  Uiso   1.00
O224   O     0.55225   0.79184   0.01682   0.00000  Uiso   1.00
N225   N     0.43401   0.45333   0.78918   0.00000  Uiso   1.00
N226   N     0.35139   0.66898   0.26847   0.00000  Uiso   1.00
N227   N     0.54156   0.73599   0.86782   0.00000  Uiso   1.00
N228   N     0.37535   0.47102   0.90487   0.00000  Uiso   1.00
N229   N     0.29272   0.68667   0.38416   0.00000  Uiso   1.00
N230   N     0.48289   0.75368   0.98351   0.00000  Uiso   1.00
C231   C     0.94749   0.11786   0.13169   0.00000  Uiso   1.00
C232   C     0.92944   0.07685   0.20338   0.00000  Uiso   1.00
C233   C     0.94694   0.03250   0.19920   0.00000  Uiso   1.00
C234   C     0.92562   0.99981   0.27162   0.00000  Uiso   1.00
C235   C     0.90328   0.93439   0.37165   0.00000  Uiso   1.00
C236   C     0.90667   0.13627   0.05987   0.00000  Uiso   1.00
C237   C     0.90502   0.14190   0.93502   0.00000  Uiso   1.00
C238   C     0.86453   0.15924   0.88663   0.00000  Uiso   1.00
C239   C     0.80684   0.18612   0.76385   0.00000  Uiso   1.00
C240   C     0.95908   0.15473   0.22506   0.00000  Uiso   1.00
C241   C     0.00150   0.17589   0.23909   0.00000  Uiso   1.00
C242   C     0.00513   0.20879   0.32976   0.00000  Uiso   1.00
C243   C     0.02883   0.26433   0.46347   0.00000  Uiso   1.00
C244   C     0.87850   0.13867   0.26774   0.00000  Uiso   1.00
C245   C     0.89197   0.08815   0.27727   0.00000  Uiso   1.00
C246   C     0.87062   0.05552   0.34972   0.00000  Uiso   1.00
C247   C     0.88808   0.01113   0.34565   0.00000  Uiso   1.00
C248   C     0.86920   0.14757   0.13375   0.00000  Uiso   1.00
C249   C     0.82870   0.16492   0.08554   0.00000  Uiso   1.00
C250   C     0.82699   0.17057   0.96066   0.00000  Uiso   1.00
C251   C     0.92161   0.16604   0.29895   0.00000  Uiso   1.00
C252   C     0.92518   0.19891   0.38961   0.00000  Uiso   1.00
C253   C     0.96759   0.22011   0.40379   0.00000  Uiso   1.00
H254   H     0.97666   0.10907   0.07416   0.00000  Uiso   1.00
H255   H     0.97594   0.02377   0.14199   0.00000  Uiso   1.00
H256   H     0.93403   0.13315   0.87786   0.00000  Uiso   1.00
H257   H     0.03049   0.16714   0.18189   0.00000  Uiso   1.00
H258   H     0.95860   0.93417   0.24976   0.00000  Uiso   1.00
H259   H     0.87023   0.16484   0.69282   0.00000  Uiso   1.00
H260   H     0.07365   0.23650   0.33392   0.00000  Uiso   1.00
H261   H     0.84933   0.14747   0.32527   0.00000  Uiso   1.00
H262   H     0.84162   0.06428   0.40690   0.00000  Uiso   1.00
H263   H     0.79971   0.17366   0.14275   0.00000  Uiso   1.00
H264   H     0.89617   0.20765   0.44678   0.00000  Uiso   1.00
H265   H     0.84958   0.96705   0.46476   0.00000  Uiso   1.00
H266   H     0.76121   0.19772   0.90781   0.00000  Uiso   1.00
H267   H     0.96463   0.26938   0.54891   0.00000  Uiso   1.00
O268   O     0.90131   0.89519   0.40639   0.00000  Uiso   1.00
O269   O     0.78538   0.19782   0.67571   0.00000  Uiso   1.00
O270   O     0.05225   0.29184   0.51682   0.00000  Uiso   1.00
N271   N     0.93401   0.95333   0.28918   0.00000  Uiso   1.00
N272   N     0.85139   0.16898   0.76847   0.00000  Uiso   1.00
N273   N     0.04156   0.23599   0.36782   0.00000  Uiso   1.00
N274   N     0.87535   0.97102   0.40487   0.00000  Uiso   1.00
N275   N     0.79272   0.18667   0.88416   0.00000  Uiso   1.00
N276   N     0.98289   0.25368   0.48351   0.00000  Uiso   1.00
C277   C     0.05251   0.88214   0.13169   0.00000  Uiso   1.00
C278   C     0.07056   0.92315   0.20338   0.00000  Uiso   1.00
C279   C     0.05306   0.96750   0.19920   0.00000  Uiso   1.00
C280   C     0.07438   0.00019   0.27162   0.00000  Uiso   1.00
C281   C     0.09672   0.06561   0.37165   0.00000  Uiso   1.00
C282   C     0.09333   0.86373   0.05987   0.00000  Uiso   1.00
C283   C     0.09498   0.85810   0.93502   0.00000  Uiso   1.00
C284   C     0.13547   0.84076   0.88663   0.00000  Uiso   1.00
C285   C     0.19316   0.81388   0.76385   0.00000  Uiso   1.00
C286   C     0.04092   0.84527   0.22506   0.00000  Uiso   1.00
C287   C     0.99850   0.82411   0.23909   0.00000  Uiso   1.00
C288   C     0.99487   0.79121   0.32976   0.00000  Uiso   1.00
C289   C     0.97117   0.73567   0.46347   0.00000  Uiso   1.00
C290   C     0.12150   0.86133   0.26774   0.00000  Uiso   1.00
C291   C     0.10803   0.91185   0.27727   0.00000  Uiso   1.00
C292   C     0.12938   0.94448   0.34972   0.00000  Uiso   1.00
C293   C     0.11192   0.98887   0.34565   0.00000  Uiso   1.00
C294   C     0.13080   0.85243   0.13375   0.00000  Uiso   1.00
C295   C     0.17130   0.83508   0.08554   0.00000  Uiso   1.00
C296   C     0.17301   0.82943   0.96066   0.00000  Uiso   1.00
C297   C     0.07839   0.83396   0.29895   0.00000  Uiso   1.00
C298   C     0.07482   0.80109   0.38961   0.00000  Uiso   1.00
C299   C     0.03241   0.77989   0.40379   0.00000  Uiso   1.00
H300   H     0.02334   0.89093   0.07416   0.00000  Uiso   1.00
H301   H     0.02406   0.97623   0.14199   0.00000  Uiso   1.00
H302   H     0.06597   0.86685   0.87786   0.00000  Uiso   1.00
H303   H     0.96951   0.83286   0.18189   0.00000  Uiso   1.00
H304   H     0.04140   0.06583   0.24976   0.00000  Uiso   1.00
H305   H     0.12977   0.83516   0.69282   0.00000  Uiso   1.00
H306   H     0.92635   0.76350   0.33392   0.00000  Uiso   1.00
H307   H     0.15067   0.85253   0.32527   0.00000  Uiso   1.00
H308   H     0.15838   0.93572   0.40690   0.00000  Uiso   1.00
H309   H     0.20029   0.82634   0.14275   0.00000  Uiso   1.00
H310   H     0.10383   0.79235   0.44678   0.00000  Uiso   1.00
H311   H     0.15042   0.03295   0.46476   0.00000  Uiso   1.00
H312   H     0.23879   0.80228   0.90781   0.00000  Uiso   1.00
H313   H     0.03537   0.73062   0.54891   0.00000  Uiso   1.00
O314   O     0.09869   0.10481   0.40639   0.00000  Uiso   1.00
O315   O     0.21462   0.80218   0.67571   0.00000  Uiso   1.00
O316   O     0.94775   0.70816   0.51682   0.00000  Uiso   1.00
N317   N     0.06599   0.04667   0.28918   0.00000  Uiso   1.00
N318   N     0.14861   0.83102   0.76847   0.00000  Uiso   1.00
N319   N     0.95844   0.76401   0.36782   0.00000  Uiso   1.00
N320   N     0.12465   0.02898   0.40487   0.00000  Uiso   1.00
N321   N     0.20728   0.81333   0.88416   0.00000  Uiso   1.00
N322   N     0.01711   0.74632   0.48351   0.00000  Uiso   1.00
C323   C     0.55251   0.38214   0.63169   0.00000  Uiso   1.00
C324   C     0.57056   0.42315   0.70338   0.00000  Uiso   1.00
C325   C     0.55306   0.46750   0.69920   0.00000  Uiso   1.00
C326   C     0.57438   0.50019   0.77162   0.00000  Uiso   1.00
C327   C     0.59672   0.56561   0.87165   0.00000  Uiso   1.00
C328   C     0.59333   0.36373   0.55987   0.00000  Uiso   1.00
C329   C     0.59498   0.35810   0.43502   0.00000  Uiso   1.00
C330   C     0.63547   0.34076   0.38663   0.00000  Uiso   1.00
C331   C     0.69316   0.31388   0.26385   0.00000  Uiso   1.00
C332   C     0.54092   0.34527   0.72506   0.00000  Uiso   1.00
C333   C     0.49850   0.32411   0.73909   0.00000  Uiso   1.00
C334   C     0.49487   0.29121   0.82976   0.00000  Uiso   1.00
C335   C     0.47117   0.23567   0.96347   0.00000  Uiso   1.00
C336   C     0.62150   0.36133   0.76774   0.00000  Uiso   1.00
C337   C     0.60803   0.41185   0.77727   0.00000  Uiso   1.00
C338   C     0.62938   0.44448   0.84972   0.00000  Uiso   1.00
C339   C     0.61192   0.48887   0.84565   0.00000  Uiso   1.00
C340   C     0.63080   0.35243   0.63375   0.00000  Uiso   1.00
C341   C     0.67130   0.33508   0.58554   0.00000  Uiso   1.00
C342   C     0.67301   0.32943   0.46066   0.00000  Uiso   1.00
C343   C     0.57839   0.33396   0.79895   0.00000  Uiso   1.00
C344   C     0.57482   0.30109   0.88961   0.00000  Uiso   1.00
C345   C     0.53241   0.27989   0.90379   0.00000  Uiso   1.00
H346   H     0.52334   0.39093   0.57416   0.00000  Uiso   1.00
H347   H     0.52406   0.47623   0.64199   0.00000  Uiso   1.00
H348   H     0.56597   0.36685   0.37786   0.00000  Uiso   1.00
H349   H     0.46951   0.33286   0.68189   0.00000  Uiso   1.00
H350   H     0.54140   0.56583   0.74976   0.00000  Uiso   1.00
H351   H     0.62977   0.33516   0.19282   0.00000  Uiso   1.00
H352   H     0.42635   0.26350   0.83392   0.00000  Uiso   1.00
H353   H     0.65067   0.35253   0.82527   0.00000  Uiso   1.00
H354   H     0.65838   0.43572   0.90690   0.00000  Uiso   1.00
H355   H     0.70029   0.32634   0.64275   0.00000  Uiso   1.00
H356   H     0.60383   0.29235   0.94678   0.00000  Uiso   1.00
H357   H     0.65042   0.53295   0.96476   0.00000  Uiso   1.00
H358   H     0.73879   0.30228   0.40781   0.00000  Uiso   1.00
H359   H     0.53537   0.23062   0.04891   0.00000  Uiso   1.00
O360   O     0.59869   0.60481   0.90639   0.00000  Uiso   1.00
O361   O     0.71462   0.30218   0.17571   0.00000  Uiso   1.00
O362   O     0.44775   0.20816   0.01682   0.00000  Uiso   1.00
N363   N     0.56599   0.54667   0.78918   0.00000  Uiso   1.00
N364   N     0.64861   0.33102   0.26847   0.00000  Uiso   1.00
N365   N     0.45844   0.26401   0.86782   0.00000  Uiso   1.00
N366   N     0.62465   0.52898   0.90487   0.00000  Uiso   1.00
N367   N     0.70728   0.31333   0.38416   0.00000  Uiso   1.00
N368   N     0.51711   0.24632   0.98351   0.00000  Uiso   1.00
C369   C     0.88214   0.94749   0.86831   0.00000  Uiso   1.00
C370   C     0.92315   0.92944   0.79662   0.00000  Uiso   1.00
C371   C     0.96750   0.94694   0.80080   0.00000  Uiso   1.00
C372   C     0.00019   0.92562   0.72838   0.00000  Uiso   1.00
C373   C     0.06561   0.90328   0.62835   0.00000  Uiso   1.00
C374   C     0.86373   0.90667   0.94013   0.00000  Uiso   1.00
C375   C     0.85810   0.90502   0.06498   0.00000  Uiso   1.00
C376   C     0.84076   0.86453   0.11337   0.00000  Uiso   1.00
C377   C     0.81388   0.80684   0.23615   0.00000  Uiso   1.00
C378   C     0.84527   0.95908   0.77494   0.00000  Uiso   1.00
C379   C     0.82411   0.00150   0.76091   0.00000  Uiso   1.00
C380   C     0.79121   0.00513   0.67024   0.00000  Uiso   1.00
C381   C     0.73567   0.02883   0.53653   0.00000  Uiso   1.00
C382   C     0.86133   0.87850   0.73226   0.00000  Uiso   1.00
C383   C     0.91185   0.89197   0.72273   0.00000  Uiso   1.00
C384   C     0.94448   0.87062   0.65028   0.00000  Uiso   1.00
C385   C     0.98887   0.88808   0.65435   0.00000  Uiso   1.00
C386   C     0.85243   0.86920   0.86625   0.00000  Uiso   1.00
C387   C     0.83508   0.82870   0.91446   0.00000  Uiso   1.00
C388   C     0.82943   0.82699   0.03934   0.00000  Uiso   1.00
C389   C     0.83396   0.92161   0.70105   0.00000  Uiso   1.00
C390   C     0.80109   0.92518   0.61039   0.00000  Uiso   1.00
C391   C     0.77989   0.96759   0.59621   0.00000  Uiso   1.00
H392   H     0.89093   0.97666   0.92584   0.00000  Uiso   1.00
H393   H     0.97623   0.97594   0.85801   0.00000  Uiso   1.00
H394   H     0.86685   0.93403   0.12214   0.00000  Uiso   1.00
H395   H     0.83286   0.03049   0.81811   0.00000  Uiso   1.00
H396   H     0.06583   0.95860   0.75024   0.00000  Uiso   1.00
H397   H     0.83516   0.87023   0.30718   0.00000  Uiso   1.00
H398   H     0.76350   0.07365   0.66608   0.00000  Uiso   1.00
H399   H     0.85253   0.84933   0.67473   0.00000  Uiso   1.00
H400   H     0.93572   0.84162   0.59310   0.00000  Uiso   1.00
H401   H     0.82634   0.79971   0.85725   0.00000  Uiso   1.00
H402   H     0.79235   0.89617   0.55322   0.00000  Uiso   1.00
H403   H     0.03295   0.84958   0.53524   0.00000  Uiso   1.00
H404   H     0.80228   0.76121   0.09219   0.00000  Uiso   1.00
H405   H     0.73062   0.96463   0.45109   0.00000  Uiso   1.00
O406   O     0.10481   0.90131   0.59361   0.00000  Uiso   1.00
O407   O     0.80218   0.78538   0.32429   0.00000  Uiso   1.00
O408   O     0.70816   0.05225   0.48318   0.00000  Uiso   1.00
N409   N     0.04667   0.93401   0.71082   0.00000  Uiso   1.00
N410   N     0.83102   0.85139   0.23153   0.00000  Uiso   1.00
N411   N     0.76401   0.04156   0.63218   0.00000  Uiso   1.00
N412   N     0.02898   0.87535   0.59513   0.00000  Uiso   1.00
N413   N     0.81333   0.79272   0.11584   0.00000  Uiso   1.00
N414   N     0.74632   0.98289   0.51649   0.00000  Uiso   1.00
C415   C     0.38214   0.44749   0.36831   0.00000  Uiso   1.00
C416   C     0.42315   0.42944   0.29662   0.00000  Uiso   1.00
C417   C     0.46750   0.44694   0.30080   0.00000  Uiso   1.00
C418   C     0.50019   0.42562   0.22838   0.00000  Uiso   1.00
C419   C     0.56561   0.40328   0.12835   0.00000  Uiso   1.00
C420   C     0.36373   0.40667   0.44013   0.00000  Uiso   1.00
C421   C     0.35810   0.40502   0.56498   0.00000  Uiso   1.00
C422   C     0.34076   0.36453   0.61337   0.00000  Uiso   1.00
C423   C     0.31388   0.30684   0.73615   0.00000  Uiso   1.00
C424   C     0.34527   0.45908   0.27494   0.00000  Uiso   1.00
C425   C     0.32411   0.50150   0.26091   0.00000  Uiso   1.00
C426   C     0.29121   0.50513   0.17024   0.00000  Uiso   1.00
C427   C     0.23567   0.52883   0.03653   0.00000  Uiso   1.00
C428   C     0.36133   0.37850   0.23226   0.00000  Uiso   1.00
C429   C     0.41185   0.39197   0.22273   0.00000  Uiso   1.00
C430   C     0.44448   0.37062   0.15028   0.00000  Uiso   1.00
C431   C     0.48887   0.38808   0.15435   0.00000  Uiso   1.00
C432   C     0.35243   0.36920   0.36625   0.00000  Uiso   1.00
C433   C     0.33508   0.32870   0.41446   0.00000  Uiso   1.00
C434   C     0.32943   0.32699   0.53934   0.00000  Uiso   1.00
C435   C     0.33396   0.42161   0.20105   0.00000  Uiso   1.00
C436   C     0.30109   0.42518   0.11039   0.00000  Uiso   1.00
C437   C     0.27989   0.46759   0.09621   0.00000  Uiso   1.00
H438   H     0.39093   0.47666   0.42584   0.00000  Uiso   1.00
H439   H     0.47623   0.47594   0.35801   0.00000  Uiso   1.00
H440   H     0.36685   0.43403   0.62214   0.00000  Uiso   1.00
H441   H     0.33286   0.53049   0.31811   0.00000  Uiso   1.00
H442   H     0.56583   0.45860   0.25024   0.00000  Uiso   1.00
H443   H     0.33516   0.37023   0.80718   0.00000  Uiso   1.00
H444   H     0.26350   0.57365   0.16608   0.00000  Uiso   1.00
H445   H     0.35253   0.34933   0.17473   0.00000  Uiso   1.00
H446   H     0.43572   0.34162   0.09310   0.00000  Uiso   1.00
H447   H     0.32634   0.29971   0.35725   0.00000  Uiso   1.00
H448   H     0.29235   0.39617   0.05322   0.00000  Uiso   1.00
H449   H     0.53295   0.34958   0.03524   0.00000  Uiso   1.00
H450   H     0.30228   0.26121   0.59219   0.00000  Uiso   1.00
H451   H     0.23062   0.46463   0.95109   0.00000  Uiso   1.00
O452   O     0.60481   0.40131   0.09361   0.00000  Uiso   1.00
O453   O     0.30218   0.28538   0.82429   0.00000  Uiso   1.00
O454   O     0.20816   0.55225   0.98318   0.00000  Uiso   1.00
N455   N     0.54667   0.43401   0.21082   0.00000  Uiso   1.00
N456   N     0.33102   0.35139   0.73153   0.00000  Uiso   1.00
N457   N     0.26401   0.54156   0.13218   0.00000  Uiso   1.00
N458   N     0.52898   0.37535   0.09513   0.00000  Uiso   1.00
N459   N     0.31333   0.29272   0.61584   0.00000  Uiso   1.00
N460   N     0.24632   0.48289   0.01649   0.00000  Uiso   1.00
C461   C     0.61786   0.55251   0.36831   0.00000  Uiso   1.00
C462   C     0.57685   0.57056   0.29662   0.00000  Uiso   1.00
C463   C     0.53250   0.55306   0.30080   0.00000  Uiso   1.00
C464   C     0.49981   0.57438   0.22838   0.00000  Uiso   1.00
C465   C     0.43439   0.59672   0.12835   0.00000  Uiso   1.00
C466   C     0.63627   0.59333   0.44013   0.00000  Uiso   1.00
C467   C     0.64190   0.59498   0.56498   0.00000  Uiso   1.00
C468   C     0.65924   0.63547   0.61337   0.00000  Uiso   1.00
C469   C     0.68612   0.69316   0.73615   0.00000  Uiso   1.00
C470   C     0.65473   0.54092   0.27494   0.00000  Uiso   1.00
C471   C     0.67589   0.49850   0.26091   0.00000  Uiso   1.00
C472   C     0.70879   0.49487   0.17024   0.00000  Uiso   1.00
C473   C     0.76433   0.47117   0.03653   0.00000  Uiso   1.00
C474   C     0.63867   0.62150   0.23226   0.00000  Uiso   1.00
C475   C     0.58815   0.60803   0.22273   0.00000  Uiso   1.00
C476   C     0.55552   0.62938   0.15028   0.00000  Uiso   1.00
C477   C     0.51113   0.61192   0.15435   0.00000  Uiso   1.00
C478   C     0.64757   0.63080   0.36625   0.00000  Uiso   1.00
C479   C     0.66492   0.67130   0.41446   0.00000  Uiso   1.00
C480   C     0.67057   0.67301   0.53934   0.00000  Uiso   1.00
C481   C     0.66604   0.57839   0.20105   0.00000  Uiso   1.00
C482   C     0.69891   0.57482   0.11039   0.00000  Uiso   1.00
C483   C     0.72011   0.53241   0.09621   0.00000  Uiso   1.00
H484   H     0.60907   0.52334   0.42584   0.00000  Uiso   1.00
H485   H     0.52377   0.52406   0.35801   0.00000  Uiso   1.00
H486   H     0.63315   0.56597   0.62214   0.00000  Uiso   1.00
H487   H     0.66714   0.46951   0.31811   0.00000  Uiso   1.00
H488   H     0.43417   0.54140   0.25024   0.00000  Uiso   1.00
H489   H     0.66484   0.62977   0.80718   0.00000  Uiso   1.00
H490   H     0.73650   0.42635   0.16608   0.00000  Uiso   1.00
H491   H     0.64747   0.65067   0.17473   0.00000  Uiso   1.00
H492   H     0.56428   0.65838   0.09310   0.00000  Uiso   1.00
H493   H     0.67366   0.70029   0.35725   0.00000  Uiso   1.00
H494   H     0.70765   0.60383   0.05322   0.00000  Uiso   1.00
H495   H     0.46705   0.65042   0.03524   0.00000  Uiso   1.00
H496   H     0.69772   0.73879   0.59219   0.00000  Uiso   1.00
H497   H     0.76938   0.53537   0.95109   0.00000  Uiso   1.00
O498   O     0.39519   0.59869   0.09361   0.00000  Uiso   1.00
O499   O     0.69782   0.71462   0.82429   0.00000  Uiso   1.00
O500   O     0.79184   0.44775   0.98318   0.00000  Uiso   1.00
N501   N     0.45333   0.56599   0.21082   0.00000  Uiso   1.00
N502   N     0.66898   0.64861   0.73153   0.00000  Uiso   1.00
N503   N     0.73599   0.45844   0.13218   0.00000  Uiso   1.00
N504   N     0.47102   0.62465   0.09513   0.00000  Uiso   1.00
N505   N     0.68667   0.70728   0.61584   0.00000  Uiso   1.00
N506   N     0.75368   0.51711   0.01649   0.00000  Uiso   1.00
C507   C     0.11786   0.05251   0.86831   0.00000  Uiso   1.00
C508   C     0.07685   0.07056   0.79662   0.00000  Uiso   1.00
C509   C     0.03250   0.05306   0.80080   0.00000  Uiso   1.00
C510   C     0.99981   0.07438   0.72838   0.00000  Uiso   1.00
C511   C     0.93439   0.09672   0.62835   0.00000  Uiso   1.00
C512   C     0.13627   0.09333   0.94013   0.00000  Uiso   1.00
C513   C     0.14190   0.09498   0.06498   0.00000  Uiso   1.00
C514   C     0.15924   0.13547   0.11337   0.00000  Uiso   1.00
C515   C     0.18612   0.19316   0.23615   0.00000  Uiso   1.00
C516   C     0.15473   0.04092   0.77494   0.00000  Uiso   1.00
C517   C     0.17589   0.99850   0.76091   0.00000  Uiso   1.00
C518   C     0.20879   0.99487   0.67024   0.00000  Uiso   1.00
C519   C     0.26433   0.97117   0.53653   0.00000  Uiso   1.00
C520   C     0.13867   0.12150   0.73226   0.00000  Uiso   1.00
C521   C     0.08815   0.10803   0.72273   0.00000  Uiso   1.00
C522   C     0.05552   0.12938   0.65028   0.00000  Uiso   1.00
C523   C     0.01113   0.11192   0.65435   0.00000  Uiso   1.00
C524   C     0.14757   0.13080   0.86625   0.00000  Uiso   1.00
C525   C     0.16492   0.17130   0.91446   0.00000  Uiso   1.00
C526   C     0.17057   0.17301   0.03934   0.00000  Uiso   1.00
C527   C     0.16604   0.07839   0.70105   0.00000  Uiso   1.00
C528   C     0.19891   0.07482   0.61039   0.00000  Uiso   1.00
C529   C     0.22011   0.03241   0.59621   0.00000  Uiso   1.00
H530   H     0.10907   0.02334   0.92584   0.00000  Uiso   1.00
H531   H     0.02377   0.02406   0.85801   0.00000  Uiso   1.00
H532   H     0.13315   0.06597   0.12214   0.00000  Uiso   1.00
H533   H     0.16714   0.96951   0.81811   0.00000  Uiso   1.00
H534   H     0.93417   0.04140   0.75024   0.00000  Uiso   1.00
H535   H     0.16484   0.12977   0.30718   0.00000  Uiso   1.00
H536   H     0.23650   0.92635   0.66608   0.00000  Uiso   1.00
H537   H     0.14747   0.15067   0.67473   0.00000  Uiso   1.00
H538   H     0.06428   0.15838   0.59310   0.00000  Uiso   1.00
H539   H     0.17366   0.20029   0.85725   0.00000  Uiso   1.00
H540   H     0.20765   0.10383   0.55322   0.00000  Uiso   1.00
H541   H     0.96705   0.15042   0.53524   0.00000  Uiso   1.00
H542   H     0.19772   0.23879   0.09219   0.00000  Uiso   1.00
H543   H     0.26938   0.03537   0.45109   0.00000  Uiso   1.00
O544   O     0.89519   0.09869   0.59361   0.00000  Uiso   1.00
O545   O     0.19782   0.21462   0.32429   0.00000  Uiso   1.00
O546   O     0.29184   0.94775   0.48318   0.00000  Uiso   1.00
N547   N     0.95333   0.06599   0.71082   0.00000  Uiso   1.00
N548   N     0.16898   0.14861   0.23153   0.00000  Uiso   1.00
N549   N     0.23599   0.95844   0.63218   0.00000  Uiso   1.00
N550   N     0.97102   0.12465   0.59513   0.00000  Uiso   1.00
N551   N     0.18667   0.20728   0.11584   0.00000  Uiso   1.00
N552   N     0.25368   0.01711   0.51649   0.00000  Uiso   1.00
C553   C     0.55251   0.88214   0.61831   0.00000  Uiso   1.00
C554   C     0.57056   0.92315   0.54662   0.00000  Uiso   1.00
C555   C     0.55306   0.96750   0.55080   0.00000  Uiso   1.00
C556   C     0.57438   0.00019   0.47838   0.00000  Uiso   1.00
C557   C     0.59672   0.06561   0.37835   0.00000  Uiso   1.00
C558   C     0.59333   0.86373   0.69013   0.00000  Uiso   1.00
C559   C     0.59498   0.85810   0.81498   0.00000  Uiso   1.00
C560   C     0.63547   0.84076   0.86337   0.00000  Uiso   1.00
C561   C     0.69316   0.81388   0.98615   0.00000  Uiso   1.00
C562   C     0.54092   0.84527   0.52494   0.00000  Uiso   1.00
C563   C     0.49850   0.82411   0.51091   0.00000  Uiso   1.00
C564   C     0.49487   0.79121   0.42024   0.00000  Uiso   1.00
C565   C     0.47117   0.73567   0.28653   0.00000  Uiso   1.00
C566   C     0.62150   0.86133   0.48226   0.00000  Uiso   1.00
C567   C     0.60803   0.91185   0.47273   0.00000  Uiso   1.00
C568   C     0.62938   0.94448   0.40028   0.00000  Uiso   1.00
C569   C     0.61192   0.98887   0.40435   0.00000  Uiso   1.00
C570   C     0.63080   0.85243   0.61625   0.00000  Uiso   1.00
C571   C     0.67130   0.83508   0.66446   0.00000  Uiso   1.00
C572   C     0.67301   0.82943   0.78934   0.00000  Uiso   1.00
C573   C     0.57839   0.83396   0.45105   0.00000  Uiso   1.00
C574   C     0.57482   0.80109   0.36039   0.00000  Uiso   1.00
C575   C     0.53241   0.77989   0.34621   0.00000  Uiso   1.00
H576   H     0.52334   0.89093   0.67584   0.00000  Uiso   1.00
H577   H     0.52406   0.97623   0.60801   0.00000  Uiso   1.00
H578   H     0.56597   0.86685   0.87214   0.00000  Uiso   1.00
H579   H     0.46951   0.83286   0.56811   0.00000  Uiso   1.00
H580   H     0.54140   0.06583   0.50024   0.00000  Uiso   1.00
H581   H     0.62977   0.83516   0.05718   0.00000  Uiso   1.00
H582   H     0.42635   0.76350   0.41608   0.00000  Uiso   1.00
H583   H     0.65067   0.85253   0.42473   0.00000  Uiso   1.00
H584   H     0.65838   0.93572   0.34310   0.00000  Uiso   1.00
H585   H     0.70029   0.82634   0.60725   0.00000  Uiso   1.00
H586   H     0.60383   0.79235   0.30322   0.00000  Uiso   1.00
H587   H     0.65042   0.03295   0.28524   0.00000  Uiso   1.00
H588   H     0.73879   0.80228   0.84219   0.00000  Uiso   1.00
H589   H     0.53537   0.73062   0.20109   0.00000  Uiso   1.00
O590   O     0.59869   0.10481   0.34361   0.00000  Uiso   1.00
O591   O     0.71462   0.80218   0.07429   0.00000  Uiso   1.00
O592   O     0.44775   0.70816   0.23318   0.00000  Uiso   1.00
N593   N     0.56599   0.04667   0.46082   0.00000  Uiso   1.00
N594   N     0.64861   0.83102   0.98153   0.00000  Uiso   1.00
N595   N     0.45844   0.76401   0.38218   0.00000  Uiso   1.00
N596   N     0.62465   0.02898   0.34513   0.00000  Uiso   1.00
N597   N     0.70728   0.81333   0.86584   0.00000  Uiso   1.00
N598   N     0.51711   0.74632   0.26649   0.00000  Uiso   1.00
C599   C     0.05251   0.38214   0.11831   0.00000  Uiso   1.00
C600   C     0.07056   0.42315   0.04662   0.00000  Uiso   1.00
C601   C     0.05306   0.46750   0.05080   0.00000  Uiso   1.00
C602   C     0.07438   0.50019   0.97838   0.00000  Uiso   1.00
C603   C     0.09672   0.56561   0.87835   0.00000  Uiso   1.00
C604   C     0.09333   0.36373   0.19013   0.00000  Uiso   1.00
C605   C     0.09498   0.35810   0.31498   0.00000  Uiso   1.00
C606   C     0.13547   0.34076   0.36337   0.00000  Uiso   1.00
C607   C     0.19316   0.31388   0.48615   0.00000  Uiso   1.00
C608   C     0.04092   0.34527   0.02494   0.00000  Uiso   1.00
C609   C     0.99850   0.32411   0.01091   0.00000  Uiso   1.00
C610   C     0.99487   0.29121   0.92024   0.00000  Uiso   1.00
C611   C     0.97117   0.23567   0.78653   0.00000  Uiso   1.00
C612   C     0.12150   0.36133   0.98226   0.00000  Uiso   1.00
C613   C     0.10803   0.41185   0.97273   0.00000  Uiso   1.00
C614   C     0.12938   0.44448   0.90028   0.00000  Uiso   1.00
C615   C     0.11192   0.48887   0.90435   0.00000  Uiso   1.00
C616   C     0.13080   0.35243   0.11625   0.00000  Uiso   1.00
C617   C     0.17130   0.33508   0.16446   0.00000  Uiso   1.00
C618   C     0.17301   0.32943   0.28934   0.00000  Uiso   1.00
C619   C     0.07839   0.33396   0.95105   0.00000  Uiso   1.00
C620   C     0.07482   0.30109   0.86039   0.00000  Uiso   1.00
C621   C     0.03241   0.27989   0.84621   0.00000  Uiso   1.00
H622   H     0.02334   0.39093   0.17584   0.00000  Uiso   1.00
H623   H     0.02406   0.47623   0.10801   0.00000  Uiso   1.00
H624   H     0.06597   0.36685   0.37214   0.00000  Uiso   1.00
H625   H     0.96951   0.33286   0.06811   0.00000  Uiso   1.00
H626   H     0.04140   0.56583   0.00024   0.00000  Uiso   1.00
H627   H     0.12977   0.33516   0.55718   0.00000  Uiso   1.00
H628   H     0.92635   0.26350   0.91608   0.00000  Uiso   1.00
H629   H     0.15067   0.35253   0.92473   0.00000  Uiso   1.00
H630   H     0.15838   0.43572   0.84310   0.00000  Uiso   1.00
H631   H     0.20029   0.32634   0.10725   0.00000  Uiso   1.00
H632   H     0.10383   0.29235   0.80322   0.00000  Uiso   1.00
H633   H     0.15042   0.53295   0.78524   0.00000  Uiso   1.00
H634   H     0.23879   0.30228   0.34219   0.00000  Uiso   1.00
H635   H     0.03537   0.23062   0.70109   0.00000  Uiso   1.00
O636   O     0.09869   0.60481   0.84361   0.00000  Uiso   1.00
O637   O     0.21462   0.30218   0.57429   0.00000  Uiso   1.00
O638   O     0.94775   0.20816   0.73318   0.00000  Uiso   1.00
N639   N     0.06599   0.54667   0.96082   0.00000  Uiso   1.00
N640   N     0.14861   0.33102   0.48153   0.00000  Uiso   1.00
N641   N     0.95844   0.26401   0.88218   0.00000  Uiso   1.00
N642   N     0.12465   0.52898   0.84513   0.00000  Uiso   1.00
N643   N     0.20728   0.31333   0.36584   0.00000  Uiso   1.00
N644   N     0.01711   0.24632   0.76649   0.00000  Uiso   1.00
C645   C     0.94749   0.61786   0.11831   0.00000  Uiso   1.00
C646   C     0.92944   0.57685   0.04662   0.00000  Uiso   1.00
C647   C     0.94694   0.53250   0.05080   0.00000  Uiso   1.00
C648   C     0.92562   0.49981   0.97838   0.00000  Uiso   1.00
C649   C     0.90328   0.43439   0.87835   0.00000  Uiso   1.00
C650   C     0.90667   0.63627   0.19013   0.00000  Uiso   1.00
C651   C     0.90502   0.64190   0.31498   0.00000  Uiso   1.00
C652   C     0.86453   0.65924   0.36337   0.00000  Uiso   1.00
C653   C     0.80684   0.68612   0.48615   0.00000  Uiso   1.00
C654   C     0.95908   0.65473   0.02494   0.00000  Uiso   1.00
C655   C     0.00150   0.67589   0.01091   0.00000  Uiso   1.00
C656   C     0.00513   0.70879   0.92024   0.00000  Uiso   1.00
C657   C     0.02883   0.76433   0.78653   0.00000  Uiso   1.00
C658   C     0.87850   0.63867   0.98226   0.00000  Uiso   1.00
C659   C     0.89197   0.58815   0.97273   0.00000  Uiso   1.00
C660   C     0.87062   0.55552   0.90028   0.00000  Uiso   1.00
C661   C     0.88808   0.51113   0.90435   0.00000  Uiso   1.00
C662   C     0.86920   0.64757   0.11625   0.00000  Uiso   1.00
C663   C     0.82870   0.66492   0.16446   0.00000  Uiso   1.00
C664   C     0.82699   0.67057   0.28934   0.00000  Uiso   1.00
C665   C     0.92161   0.66604   0.95105   0.00000  Uiso   1.00
C666   C     0.92518   0.69891   0.86039   0.00000  Uiso   1.00
C667   C     0.96759   0.72011   0.84621   0.00000  Uiso   1.00
H668   H     0.97666   0.60907   0.17584   0.00000  Uiso   1.00
H669   H     0.97594   0.52377   0.10801   0.00000  Uiso   1.00
H670   H     0.93403   0.63315   0.37214   0.00000  Uiso   1.00
H671   H     0.03049   0.66714   0.06811   0.00000  Uiso   1.00
H672   H     0.95860   0.43417   0.00024   0.00000  Uiso   1.00
H673   H     0.87023   0.66484   0.55718   0.00000  Uiso   1.00
H674   H     0.07365   0.73650   0.91608   0.00000  Uiso   1.00
H675   H     0.84933   0.64747   0.92473   0.00000  Uiso   1.00
H676   H     0.84162   0.56428   0.84310   0.00000  Uiso   1.00
H677   H     0.79971   0.67366   0.10725   0.00000  Uiso   1.00
H678   H     0.89617   0.70765   0.80322   0.00000  Uiso   1.00
H679   H     0.84958   0.46705   0.78524   0.00000  Uiso   1.00
H680   H     0.76121   0.69772   0.34219   0.00000  Uiso   1.00
H681   H     0.96463   0.76938   0.70109   0.00000  Uiso   1.00
O682   O     0.90131   0.39519   0.84361   0.00000  Uiso   1.00
O683   O     0.78538   0.69782   0.57429   0.00000  Uiso   1.00
O684   O     0.05225   0.79184   0.73318   0.00000  Uiso   1.00
N685   N     0.93401   0.45333   0.96082   0.00000  Uiso   1.00
N686   N     0.85139   0.66898   0.48153   0.00000  Uiso   1.00
N687   N     0.04156   0.73599   0.88218   0.00000  Uiso   1.00
N688   N     0.87535   0.47102   0.84513   0.00000  Uiso   1.00
N689   N     0.79272   0.68667   0.36584   0.00000  Uiso   1.00
N690   N     0.98289   0.75368   0.76649   0.00000  Uiso   1.00
C691   C     0.44749   0.11786   0.61831   0.00000  Uiso   1.00
C692   C     0.42944   0.07685   0.54662   0.00000  Uiso   1.00
C693   C     0.44694   0.03250   0.55080   0.00000  Uiso   1.00
C694   C     0.42562   0.99981   0.47838   0.00000  Uiso   1.00
C695   C     0.40328   0.93439   0.37835   0.00000  Uiso   1.00
C696   C     0.40667   0.13627   0.69013   0.00000  Uiso   1.00
C697   C     0.40502   0.14190   0.81498   0.00000  Uiso   1.00
C698   C     0.36453   0.15924   0.86337   0.00000  Uiso   1.00
C699   C     0.30684   0.18612   0.98615   0.00000  Uiso   1.00
C700   C     0.45908   0.15473   0.52494   0.00000  Uiso   1.00
C701   C     0.50150   0.17589   0.51091   0.00000  Uiso   1.00
C702   C     0.50513   0.20879   0.42024   0.00000  Uiso   1.00
C703   C     0.52883   0.26433   0.28653   0.00000  Uiso   1.00
C704   C     0.37850   0.13867   0.48226   0.00000  Uiso   1.00
C705   C     0.39197   0.08815   0.47273   0.00000  Uiso   1.00
C706   C     0.37062   0.05552   0.40028   0.00000  Uiso   1.00
C707   C     0.38808   0.01113   0.40435   0.00000  Uiso   1.00
C708   C     0.36920   0.14757   0.61625   0.00000  Uiso   1.00
C709   C     0.32870   0.16492   0.66446   0.00000  Uiso   1.00
C710   C     0.32699   0.17057   0.78934   0.00000  Uiso   1.00
C711   C     0.42161   0.16604   0.45105   0.00000  Uiso   1.00
C712   C     0.42518   0.19891   0.36039   0.00000  Uiso   1.00
C713   C     0.46759   0.22011   0.34621   0.00000  Uiso   1.00
H714   H     0.47666   0.10907   0.67584   0.00000  Uiso   1.00
H715   H     0.47594   0.02377   0.60801   0.00000  Uiso   1.00
H716   H     0.43403   0.13315   0.87214   0.00000  Uiso   1.00
H717   H     0.53049   0.16714   0.56811   0.00000  Uiso   1.00
H718   H     0.45860   0.93417   0.50024   0.00000  Uiso   1.00
H719   H     0.37023   0.16484   0.05718   0.00000  Uiso   1.00
H720   H     0.57365   0.23650   0.41608   0.00000  Uiso   1.00
H721   H     0.34933   0.14747   0.42473   0.00000  Uiso   1.00
H722   H     0.34162   0.06428   0.34310   0.00000  Uiso   1.00
H723   H     0.29971   0.17366   0.60725   0.00000  Uiso   1.00
H724   H     0.39617   0.20765   0.30322   0.00000  Uiso   1.00
H725   H     0.34958   0.96705   0.28524   0.00000  Uiso   1.00
H726   H     0.26121   0.19772   0.84219   0.00000  Uiso   1.00
H727   H     0.46463   0.26938   0.20109   0.00000  Uiso   1.00
O728   O     0.40131   0.89519   0.34361   0.00000  Uiso   1.00
O729   O     0.28538   0.19782   0.07429   0.00000  Uiso   1.00
O730   O     0.55225   0.29184   0.23318   0.00000  Uiso   1.00
N731   N     0.43401   0.95333   0.46082   0.00000  Uiso   1.00
N732   N     0.35139   0.16898   0.98153   0.00000  Uiso   1.00
N733   N     0.54156   0.23599   0.38218   0.00000  Uiso   1.00
N734   N     0.37535   0.97102   0.34513   0.00000  Uiso   1.00
N735   N     0.29272   0.18667   0.86584   0.00000  Uiso   1.00
N736   N     0.48289   0.25368   0.26649   0.00000  Uiso   1.00
