data_job_01771
_audit_creation_date              2018-12-19
_audit_creation_method            'Materials Studio'
_symmetry_space_group_name_H-M    'P1'
_symmetry_Int_Tables_number       1
_symmetry_cell_setting            triclinic
loop_
_symmetry_equiv_pos_as_xyz
  x,y,z
_cell_length_a                    40.3459
_cell_length_b                    19.3497
_cell_length_c                    13.7368
_cell_angle_alpha                 90.0000
_cell_angle_beta                  90.0000
_cell_angle_gamma                 90.0000
loop_
_atom_site_label
_atom_site_type_symbol
_atom_site_fract_x
_atom_site_fract_y
_atom_site_fract_z
_atom_site_U_iso_or_equiv
_atom_site_adp_type
_atom_site_occupancy
C1     C     0.28790   0.93967   0.23060   0.00000  Uiso   1.00
C2     C     0.25134   0.95015   0.25468   0.00000  Uiso   1.00
C3     C     0.22509   0.94114   0.19065   0.00000  Uiso   1.00
C4     C     0.19348   0.95331   0.22671   0.00000  Uiso   1.00
C5     C     0.13750   0.96651   0.24937   0.00000  Uiso   1.00
C6     C     0.30505   0.00770   0.25516   0.00000  Uiso   1.00
C7     C     0.32396   0.04707   0.19154   0.00000  Uiso   1.00
C8     C     0.33756   0.10769   0.22802   0.00000  Uiso   1.00
C9     C     0.36499   0.21020   0.25146   0.00000  Uiso   1.00
C10    C     0.30082   0.88696   0.30388   0.00000  Uiso   1.00
C11    C     0.31617   0.82482   0.28123   0.00000  Uiso   1.00
C12    C     0.32621   0.78379   0.35873   0.00000  Uiso   1.00
C13    C     0.34706   0.69884   0.45781   0.00000  Uiso   1.00
C14    C     0.27844   0.97729   0.40850   0.00000  Uiso   1.00
C15    C     0.24621   0.97058   0.35131   0.00000  Uiso   1.00
C16    C     0.21463   0.98277   0.38747   0.00000  Uiso   1.00
C17    C     0.18833   0.97378   0.32351   0.00000  Uiso   1.00
C18    C     0.29991   0.02813   0.35179   0.00000  Uiso   1.00
C19    C     0.31349   0.08870   0.38837   0.00000  Uiso   1.00
C20    C     0.33241   0.12816   0.32482   0.00000  Uiso   1.00
C21    C     0.29568   0.90739   0.40051   0.00000  Uiso   1.00
C22    C     0.30570   0.86645   0.47806   0.00000  Uiso   1.00
C23    C     0.32107   0.80426   0.45553   0.00000  Uiso   1.00
H24    H     0.29190   0.92376   0.15538   0.00000  Uiso   1.00
H25    H     0.22908   0.92533   0.11587   0.00000  Uiso   1.00
H26    H     0.32793   0.03124   0.11677   0.00000  Uiso   1.00
H27    H     0.32014   0.80903   0.20645   0.00000  Uiso   1.00
H28    H     0.15716   0.93611   0.11468   0.00000  Uiso   1.00
H29    H     0.36561   0.15941   0.11659   0.00000  Uiso   1.00
H30    H     0.34919   0.69083   0.30568   0.00000  Uiso   1.00
H31    H     0.27444   0.99321   0.48374   0.00000  Uiso   1.00
H32    H     0.21066   0.99858   0.46225   0.00000  Uiso   1.00
H33    H     0.30951   0.10450   0.46315   0.00000  Uiso   1.00
H34    H     0.30172   0.88228   0.55282   0.00000  Uiso   1.00
H35    H     0.14221   0.99557   0.39581   0.00000  Uiso   1.00
H36    H     0.35067   0.21887   0.39772   0.00000  Uiso   1.00
H37    H     0.33424   0.75029   0.58682   0.00000  Uiso   1.00
O38    O     0.10805   0.96815   0.23518   0.00000  Uiso   1.00
O39    O     0.38153   0.26110   0.23769   0.00000  Uiso   1.00
O40    O     0.35998   0.64633   0.48577   0.00000  Uiso   1.00
N41    N     0.16240   0.94935   0.18380   0.00000  Uiso   1.00
N42    N     0.35728   0.15813   0.18558   0.00000  Uiso   1.00
N43    N     0.34193   0.72005   0.36237   0.00000  Uiso   1.00
N44    N     0.15435   0.98134   0.33507   0.00000  Uiso   1.00
N45    N     0.34924   0.19012   0.33685   0.00000  Uiso   1.00
N46    N     0.33389   0.75205   0.51364   0.00000  Uiso   1.00
C47    C     0.28790   0.43967   0.73060   0.00000  Uiso   1.00
C48    C     0.25134   0.45015   0.75468   0.00000  Uiso   1.00
C49    C     0.22509   0.44114   0.69065   0.00000  Uiso   1.00
C50    C     0.19348   0.45331   0.72671   0.00000  Uiso   1.00
C51    C     0.13750   0.46651   0.74937   0.00000  Uiso   1.00
C52    C     0.30505   0.50770   0.75516   0.00000  Uiso   1.00
C53    C     0.32396   0.54707   0.69154   0.00000  Uiso   1.00
C54    C     0.33756   0.60769   0.72802   0.00000  Uiso   1.00
C55    C     0.36499   0.71020   0.75146   0.00000  Uiso   1.00
C56    C     0.30082   0.38696   0.80388   0.00000  Uiso   1.00
C57    C     0.31617   0.32482   0.78123   0.00000  Uiso   1.00
C58    C     0.32621   0.28379   0.85873   0.00000  Uiso   1.00
C59    C     0.34706   0.19884   0.95781   0.00000  Uiso   1.00
C60    C     0.27844   0.47729   0.90850   0.00000  Uiso   1.00
C61    C     0.24621   0.47058   0.85131   0.00000  Uiso   1.00
C62    C     0.21463   0.48277   0.88747   0.00000  Uiso   1.00
C63    C     0.18833   0.47378   0.82351   0.00000  Uiso   1.00
C64    C     0.29991   0.52813   0.85179   0.00000  Uiso   1.00
C65    C     0.31349   0.58870   0.88837   0.00000  Uiso   1.00
C66    C     0.33241   0.62816   0.82482   0.00000  Uiso   1.00
C67    C     0.29568   0.40739   0.90051   0.00000  Uiso   1.00
C68    C     0.30570   0.36645   0.97806   0.00000  Uiso   1.00
C69    C     0.32107   0.30426   0.95553   0.00000  Uiso   1.00
H70    H     0.29190   0.42376   0.65538   0.00000  Uiso   1.00
H71    H     0.22908   0.42533   0.61587   0.00000  Uiso   1.00
H72    H     0.32793   0.53124   0.61677   0.00000  Uiso   1.00
H73    H     0.32014   0.30903   0.70645   0.00000  Uiso   1.00
H74    H     0.15716   0.43611   0.61468   0.00000  Uiso   1.00
H75    H     0.36561   0.65941   0.61659   0.00000  Uiso   1.00
H76    H     0.34919   0.19083   0.80568   0.00000  Uiso   1.00
H77    H     0.27444   0.49321   0.98374   0.00000  Uiso   1.00
H78    H     0.21066   0.49858   0.96225   0.00000  Uiso   1.00
H79    H     0.30951   0.60450   0.96315   0.00000  Uiso   1.00
H80    H     0.30172   0.38228   0.05282   0.00000  Uiso   1.00
H81    H     0.14221   0.49557   0.89581   0.00000  Uiso   1.00
H82    H     0.35067   0.71887   0.89772   0.00000  Uiso   1.00
H83    H     0.33424   0.25029   0.08682   0.00000  Uiso   1.00
O84    O     0.10805   0.46815   0.73518   0.00000  Uiso   1.00
O85    O     0.38153   0.76110   0.73769   0.00000  Uiso   1.00
O86    O     0.35998   0.14633   0.98577   0.00000  Uiso   1.00
N87    N     0.16240   0.44935   0.68380   0.00000  Uiso   1.00
N88    N     0.35728   0.65813   0.68558   0.00000  Uiso   1.00
N89    N     0.34193   0.22005   0.86237   0.00000  Uiso   1.00
N90    N     0.15435   0.48134   0.83507   0.00000  Uiso   1.00
N91    N     0.34924   0.69012   0.83685   0.00000  Uiso   1.00
N92    N     0.33389   0.25205   0.01364   0.00000  Uiso   1.00
C93    C     0.78790   0.93967   0.73060   0.00000  Uiso   1.00
C94    C     0.75134   0.95015   0.75468   0.00000  Uiso   1.00
C95    C     0.72509   0.94114   0.69065   0.00000  Uiso   1.00
C96    C     0.69348   0.95331   0.72671   0.00000  Uiso   1.00
C97    C     0.63750   0.96651   0.74937   0.00000  Uiso   1.00
C98    C     0.80505   0.00770   0.75516   0.00000  Uiso   1.00
C99    C     0.82396   0.04707   0.69154   0.00000  Uiso   1.00
C100   C     0.83756   0.10769   0.72802   0.00000  Uiso   1.00
C101   C     0.86499   0.21020   0.75146   0.00000  Uiso   1.00
C102   C     0.80082   0.88696   0.80388   0.00000  Uiso   1.00
C103   C     0.81617   0.82482   0.78123   0.00000  Uiso   1.00
C104   C     0.82621   0.78379   0.85873   0.00000  Uiso   1.00
C105   C     0.84706   0.69884   0.95781   0.00000  Uiso   1.00
C106   C     0.77844   0.97729   0.90850   0.00000  Uiso   1.00
C107   C     0.74621   0.97058   0.85131   0.00000  Uiso   1.00
C108   C     0.71463   0.98277   0.88747   0.00000  Uiso   1.00
C109   C     0.68833   0.97378   0.82351   0.00000  Uiso   1.00
C110   C     0.79991   0.02813   0.85179   0.00000  Uiso   1.00
C111   C     0.81349   0.08870   0.88837   0.00000  Uiso   1.00
C112   C     0.83241   0.12816   0.82482   0.00000  Uiso   1.00
C113   C     0.79568   0.90739   0.90051   0.00000  Uiso   1.00
C114   C     0.80570   0.86645   0.97806   0.00000  Uiso   1.00
C115   C     0.82107   0.80426   0.95553   0.00000  Uiso   1.00
H116   H     0.79190   0.92376   0.65538   0.00000  Uiso   1.00
H117   H     0.72908   0.92533   0.61587   0.00000  Uiso   1.00
H118   H     0.82793   0.03124   0.61677   0.00000  Uiso   1.00
H119   H     0.82014   0.80903   0.70645   0.00000  Uiso   1.00
H120   H     0.65716   0.93611   0.61468   0.00000  Uiso   1.00
H121   H     0.86561   0.15941   0.61659   0.00000  Uiso   1.00
H122   H     0.84919   0.69083   0.80568   0.00000  Uiso   1.00
H123   H     0.77444   0.99321   0.98374   0.00000  Uiso   1.00
H124   H     0.71066   0.99858   0.96225   0.00000  Uiso   1.00
H125   H     0.80951   0.10450   0.96315   0.00000  Uiso   1.00
H126   H     0.80172   0.88228   0.05282   0.00000  Uiso   1.00
H127   H     0.64221   0.99557   0.89581   0.00000  Uiso   1.00
H128   H     0.85067   0.21887   0.89772   0.00000  Uiso   1.00
H129   H     0.83424   0.75029   0.08682   0.00000  Uiso   1.00
O130   O     0.60805   0.96815   0.73518   0.00000  Uiso   1.00
O131   O     0.88153   0.26110   0.73769   0.00000  Uiso   1.00
O132   O     0.85998   0.64633   0.98577   0.00000  Uiso   1.00
N133   N     0.66240   0.94935   0.68380   0.00000  Uiso   1.00
N134   N     0.85728   0.15813   0.68558   0.00000  Uiso   1.00
N135   N     0.84193   0.72005   0.86237   0.00000  Uiso   1.00
N136   N     0.65435   0.98134   0.83507   0.00000  Uiso   1.00
N137   N     0.84924   0.19012   0.83685   0.00000  Uiso   1.00
N138   N     0.83389   0.75205   0.01364   0.00000  Uiso   1.00
C139   C     0.78790   0.43967   0.23060   0.00000  Uiso   1.00
C140   C     0.75134   0.45015   0.25468   0.00000  Uiso   1.00
C141   C     0.72509   0.44114   0.19065   0.00000  Uiso   1.00
C142   C     0.69348   0.45331   0.22671   0.00000  Uiso   1.00
C143   C     0.63750   0.46651   0.24937   0.00000  Uiso   1.00
C144   C     0.80505   0.50770   0.25516   0.00000  Uiso   1.00
C145   C     0.82396   0.54707   0.19154   0.00000  Uiso   1.00
C146   C     0.83756   0.60769   0.22802   0.00000  Uiso   1.00
C147   C     0.86499   0.71020   0.25146   0.00000  Uiso   1.00
C148   C     0.80082   0.38696   0.30388   0.00000  Uiso   1.00
C149   C     0.81617   0.32482   0.28123   0.00000  Uiso   1.00
C150   C     0.82621   0.28379   0.35873   0.00000  Uiso   1.00
C151   C     0.84706   0.19884   0.45781   0.00000  Uiso   1.00
C152   C     0.77844   0.47729   0.40850   0.00000  Uiso   1.00
C153   C     0.74621   0.47058   0.35131   0.00000  Uiso   1.00
C154   C     0.71463   0.48277   0.38747   0.00000  Uiso   1.00
C155   C     0.68833   0.47378   0.32351   0.00000  Uiso   1.00
C156   C     0.79991   0.52813   0.35179   0.00000  Uiso   1.00
C157   C     0.81349   0.58870   0.38837   0.00000  Uiso   1.00
C158   C     0.83241   0.62816   0.32482   0.00000  Uiso   1.00
C159   C     0.79568   0.40739   0.40051   0.00000  Uiso   1.00
C160   C     0.80570   0.36645   0.47806   0.00000  Uiso   1.00
C161   C     0.82107   0.30426   0.45553   0.00000  Uiso   1.00
H162   H     0.79190   0.42376   0.15538   0.00000  Uiso   1.00
H163   H     0.72908   0.42533   0.11587   0.00000  Uiso   1.00
H164   H     0.82793   0.53124   0.11677   0.00000  Uiso   1.00
H165   H     0.82014   0.30903   0.20645   0.00000  Uiso   1.00
H166   H     0.65716   0.43611   0.11468   0.00000  Uiso   1.00
H167   H     0.86561   0.65941   0.11659   0.00000  Uiso   1.00
H168   H     0.84919   0.19083   0.30568   0.00000  Uiso   1.00
H169   H     0.77444   0.49321   0.48374   0.00000  Uiso   1.00
H170   H     0.71066   0.49858   0.46225   0.00000  Uiso   1.00
H171   H     0.80951   0.60450   0.46315   0.00000  Uiso   1.00
H172   H     0.80172   0.38228   0.55282   0.00000  Uiso   1.00
H173   H     0.64221   0.49557   0.39581   0.00000  Uiso   1.00
H174   H     0.85067   0.71887   0.39772   0.00000  Uiso   1.00
H175   H     0.83424   0.25029   0.58682   0.00000  Uiso   1.00
O176   O     0.60805   0.46815   0.23518   0.00000  Uiso   1.00
O177   O     0.88153   0.76110   0.23769   0.00000  Uiso   1.00
O178   O     0.85998   0.14633   0.48577   0.00000  Uiso   1.00
N179   N     0.66240   0.44935   0.18380   0.00000  Uiso   1.00
N180   N     0.85728   0.65813   0.18558   0.00000  Uiso   1.00
N181   N     0.84193   0.22005   0.36237   0.00000  Uiso   1.00
N182   N     0.65435   0.48134   0.33507   0.00000  Uiso   1.00
N183   N     0.84924   0.69012   0.33685   0.00000  Uiso   1.00
N184   N     0.83389   0.25205   0.51364   0.00000  Uiso   1.00
C185   C     0.71210   0.06033   0.23060   0.00000  Uiso   1.00
C186   C     0.74866   0.04985   0.25468   0.00000  Uiso   1.00
C187   C     0.77491   0.05886   0.19065   0.00000  Uiso   1.00
C188   C     0.80652   0.04669   0.22671   0.00000  Uiso   1.00
C189   C     0.86250   0.03349   0.24937   0.00000  Uiso   1.00
C190   C     0.69495   0.99230   0.25516   0.00000  Uiso   1.00
C191   C     0.67604   0.95293   0.19154   0.00000  Uiso   1.00
C192   C     0.66244   0.89231   0.22802   0.00000  Uiso   1.00
C193   C     0.63501   0.78980   0.25146   0.00000  Uiso   1.00
C194   C     0.69918   0.11304   0.30388   0.00000  Uiso   1.00
C195   C     0.68383   0.17518   0.28123   0.00000  Uiso   1.00
C196   C     0.67379   0.21621   0.35873   0.00000  Uiso   1.00
C197   C     0.65294   0.30116   0.45781   0.00000  Uiso   1.00
C198   C     0.72156   0.02271   0.40850   0.00000  Uiso   1.00
C199   C     0.75379   0.02942   0.35131   0.00000  Uiso   1.00
C200   C     0.78537   0.01723   0.38747   0.00000  Uiso   1.00
C201   C     0.81167   0.02622   0.32351   0.00000  Uiso   1.00
C202   C     0.70009   0.97187   0.35179   0.00000  Uiso   1.00
C203   C     0.68651   0.91130   0.38837   0.00000  Uiso   1.00
C204   C     0.66759   0.87184   0.32482   0.00000  Uiso   1.00
C205   C     0.70432   0.09261   0.40051   0.00000  Uiso   1.00
C206   C     0.69430   0.13355   0.47806   0.00000  Uiso   1.00
C207   C     0.67893   0.19574   0.45553   0.00000  Uiso   1.00
H208   H     0.70810   0.07624   0.15538   0.00000  Uiso   1.00
H209   H     0.77092   0.07467   0.11587   0.00000  Uiso   1.00
H210   H     0.67207   0.96876   0.11677   0.00000  Uiso   1.00
H211   H     0.67986   0.19097   0.20645   0.00000  Uiso   1.00
H212   H     0.84284   0.06389   0.11468   0.00000  Uiso   1.00
H213   H     0.63439   0.84059   0.11659   0.00000  Uiso   1.00
H214   H     0.65081   0.30917   0.30568   0.00000  Uiso   1.00
H215   H     0.72556   0.00679   0.48374   0.00000  Uiso   1.00
H216   H     0.78934   0.00142   0.46225   0.00000  Uiso   1.00
H217   H     0.69049   0.89550   0.46315   0.00000  Uiso   1.00
H218   H     0.69828   0.11772   0.55282   0.00000  Uiso   1.00
H219   H     0.85779   0.00443   0.39581   0.00000  Uiso   1.00
H220   H     0.64933   0.78113   0.39772   0.00000  Uiso   1.00
H221   H     0.66576   0.24971   0.58682   0.00000  Uiso   1.00
O222   O     0.89195   0.03185   0.23518   0.00000  Uiso   1.00
O223   O     0.61847   0.73890   0.23769   0.00000  Uiso   1.00
O224   O     0.64002   0.35367   0.48577   0.00000  Uiso   1.00
N225   N     0.83760   0.05065   0.18380   0.00000  Uiso   1.00
N226   N     0.64272   0.84187   0.18558   0.00000  Uiso   1.00
N227   N     0.65807   0.27995   0.36237   0.00000  Uiso   1.00
N228   N     0.84565   0.01866   0.33507   0.00000  Uiso   1.00
N229   N     0.65076   0.80988   0.33685   0.00000  Uiso   1.00
N230   N     0.66611   0.24795   0.51364   0.00000  Uiso   1.00
C231   C     0.71210   0.56033   0.73060   0.00000  Uiso   1.00
C232   C     0.74866   0.54985   0.75468   0.00000  Uiso   1.00
C233   C     0.77491   0.55886   0.69065   0.00000  Uiso   1.00
C234   C     0.80652   0.54669   0.72671   0.00000  Uiso   1.00
C235   C     0.86250   0.53349   0.74937   0.00000  Uiso   1.00
C236   C     0.69495   0.49230   0.75516   0.00000  Uiso   1.00
C237   C     0.67604   0.45293   0.69154   0.00000  Uiso   1.00
C238   C     0.66244   0.39231   0.72802   0.00000  Uiso   1.00
C239   C     0.63501   0.28980   0.75146   0.00000  Uiso   1.00
C240   C     0.69918   0.61304   0.80388   0.00000  Uiso   1.00
C241   C     0.68383   0.67518   0.78123   0.00000  Uiso   1.00
C242   C     0.67379   0.71621   0.85873   0.00000  Uiso   1.00
C243   C     0.65294   0.80116   0.95781   0.00000  Uiso   1.00
C244   C     0.72156   0.52271   0.90850   0.00000  Uiso   1.00
C245   C     0.75379   0.52942   0.85131   0.00000  Uiso   1.00
C246   C     0.78537   0.51723   0.88747   0.00000  Uiso   1.00
C247   C     0.81167   0.52622   0.82351   0.00000  Uiso   1.00
C248   C     0.70009   0.47187   0.85179   0.00000  Uiso   1.00
C249   C     0.68651   0.41130   0.88837   0.00000  Uiso   1.00
C250   C     0.66759   0.37184   0.82482   0.00000  Uiso   1.00
C251   C     0.70432   0.59261   0.90051   0.00000  Uiso   1.00
C252   C     0.69430   0.63355   0.97806   0.00000  Uiso   1.00
C253   C     0.67893   0.69574   0.95553   0.00000  Uiso   1.00
H254   H     0.70810   0.57624   0.65538   0.00000  Uiso   1.00
H255   H     0.77092   0.57467   0.61587   0.00000  Uiso   1.00
H256   H     0.67207   0.46876   0.61677   0.00000  Uiso   1.00
H257   H     0.67986   0.69097   0.70645   0.00000  Uiso   1.00
H258   H     0.84284   0.56389   0.61468   0.00000  Uiso   1.00
H259   H     0.63439   0.34059   0.61659   0.00000  Uiso   1.00
H260   H     0.65081   0.80917   0.80568   0.00000  Uiso   1.00
H261   H     0.72556   0.50679   0.98374   0.00000  Uiso   1.00
H262   H     0.78934   0.50142   0.96225   0.00000  Uiso   1.00
H263   H     0.69049   0.39550   0.96315   0.00000  Uiso   1.00
H264   H     0.69828   0.61772   0.05282   0.00000  Uiso   1.00
H265   H     0.85779   0.50443   0.89581   0.00000  Uiso   1.00
H266   H     0.64933   0.28113   0.89772   0.00000  Uiso   1.00
H267   H     0.66576   0.74971   0.08682   0.00000  Uiso   1.00
O268   O     0.89195   0.53185   0.73518   0.00000  Uiso   1.00
O269   O     0.61847   0.23890   0.73769   0.00000  Uiso   1.00
O270   O     0.64002   0.85367   0.98577   0.00000  Uiso   1.00
N271   N     0.83760   0.55065   0.68380   0.00000  Uiso   1.00
N272   N     0.64272   0.34187   0.68558   0.00000  Uiso   1.00
N273   N     0.65807   0.77995   0.86237   0.00000  Uiso   1.00
N274   N     0.84565   0.51866   0.83507   0.00000  Uiso   1.00
N275   N     0.65076   0.30988   0.83685   0.00000  Uiso   1.00
N276   N     0.66611   0.74795   0.01364   0.00000  Uiso   1.00
C277   C     0.21210   0.06033   0.73060   0.00000  Uiso   1.00
C278   C     0.24866   0.04985   0.75468   0.00000  Uiso   1.00
C279   C     0.27491   0.05886   0.69065   0.00000  Uiso   1.00
C280   C     0.30652   0.04669   0.72671   0.00000  Uiso   1.00
C281   C     0.36250   0.03349   0.74937   0.00000  Uiso   1.00
C282   C     0.19495   0.99230   0.75516   0.00000  Uiso   1.00
C283   C     0.17604   0.95293   0.69154   0.00000  Uiso   1.00
C284   C     0.16244   0.89231   0.72802   0.00000  Uiso   1.00
C285   C     0.13501   0.78980   0.75146   0.00000  Uiso   1.00
C286   C     0.19918   0.11304   0.80388   0.00000  Uiso   1.00
C287   C     0.18383   0.17518   0.78123   0.00000  Uiso   1.00
C288   C     0.17379   0.21621   0.85873   0.00000  Uiso   1.00
C289   C     0.15294   0.30116   0.95781   0.00000  Uiso   1.00
C290   C     0.22156   0.02271   0.90850   0.00000  Uiso   1.00
C291   C     0.25379   0.02942   0.85131   0.00000  Uiso   1.00
C292   C     0.28537   0.01723   0.88747   0.00000  Uiso   1.00
C293   C     0.31167   0.02622   0.82351   0.00000  Uiso   1.00
C294   C     0.20009   0.97187   0.85179   0.00000  Uiso   1.00
C295   C     0.18651   0.91130   0.88837   0.00000  Uiso   1.00
C296   C     0.16759   0.87184   0.82482   0.00000  Uiso   1.00
C297   C     0.20432   0.09261   0.90051   0.00000  Uiso   1.00
C298   C     0.19430   0.13355   0.97806   0.00000  Uiso   1.00
C299   C     0.17893   0.19574   0.95553   0.00000  Uiso   1.00
H300   H     0.20810   0.07624   0.65538   0.00000  Uiso   1.00
H301   H     0.27092   0.07467   0.61587   0.00000  Uiso   1.00
H302   H     0.17207   0.96876   0.61677   0.00000  Uiso   1.00
H303   H     0.17986   0.19097   0.70645   0.00000  Uiso   1.00
H304   H     0.34284   0.06389   0.61468   0.00000  Uiso   1.00
H305   H     0.13439   0.84059   0.61659   0.00000  Uiso   1.00
H306   H     0.15081   0.30917   0.80568   0.00000  Uiso   1.00
H307   H     0.22556   0.00679   0.98374   0.00000  Uiso   1.00
H308   H     0.28934   0.00142   0.96225   0.00000  Uiso   1.00
H309   H     0.19049   0.89550   0.96315   0.00000  Uiso   1.00
H310   H     0.19828   0.11772   0.05282   0.00000  Uiso   1.00
H311   H     0.35779   0.00443   0.89581   0.00000  Uiso   1.00
H312   H     0.14933   0.78113   0.89772   0.00000  Uiso   1.00
H313   H     0.16576   0.24971   0.08682   0.00000  Uiso   1.00
O314   O     0.39195   0.03185   0.73518   0.00000  Uiso   1.00
O315   O     0.11847   0.73890   0.73769   0.00000  Uiso   1.00
O316   O     0.14002   0.35367   0.98577   0.00000  Uiso   1.00
N317   N     0.33760   0.05065   0.68380   0.00000  Uiso   1.00
N318   N     0.14272   0.84187   0.68558   0.00000  Uiso   1.00
N319   N     0.15807   0.27995   0.86237   0.00000  Uiso   1.00
N320   N     0.34565   0.01866   0.83507   0.00000  Uiso   1.00
N321   N     0.15076   0.80988   0.83685   0.00000  Uiso   1.00
N322   N     0.16611   0.24795   0.01364   0.00000  Uiso   1.00
C323   C     0.21210   0.56033   0.23060   0.00000  Uiso   1.00
C324   C     0.24866   0.54985   0.25468   0.00000  Uiso   1.00
C325   C     0.27491   0.55886   0.19065   0.00000  Uiso   1.00
C326   C     0.30652   0.54669   0.22671   0.00000  Uiso   1.00
C327   C     0.36250   0.53349   0.24937   0.00000  Uiso   1.00
C328   C     0.19495   0.49230   0.25516   0.00000  Uiso   1.00
C329   C     0.17604   0.45293   0.19154   0.00000  Uiso   1.00
C330   C     0.16244   0.39231   0.22802   0.00000  Uiso   1.00
C331   C     0.13501   0.28980   0.25146   0.00000  Uiso   1.00
C332   C     0.19918   0.61304   0.30388   0.00000  Uiso   1.00
C333   C     0.18383   0.67518   0.28123   0.00000  Uiso   1.00
C334   C     0.17379   0.71621   0.35873   0.00000  Uiso   1.00
C335   C     0.15294   0.80116   0.45781   0.00000  Uiso   1.00
C336   C     0.22156   0.52271   0.40850   0.00000  Uiso   1.00
C337   C     0.25379   0.52942   0.35131   0.00000  Uiso   1.00
C338   C     0.28537   0.51723   0.38747   0.00000  Uiso   1.00
C339   C     0.31167   0.52622   0.32351   0.00000  Uiso   1.00
C340   C     0.20009   0.47187   0.35179   0.00000  Uiso   1.00
C341   C     0.18651   0.41130   0.38837   0.00000  Uiso   1.00
C342   C     0.16759   0.37184   0.32482   0.00000  Uiso   1.00
C343   C     0.20432   0.59261   0.40051   0.00000  Uiso   1.00
C344   C     0.19430   0.63355   0.47806   0.00000  Uiso   1.00
C345   C     0.17893   0.69574   0.45553   0.00000  Uiso   1.00
H346   H     0.20810   0.57624   0.15538   0.00000  Uiso   1.00
H347   H     0.27092   0.57467   0.11587   0.00000  Uiso   1.00
H348   H     0.17207   0.46876   0.11677   0.00000  Uiso   1.00
H349   H     0.17986   0.69097   0.20645   0.00000  Uiso   1.00
H350   H     0.34284   0.56389   0.11468   0.00000  Uiso   1.00
H351   H     0.13439   0.34059   0.11659   0.00000  Uiso   1.00
H352   H     0.15081   0.80917   0.30568   0.00000  Uiso   1.00
H353   H     0.22556   0.50679   0.48374   0.00000  Uiso   1.00
H354   H     0.28934   0.50142   0.46225   0.00000  Uiso   1.00
H355   H     0.19049   0.39550   0.46315   0.00000  Uiso   1.00
H356   H     0.19828   0.61772   0.55282   0.00000  Uiso   1.00
H357   H     0.35779   0.50443   0.39581   0.00000  Uiso   1.00
H358   H     0.14933   0.28113   0.39772   0.00000  Uiso   1.00
H359   H     0.16576   0.74971   0.58682   0.00000  Uiso   1.00
O360   O     0.39195   0.53185   0.23518   0.00000  Uiso   1.00
O361   O     0.11847   0.23890   0.23769   0.00000  Uiso   1.00
O362   O     0.14002   0.85367   0.48577   0.00000  Uiso   1.00
N363   N     0.33760   0.55065   0.18380   0.00000  Uiso   1.00
N364   N     0.14272   0.34187   0.18558   0.00000  Uiso   1.00
N365   N     0.15807   0.77995   0.36237   0.00000  Uiso   1.00
N366   N     0.34565   0.51866   0.33507   0.00000  Uiso   1.00
N367   N     0.15076   0.30988   0.33685   0.00000  Uiso   1.00
N368   N     0.16611   0.74795   0.51364   0.00000  Uiso   1.00
C369   C     0.53790   0.31033   0.48060   0.00000  Uiso   1.00
C370   C     0.50134   0.29985   0.50468   0.00000  Uiso   1.00
C371   C     0.47509   0.30886   0.44065   0.00000  Uiso   1.00
C372   C     0.44348   0.29669   0.47671   0.00000  Uiso   1.00
C373   C     0.38750   0.28349   0.49937   0.00000  Uiso   1.00
C374   C     0.55505   0.24230   0.50516   0.00000  Uiso   1.00
C375   C     0.57396   0.20293   0.44154   0.00000  Uiso   1.00
C376   C     0.58756   0.14231   0.47802   0.00000  Uiso   1.00
C377   C     0.61499   0.03980   0.50146   0.00000  Uiso   1.00
C378   C     0.55082   0.36304   0.55388   0.00000  Uiso   1.00
C379   C     0.56617   0.42518   0.53123   0.00000  Uiso   1.00
C380   C     0.57621   0.46621   0.60873   0.00000  Uiso   1.00
C381   C     0.59706   0.55116   0.70781   0.00000  Uiso   1.00
C382   C     0.52844   0.27271   0.65850   0.00000  Uiso   1.00
C383   C     0.49621   0.27942   0.60131   0.00000  Uiso   1.00
C384   C     0.46463   0.26723   0.63747   0.00000  Uiso   1.00
C385   C     0.43833   0.27622   0.57351   0.00000  Uiso   1.00
C386   C     0.54991   0.22187   0.60179   0.00000  Uiso   1.00
C387   C     0.56349   0.16130   0.63837   0.00000  Uiso   1.00
C388   C     0.58241   0.12184   0.57482   0.00000  Uiso   1.00
C389   C     0.54568   0.34261   0.65051   0.00000  Uiso   1.00
C390   C     0.55570   0.38355   0.72806   0.00000  Uiso   1.00
C391   C     0.57107   0.44574   0.70553   0.00000  Uiso   1.00
H392   H     0.54190   0.32624   0.40538   0.00000  Uiso   1.00
H393   H     0.47908   0.32467   0.36587   0.00000  Uiso   1.00
H394   H     0.57793   0.21876   0.36677   0.00000  Uiso   1.00
H395   H     0.57014   0.44097   0.45645   0.00000  Uiso   1.00
H396   H     0.40716   0.31389   0.36468   0.00000  Uiso   1.00
H397   H     0.61561   0.09059   0.36659   0.00000  Uiso   1.00
H398   H     0.59919   0.55917   0.55568   0.00000  Uiso   1.00
H399   H     0.52444   0.25679   0.73374   0.00000  Uiso   1.00
H400   H     0.46066   0.25142   0.71225   0.00000  Uiso   1.00
H401   H     0.55951   0.14550   0.71315   0.00000  Uiso   1.00
H402   H     0.55172   0.36772   0.80282   0.00000  Uiso   1.00
H403   H     0.39221   0.25443   0.64581   0.00000  Uiso   1.00
H404   H     0.60067   0.03113   0.64772   0.00000  Uiso   1.00
H405   H     0.58424   0.49971   0.83682   0.00000  Uiso   1.00
O406   O     0.35805   0.28185   0.48518   0.00000  Uiso   1.00
O407   O     0.63153   0.98890   0.48769   0.00000  Uiso   1.00
O408   O     0.60998   0.60367   0.73577   0.00000  Uiso   1.00
N409   N     0.41240   0.30065   0.43380   0.00000  Uiso   1.00
N410   N     0.60728   0.09187   0.43558   0.00000  Uiso   1.00
N411   N     0.59193   0.52995   0.61237   0.00000  Uiso   1.00
N412   N     0.40435   0.26866   0.58507   0.00000  Uiso   1.00
N413   N     0.59924   0.05988   0.58685   0.00000  Uiso   1.00
N414   N     0.58389   0.49795   0.76364   0.00000  Uiso   1.00
C415   C     0.53790   0.81033   0.98060   0.00000  Uiso   1.00
C416   C     0.50134   0.79985   0.00468   0.00000  Uiso   1.00
C417   C     0.47509   0.80886   0.94065   0.00000  Uiso   1.00
C418   C     0.44348   0.79669   0.97671   0.00000  Uiso   1.00
C419   C     0.38750   0.78349   0.99937   0.00000  Uiso   1.00
C420   C     0.55505   0.74230   0.00516   0.00000  Uiso   1.00
C421   C     0.57396   0.70293   0.94154   0.00000  Uiso   1.00
C422   C     0.58756   0.64231   0.97802   0.00000  Uiso   1.00
C423   C     0.61499   0.53980   0.00146   0.00000  Uiso   1.00
C424   C     0.55082   0.86304   0.05388   0.00000  Uiso   1.00
C425   C     0.56617   0.92518   0.03123   0.00000  Uiso   1.00
C426   C     0.57621   0.96621   0.10873   0.00000  Uiso   1.00
C427   C     0.59706   0.05116   0.20781   0.00000  Uiso   1.00
C428   C     0.52844   0.77271   0.15850   0.00000  Uiso   1.00
C429   C     0.49621   0.77942   0.10131   0.00000  Uiso   1.00
C430   C     0.46463   0.76723   0.13747   0.00000  Uiso   1.00
C431   C     0.43833   0.77622   0.07351   0.00000  Uiso   1.00
C432   C     0.54991   0.72187   0.10179   0.00000  Uiso   1.00
C433   C     0.56349   0.66130   0.13837   0.00000  Uiso   1.00
C434   C     0.58241   0.62184   0.07482   0.00000  Uiso   1.00
C435   C     0.54568   0.84261   0.15051   0.00000  Uiso   1.00
C436   C     0.55570   0.88355   0.22806   0.00000  Uiso   1.00
C437   C     0.57107   0.94574   0.20553   0.00000  Uiso   1.00
H438   H     0.54190   0.82624   0.90538   0.00000  Uiso   1.00
H439   H     0.47908   0.82467   0.86587   0.00000  Uiso   1.00
H440   H     0.57793   0.71876   0.86677   0.00000  Uiso   1.00
H441   H     0.57014   0.94097   0.95645   0.00000  Uiso   1.00
H442   H     0.40716   0.81389   0.86468   0.00000  Uiso   1.00
H443   H     0.61561   0.59059   0.86659   0.00000  Uiso   1.00
H444   H     0.59919   0.05917   0.05568   0.00000  Uiso   1.00
H445   H     0.52444   0.75679   0.23374   0.00000  Uiso   1.00
H446   H     0.46066   0.75142   0.21225   0.00000  Uiso   1.00
H447   H     0.55951   0.64550   0.21315   0.00000  Uiso   1.00
H448   H     0.55172   0.86772   0.30282   0.00000  Uiso   1.00
H449   H     0.39221   0.75443   0.14581   0.00000  Uiso   1.00
H450   H     0.60067   0.53113   0.14772   0.00000  Uiso   1.00
H451   H     0.58424   0.99971   0.33682   0.00000  Uiso   1.00
O452   O     0.35805   0.78185   0.98518   0.00000  Uiso   1.00
O453   O     0.63153   0.48890   0.98769   0.00000  Uiso   1.00
O454   O     0.60998   0.10367   0.23577   0.00000  Uiso   1.00
N455   N     0.41240   0.80065   0.93380   0.00000  Uiso   1.00
N456   N     0.60728   0.59187   0.93558   0.00000  Uiso   1.00
N457   N     0.59193   0.02995   0.11237   0.00000  Uiso   1.00
N458   N     0.40435   0.76866   0.08507   0.00000  Uiso   1.00
N459   N     0.59924   0.55988   0.08685   0.00000  Uiso   1.00
N460   N     0.58389   0.99795   0.26364   0.00000  Uiso   1.00
C461   C     0.03790   0.31033   0.98060   0.00000  Uiso   1.00
C462   C     0.00134   0.29985   0.00468   0.00000  Uiso   1.00
C463   C     0.97509   0.30886   0.94065   0.00000  Uiso   1.00
C464   C     0.94348   0.29669   0.97671   0.00000  Uiso   1.00
C465   C     0.88750   0.28349   0.99937   0.00000  Uiso   1.00
C466   C     0.05505   0.24230   0.00516   0.00000  Uiso   1.00
C467   C     0.07396   0.20293   0.94154   0.00000  Uiso   1.00
C468   C     0.08756   0.14231   0.97802   0.00000  Uiso   1.00
C469   C     0.11499   0.03980   0.00146   0.00000  Uiso   1.00
C470   C     0.05082   0.36304   0.05388   0.00000  Uiso   1.00
C471   C     0.06617   0.42518   0.03123   0.00000  Uiso   1.00
C472   C     0.07621   0.46621   0.10873   0.00000  Uiso   1.00
C473   C     0.09706   0.55116   0.20781   0.00000  Uiso   1.00
C474   C     0.02844   0.27271   0.15850   0.00000  Uiso   1.00
C475   C     0.99621   0.27942   0.10131   0.00000  Uiso   1.00
C476   C     0.96463   0.26723   0.13747   0.00000  Uiso   1.00
C477   C     0.93833   0.27622   0.07351   0.00000  Uiso   1.00
C478   C     0.04991   0.22187   0.10179   0.00000  Uiso   1.00
C479   C     0.06349   0.16130   0.13837   0.00000  Uiso   1.00
C480   C     0.08241   0.12184   0.07482   0.00000  Uiso   1.00
C481   C     0.04568   0.34261   0.15051   0.00000  Uiso   1.00
C482   C     0.05570   0.38355   0.22806   0.00000  Uiso   1.00
C483   C     0.07107   0.44574   0.20553   0.00000  Uiso   1.00
H484   H     0.04190   0.32624   0.90538   0.00000  Uiso   1.00
H485   H     0.97908   0.32467   0.86587   0.00000  Uiso   1.00
H486   H     0.07793   0.21876   0.86677   0.00000  Uiso   1.00
H487   H     0.07014   0.44097   0.95645   0.00000  Uiso   1.00
H488   H     0.90716   0.31389   0.86468   0.00000  Uiso   1.00
H489   H     0.11561   0.09059   0.86659   0.00000  Uiso   1.00
H490   H     0.09919   0.55917   0.05568   0.00000  Uiso   1.00
H491   H     0.02444   0.25679   0.23374   0.00000  Uiso   1.00
H492   H     0.96066   0.25142   0.21225   0.00000  Uiso   1.00
H493   H     0.05951   0.14550   0.21315   0.00000  Uiso   1.00
H494   H     0.05172   0.36772   0.30282   0.00000  Uiso   1.00
H495   H     0.89221   0.25443   0.14581   0.00000  Uiso   1.00
H496   H     0.10067   0.03113   0.14772   0.00000  Uiso   1.00
H497   H     0.08424   0.49971   0.33682   0.00000  Uiso   1.00
O498   O     0.85805   0.28185   0.98518   0.00000  Uiso   1.00
O499   O     0.13153   0.98890   0.98769   0.00000  Uiso   1.00
O500   O     0.10998   0.60367   0.23577   0.00000  Uiso   1.00
N501   N     0.91240   0.30065   0.93380   0.00000  Uiso   1.00
N502   N     0.10728   0.09187   0.93558   0.00000  Uiso   1.00
N503   N     0.09193   0.52995   0.11237   0.00000  Uiso   1.00
N504   N     0.90435   0.26866   0.08507   0.00000  Uiso   1.00
N505   N     0.09924   0.05988   0.08685   0.00000  Uiso   1.00
N506   N     0.08389   0.49795   0.26364   0.00000  Uiso   1.00
C507   C     0.03790   0.81033   0.48060   0.00000  Uiso   1.00
C508   C     0.00134   0.79985   0.50468   0.00000  Uiso   1.00
C509   C     0.97509   0.80886   0.44065   0.00000  Uiso   1.00
C510   C     0.94348   0.79669   0.47671   0.00000  Uiso   1.00
C511   C     0.88750   0.78349   0.49937   0.00000  Uiso   1.00
C512   C     0.05505   0.74230   0.50516   0.00000  Uiso   1.00
C513   C     0.07396   0.70293   0.44154   0.00000  Uiso   1.00
C514   C     0.08756   0.64231   0.47802   0.00000  Uiso   1.00
C515   C     0.11499   0.53980   0.50146   0.00000  Uiso   1.00
C516   C     0.05082   0.86304   0.55388   0.00000  Uiso   1.00
C517   C     0.06617   0.92518   0.53123   0.00000  Uiso   1.00
C518   C     0.07621   0.96621   0.60873   0.00000  Uiso   1.00
C519   C     0.09706   0.05116   0.70781   0.00000  Uiso   1.00
C520   C     0.02844   0.77271   0.65850   0.00000  Uiso   1.00
C521   C     0.99621   0.77942   0.60131   0.00000  Uiso   1.00
C522   C     0.96463   0.76723   0.63747   0.00000  Uiso   1.00
C523   C     0.93833   0.77622   0.57351   0.00000  Uiso   1.00
C524   C     0.04991   0.72187   0.60179   0.00000  Uiso   1.00
C525   C     0.06349   0.66130   0.63837   0.00000  Uiso   1.00
C526   C     0.08241   0.62184   0.57482   0.00000  Uiso   1.00
C527   C     0.04568   0.84261   0.65051   0.00000  Uiso   1.00
C528   C     0.05570   0.88355   0.72806   0.00000  Uiso   1.00
C529   C     0.07107   0.94574   0.70553   0.00000  Uiso   1.00
H530   H     0.04190   0.82624   0.40538   0.00000  Uiso   1.00
H531   H     0.97908   0.82467   0.36587   0.00000  Uiso   1.00
H532   H     0.07793   0.71876   0.36677   0.00000  Uiso   1.00
H533   H     0.07014   0.94097   0.45645   0.00000  Uiso   1.00
H534   H     0.90716   0.81389   0.36468   0.00000  Uiso   1.00
H535   H     0.11561   0.59059   0.36659   0.00000  Uiso   1.00
H536   H     0.09919   0.05917   0.55568   0.00000  Uiso   1.00
H537   H     0.02444   0.75679   0.73374   0.00000  Uiso   1.00
H538   H     0.96066   0.75142   0.71225   0.00000  Uiso   1.00
H539   H     0.05951   0.64550   0.71315   0.00000  Uiso   1.00
H540   H     0.05172   0.86772   0.80282   0.00000  Uiso   1.00
H541   H     0.89221   0.75443   0.64581   0.00000  Uiso   1.00
H542   H     0.10067   0.53113   0.64772   0.00000  Uiso   1.00
H543   H     0.08424   0.99971   0.83682   0.00000  Uiso   1.00
O544   O     0.85805   0.78185   0.48518   0.00000  Uiso   1.00
O545   O     0.13153   0.48890   0.48769   0.00000  Uiso   1.00
O546   O     0.10998   0.10367   0.73577   0.00000  Uiso   1.00
N547   N     0.91240   0.80065   0.43380   0.00000  Uiso   1.00
N548   N     0.10728   0.59187   0.43558   0.00000  Uiso   1.00
N549   N     0.09193   0.02995   0.61237   0.00000  Uiso   1.00
N550   N     0.90435   0.76866   0.58507   0.00000  Uiso   1.00
N551   N     0.09924   0.55988   0.58685   0.00000  Uiso   1.00
N552   N     0.08389   0.99795   0.76364   0.00000  Uiso   1.00
C553   C     0.96210   0.18967   0.48060   0.00000  Uiso   1.00
C554   C     0.99866   0.20015   0.50468   0.00000  Uiso   1.00
C555   C     0.02491   0.19114   0.44065   0.00000  Uiso   1.00
C556   C     0.05652   0.20331   0.47671   0.00000  Uiso   1.00
C557   C     0.11250   0.21651   0.49937   0.00000  Uiso   1.00
C558   C     0.94495   0.25770   0.50516   0.00000  Uiso   1.00
C559   C     0.92604   0.29707   0.44154   0.00000  Uiso   1.00
C560   C     0.91244   0.35769   0.47802   0.00000  Uiso   1.00
C561   C     0.88501   0.46020   0.50146   0.00000  Uiso   1.00
C562   C     0.94918   0.13696   0.55388   0.00000  Uiso   1.00
C563   C     0.93383   0.07482   0.53123   0.00000  Uiso   1.00
C564   C     0.92379   0.03379   0.60873   0.00000  Uiso   1.00
C565   C     0.90294   0.94884   0.70781   0.00000  Uiso   1.00
C566   C     0.97156   0.22729   0.65850   0.00000  Uiso   1.00
C567   C     0.00379   0.22058   0.60131   0.00000  Uiso   1.00
C568   C     0.03537   0.23277   0.63747   0.00000  Uiso   1.00
C569   C     0.06167   0.22378   0.57351   0.00000  Uiso   1.00
C570   C     0.95009   0.27813   0.60179   0.00000  Uiso   1.00
C571   C     0.93651   0.33870   0.63837   0.00000  Uiso   1.00
C572   C     0.91759   0.37816   0.57482   0.00000  Uiso   1.00
C573   C     0.95432   0.15739   0.65051   0.00000  Uiso   1.00
C574   C     0.94430   0.11645   0.72806   0.00000  Uiso   1.00
C575   C     0.92893   0.05426   0.70553   0.00000  Uiso   1.00
H576   H     0.95810   0.17376   0.40538   0.00000  Uiso   1.00
H577   H     0.02092   0.17533   0.36587   0.00000  Uiso   1.00
H578   H     0.92207   0.28124   0.36677   0.00000  Uiso   1.00
H579   H     0.92986   0.05903   0.45645   0.00000  Uiso   1.00
H580   H     0.09284   0.18611   0.36468   0.00000  Uiso   1.00
H581   H     0.88439   0.40941   0.36659   0.00000  Uiso   1.00
H582   H     0.90081   0.94083   0.55568   0.00000  Uiso   1.00
H583   H     0.97556   0.24321   0.73374   0.00000  Uiso   1.00
H584   H     0.03934   0.24858   0.71225   0.00000  Uiso   1.00
H585   H     0.94049   0.35450   0.71315   0.00000  Uiso   1.00
H586   H     0.94828   0.13228   0.80282   0.00000  Uiso   1.00
H587   H     0.10779   0.24557   0.64581   0.00000  Uiso   1.00
H588   H     0.89933   0.46887   0.64772   0.00000  Uiso   1.00
H589   H     0.91576   0.00029   0.83682   0.00000  Uiso   1.00
O590   O     0.14195   0.21815   0.48518   0.00000  Uiso   1.00
O591   O     0.86847   0.51110   0.48769   0.00000  Uiso   1.00
O592   O     0.89002   0.89633   0.73577   0.00000  Uiso   1.00
N593   N     0.08760   0.19935   0.43380   0.00000  Uiso   1.00
N594   N     0.89272   0.40813   0.43558   0.00000  Uiso   1.00
N595   N     0.90807   0.97005   0.61237   0.00000  Uiso   1.00
N596   N     0.09565   0.23134   0.58507   0.00000  Uiso   1.00
N597   N     0.90076   0.44012   0.58685   0.00000  Uiso   1.00
N598   N     0.91611   0.00205   0.76364   0.00000  Uiso   1.00
C599   C     0.96210   0.68967   0.98060   0.00000  Uiso   1.00
C600   C     0.99866   0.70015   0.00468   0.00000  Uiso   1.00
C601   C     0.02491   0.69114   0.94065   0.00000  Uiso   1.00
C602   C     0.05652   0.70331   0.97671   0.00000  Uiso   1.00
C603   C     0.11250   0.71651   0.99937   0.00000  Uiso   1.00
C604   C     0.94495   0.75770   0.00516   0.00000  Uiso   1.00
C605   C     0.92604   0.79707   0.94154   0.00000  Uiso   1.00
C606   C     0.91244   0.85769   0.97802   0.00000  Uiso   1.00
C607   C     0.88501   0.96020   0.00146   0.00000  Uiso   1.00
C608   C     0.94918   0.63696   0.05388   0.00000  Uiso   1.00
C609   C     0.93383   0.57482   0.03123   0.00000  Uiso   1.00
C610   C     0.92379   0.53379   0.10873   0.00000  Uiso   1.00
C611   C     0.90294   0.44884   0.20781   0.00000  Uiso   1.00
C612   C     0.97156   0.72729   0.15850   0.00000  Uiso   1.00
C613   C     0.00379   0.72058   0.10131   0.00000  Uiso   1.00
C614   C     0.03537   0.73277   0.13747   0.00000  Uiso   1.00
C615   C     0.06167   0.72378   0.07351   0.00000  Uiso   1.00
C616   C     0.95009   0.77813   0.10179   0.00000  Uiso   1.00
C617   C     0.93651   0.83870   0.13837   0.00000  Uiso   1.00
C618   C     0.91759   0.87816   0.07482   0.00000  Uiso   1.00
C619   C     0.95432   0.65739   0.15051   0.00000  Uiso   1.00
C620   C     0.94430   0.61645   0.22806   0.00000  Uiso   1.00
C621   C     0.92893   0.55426   0.20553   0.00000  Uiso   1.00
H622   H     0.95810   0.67376   0.90538   0.00000  Uiso   1.00
H623   H     0.02092   0.67533   0.86587   0.00000  Uiso   1.00
H624   H     0.92207   0.78124   0.86677   0.00000  Uiso   1.00
H625   H     0.92986   0.55903   0.95645   0.00000  Uiso   1.00
H626   H     0.09284   0.68611   0.86468   0.00000  Uiso   1.00
H627   H     0.88439   0.90941   0.86659   0.00000  Uiso   1.00
H628   H     0.90081   0.44083   0.05568   0.00000  Uiso   1.00
H629   H     0.97556   0.74321   0.23374   0.00000  Uiso   1.00
H630   H     0.03934   0.74858   0.21225   0.00000  Uiso   1.00
H631   H     0.94049   0.85450   0.21315   0.00000  Uiso   1.00
H632   H     0.94828   0.63228   0.30282   0.00000  Uiso   1.00
H633   H     0.10779   0.74557   0.14581   0.00000  Uiso   1.00
H634   H     0.89933   0.96887   0.14772   0.00000  Uiso   1.00
H635   H     0.91576   0.50029   0.33682   0.00000  Uiso   1.00
O636   O     0.14195   0.71815   0.98518   0.00000  Uiso   1.00
O637   O     0.86847   0.01110   0.98769   0.00000  Uiso   1.00
O638   O     0.89002   0.39633   0.23577   0.00000  Uiso   1.00
N639   N     0.08760   0.69935   0.93380   0.00000  Uiso   1.00
N640   N     0.89272   0.90813   0.93558   0.00000  Uiso   1.00
N641   N     0.90807   0.47005   0.11237   0.00000  Uiso   1.00
N642   N     0.09565   0.73134   0.08507   0.00000  Uiso   1.00
N643   N     0.90076   0.94012   0.08685   0.00000  Uiso   1.00
N644   N     0.91611   0.50205   0.26364   0.00000  Uiso   1.00
C645   C     0.46210   0.18967   0.98060   0.00000  Uiso   1.00
C646   C     0.49866   0.20015   0.00468   0.00000  Uiso   1.00
C647   C     0.52491   0.19114   0.94065   0.00000  Uiso   1.00
C648   C     0.55652   0.20331   0.97671   0.00000  Uiso   1.00
C649   C     0.61250   0.21651   0.99937   0.00000  Uiso   1.00
C650   C     0.44495   0.25770   0.00516   0.00000  Uiso   1.00
C651   C     0.42604   0.29707   0.94154   0.00000  Uiso   1.00
C652   C     0.41244   0.35769   0.97802   0.00000  Uiso   1.00
C653   C     0.38501   0.46020   0.00146   0.00000  Uiso   1.00
C654   C     0.44918   0.13696   0.05388   0.00000  Uiso   1.00
C655   C     0.43383   0.07482   0.03123   0.00000  Uiso   1.00
C656   C     0.42379   0.03379   0.10873   0.00000  Uiso   1.00
C657   C     0.40294   0.94884   0.20781   0.00000  Uiso   1.00
C658   C     0.47156   0.22729   0.15850   0.00000  Uiso   1.00
C659   C     0.50379   0.22058   0.10131   0.00000  Uiso   1.00
C660   C     0.53537   0.23277   0.13747   0.00000  Uiso   1.00
C661   C     0.56167   0.22378   0.07351   0.00000  Uiso   1.00
C662   C     0.45009   0.27813   0.10179   0.00000  Uiso   1.00
C663   C     0.43651   0.33870   0.13837   0.00000  Uiso   1.00
C664   C     0.41759   0.37816   0.07482   0.00000  Uiso   1.00
C665   C     0.45432   0.15739   0.15051   0.00000  Uiso   1.00
C666   C     0.44430   0.11645   0.22806   0.00000  Uiso   1.00
C667   C     0.42893   0.05426   0.20553   0.00000  Uiso   1.00
H668   H     0.45810   0.17376   0.90538   0.00000  Uiso   1.00
H669   H     0.52092   0.17533   0.86587   0.00000  Uiso   1.00
H670   H     0.42207   0.28124   0.86677   0.00000  Uiso   1.00
H671   H     0.42986   0.05903   0.95645   0.00000  Uiso   1.00
H672   H     0.59284   0.18611   0.86468   0.00000  Uiso   1.00
H673   H     0.38439   0.40941   0.86659   0.00000  Uiso   1.00
H674   H     0.40081   0.94083   0.05568   0.00000  Uiso   1.00
H675   H     0.47556   0.24321   0.23374   0.00000  Uiso   1.00
H676   H     0.53934   0.24858   0.21225   0.00000  Uiso   1.00
H677   H     0.44049   0.35450   0.21315   0.00000  Uiso   1.00
H678   H     0.44828   0.13228   0.30282   0.00000  Uiso   1.00
H679   H     0.60779   0.24557   0.14581   0.00000  Uiso   1.00
H680   H     0.39933   0.46887   0.14772   0.00000  Uiso   1.00
H681   H     0.41576   0.00029   0.33682   0.00000  Uiso   1.00
O682   O     0.64195   0.21815   0.98518   0.00000  Uiso   1.00
O683   O     0.36847   0.51110   0.98769   0.00000  Uiso   1.00
O684   O     0.39002   0.89633   0.23577   0.00000  Uiso   1.00
N685   N     0.58760   0.19935   0.93380   0.00000  Uiso   1.00
N686   N     0.39272   0.40813   0.93558   0.00000  Uiso   1.00
N687   N     0.40807   0.97005   0.11237   0.00000  Uiso   1.00
N688   N     0.59565   0.23134   0.08507   0.00000  Uiso   1.00
N689   N     0.40076   0.44012   0.08685   0.00000  Uiso   1.00
N690   N     0.41611   0.00205   0.26364   0.00000  Uiso   1.00
C691   C     0.46210   0.68967   0.48060   0.00000  Uiso   1.00
C692   C     0.49866   0.70015   0.50468   0.00000  Uiso   1.00
C693   C     0.52491   0.69114   0.44065   0.00000  Uiso   1.00
C694   C     0.55652   0.70331   0.47671   0.00000  Uiso   1.00
C695   C     0.61250   0.71651   0.49937   0.00000  Uiso   1.00
C696   C     0.44495   0.75770   0.50516   0.00000  Uiso   1.00
C697   C     0.42604   0.79707   0.44154   0.00000  Uiso   1.00
C698   C     0.41244   0.85769   0.47802   0.00000  Uiso   1.00
C699   C     0.38501   0.96020   0.50146   0.00000  Uiso   1.00
C700   C     0.44918   0.63696   0.55388   0.00000  Uiso   1.00
C701   C     0.43383   0.57482   0.53123   0.00000  Uiso   1.00
C702   C     0.42379   0.53379   0.60873   0.00000  Uiso   1.00
C703   C     0.40294   0.44884   0.70781   0.00000  Uiso   1.00
C704   C     0.47156   0.72729   0.65850   0.00000  Uiso   1.00
C705   C     0.50379   0.72058   0.60131   0.00000  Uiso   1.00
C706   C     0.53537   0.73277   0.63747   0.00000  Uiso   1.00
C707   C     0.56167   0.72378   0.57351   0.00000  Uiso   1.00
C708   C     0.45009   0.77813   0.60179   0.00000  Uiso   1.00
C709   C     0.43651   0.83870   0.63837   0.00000  Uiso   1.00
C710   C     0.41759   0.87816   0.57482   0.00000  Uiso   1.00
C711   C     0.45432   0.65739   0.65051   0.00000  Uiso   1.00
C712   C     0.44430   0.61645   0.72806   0.00000  Uiso   1.00
C713   C     0.42893   0.55426   0.70553   0.00000  Uiso   1.00
H714   H     0.45810   0.67376   0.40538   0.00000  Uiso   1.00
H715   H     0.52092   0.67533   0.36587   0.00000  Uiso   1.00
H716   H     0.42207   0.78124   0.36677   0.00000  Uiso   1.00
H717   H     0.42986   0.55903   0.45645   0.00000  Uiso   1.00
H718   H     0.59284   0.68611   0.36468   0.00000  Uiso   1.00
H719   H     0.38439   0.90941   0.36659   0.00000  Uiso   1.00
H720   H     0.40081   0.44083   0.55568   0.00000  Uiso   1.00
H721   H     0.47556   0.74321   0.73374   0.00000  Uiso   1.00
H722   H     0.53934   0.74858   0.71225   0.00000  Uiso   1.00
H723   H     0.44049   0.85450   0.71315   0.00000  Uiso   1.00
H724   H     0.44828   0.63228   0.80282   0.00000  Uiso   1.00
H725   H     0.60779   0.74557   0.64581   0.00000  Uiso   1.00
H726   H     0.39933   0.96887   0.64772   0.00000  Uiso   1.00
H727   H     0.41576   0.50029   0.83682   0.00000  Uiso   1.00
O728   O     0.64195   0.71815   0.48518   0.00000  Uiso   1.00
O729   O     0.36847   0.01110   0.48769   0.00000  Uiso   1.00
O730   O     0.39002   0.39633   0.73577   0.00000  Uiso   1.00
N731   N     0.58760   0.69935   0.43380   0.00000  Uiso   1.00
N732   N     0.39272   0.90813   0.43558   0.00000  Uiso   1.00
N733   N     0.40807   0.47005   0.61237   0.00000  Uiso   1.00
N734   N     0.59565   0.73134   0.58507   0.00000  Uiso   1.00
N735   N     0.40076   0.94012   0.58685   0.00000  Uiso   1.00
N736   N     0.41611   0.50205   0.76364   0.00000  Uiso   1.00
