data_job_03187
_audit_creation_date              2018-12-19
_audit_creation_method            'Materials Studio'
_symmetry_space_group_name_H-M    'P1'
_symmetry_Int_Tables_number       1
_symmetry_cell_setting            triclinic
loop_
_symmetry_equiv_pos_as_xyz
  x,y,z
_cell_length_a                    20.7213
_cell_length_b                    20.7213
_cell_length_c                    38.3066
_cell_angle_alpha                 90.0000
_cell_angle_beta                  90.0000
_cell_angle_gamma                 90.0000
loop_
_atom_site_label
_atom_site_type_symbol
_atom_site_fract_x
_atom_site_fract_y
_atom_site_fract_z
_atom_site_U_iso_or_equiv
_atom_site_adp_type
_atom_site_occupancy
C1     C     0.70462   0.33325   0.70126   0.00000  Uiso   1.00
C2     C     0.70889   0.34898   0.66244   0.00000  Uiso   1.00
C3     C     0.75741   0.32898   0.63993   0.00000  Uiso   1.00
C4     C     0.75259   0.34846   0.60535   0.00000  Uiso   1.00
C5     C     0.76708   0.36712   0.54685   0.00000  Uiso   1.00
C6     C     0.70070   0.39798   0.72008   0.00000  Uiso   1.00
C7     C     0.74233   0.41916   0.74605   0.00000  Uiso   1.00
C8     C     0.73061   0.47989   0.75999   0.00000  Uiso   1.00
C9     C     0.73235   0.57459   0.79100   0.00000  Uiso   1.00
C10    C     0.63927   0.30088   0.70660   0.00000  Uiso   1.00
C11    C     0.62925   0.24044   0.72123   0.00000  Uiso   1.00
C12    C     0.56580   0.21942   0.72383   0.00000  Uiso   1.00
C13    C     0.47217   0.16336   0.73390   0.00000  Uiso   1.00
C14    C     0.60977   0.40341   0.67987   0.00000  Uiso   1.00
C15    C     0.65737   0.38709   0.65082   0.00000  Uiso   1.00
C16    C     0.65248   0.40661   0.61627   0.00000  Uiso   1.00
C17    C     0.70098   0.38664   0.59371   0.00000  Uiso   1.00
C18    C     0.64919   0.43609   0.70847   0.00000  Uiso   1.00
C19    C     0.63740   0.49679   0.72238   0.00000  Uiso   1.00
C20    C     0.67900   0.51807   0.74836   0.00000  Uiso   1.00
C21    C     0.58775   0.33899   0.69498   0.00000  Uiso   1.00
C22    C     0.52431   0.31806   0.69756   0.00000  Uiso   1.00
C23    C     0.51420   0.25760   0.71219   0.00000  Uiso   1.00
H24    H     0.74473   0.30358   0.71031   0.00000  Uiso   1.00
H25    H     0.79728   0.29949   0.64894   0.00000  Uiso   1.00
H26    H     0.78219   0.38966   0.75504   0.00000  Uiso   1.00
H27    H     0.66913   0.21096   0.73022   0.00000  Uiso   1.00
H28    H     0.83283   0.31179   0.57577   0.00000  Uiso   1.00
H29    H     0.80101   0.50190   0.79950   0.00000  Uiso   1.00
H30    H     0.56259   0.12507   0.74717   0.00000  Uiso   1.00
H31    H     0.56966   0.43308   0.67082   0.00000  Uiso   1.00
H32    H     0.61260   0.43610   0.60728   0.00000  Uiso   1.00
H33    H     0.59752   0.52627   0.71338   0.00000  Uiso   1.00
H34    H     0.48446   0.34756   0.68857   0.00000  Uiso   1.00
H35    H     0.68295   0.42266   0.54197   0.00000  Uiso   1.00
H36    H     0.65113   0.61277   0.76569   0.00000  Uiso   1.00
H37    H     0.41271   0.23595   0.71336   0.00000  Uiso   1.00
O38    O     0.78931   0.36689   0.51779   0.00000  Uiso   1.00
O39    O     0.74755   0.61630   0.81131   0.00000  Uiso   1.00
O40    O     0.43476   0.12191   0.74265   0.00000  Uiso   1.00
N41    N     0.79165   0.33746   0.57654   0.00000  Uiso   1.00
N42    N     0.76191   0.51520   0.78570   0.00000  Uiso   1.00
N43    N     0.53901   0.16291   0.73679   0.00000  Uiso   1.00
N44    N     0.71100   0.39712   0.55834   0.00000  Uiso   1.00
N45    N     0.68126   0.57486   0.76751   0.00000  Uiso   1.00
N46    N     0.45836   0.22257   0.71860   0.00000  Uiso   1.00
C47    C     0.20462   0.83325   0.20126   0.00000  Uiso   1.00
C48    C     0.20889   0.84898   0.16244   0.00000  Uiso   1.00
C49    C     0.25741   0.82898   0.13993   0.00000  Uiso   1.00
C50    C     0.25259   0.84846   0.10535   0.00000  Uiso   1.00
C51    C     0.26708   0.86712   0.04685   0.00000  Uiso   1.00
C52    C     0.20070   0.89798   0.22008   0.00000  Uiso   1.00
C53    C     0.24233   0.91916   0.24605   0.00000  Uiso   1.00
C54    C     0.23061   0.97989   0.25999   0.00000  Uiso   1.00
C55    C     0.23235   0.07459   0.29100   0.00000  Uiso   1.00
C56    C     0.13927   0.80088   0.20660   0.00000  Uiso   1.00
C57    C     0.12925   0.74044   0.22123   0.00000  Uiso   1.00
C58    C     0.06580   0.71942   0.22383   0.00000  Uiso   1.00
C59    C     0.97217   0.66336   0.23390   0.00000  Uiso   1.00
C60    C     0.10977   0.90341   0.17987   0.00000  Uiso   1.00
C61    C     0.15737   0.88709   0.15082   0.00000  Uiso   1.00
C62    C     0.15248   0.90661   0.11627   0.00000  Uiso   1.00
C63    C     0.20098   0.88664   0.09371   0.00000  Uiso   1.00
C64    C     0.14919   0.93609   0.20847   0.00000  Uiso   1.00
C65    C     0.13740   0.99679   0.22238   0.00000  Uiso   1.00
C66    C     0.17900   0.01807   0.24836   0.00000  Uiso   1.00
C67    C     0.08775   0.83899   0.19498   0.00000  Uiso   1.00
C68    C     0.02431   0.81806   0.19756   0.00000  Uiso   1.00
C69    C     0.01420   0.75760   0.21219   0.00000  Uiso   1.00
H70    H     0.24473   0.80358   0.21031   0.00000  Uiso   1.00
H71    H     0.29728   0.79949   0.14894   0.00000  Uiso   1.00
H72    H     0.28219   0.88966   0.25504   0.00000  Uiso   1.00
H73    H     0.16913   0.71096   0.23022   0.00000  Uiso   1.00
H74    H     0.33283   0.81179   0.07577   0.00000  Uiso   1.00
H75    H     0.30101   0.00190   0.29950   0.00000  Uiso   1.00
H76    H     0.06259   0.62507   0.24717   0.00000  Uiso   1.00
H77    H     0.06966   0.93308   0.17082   0.00000  Uiso   1.00
H78    H     0.11260   0.93610   0.10728   0.00000  Uiso   1.00
H79    H     0.09752   0.02627   0.21338   0.00000  Uiso   1.00
H80    H     0.98446   0.84756   0.18857   0.00000  Uiso   1.00
H81    H     0.18295   0.92266   0.04197   0.00000  Uiso   1.00
H82    H     0.15113   0.11277   0.26569   0.00000  Uiso   1.00
H83    H     0.91271   0.73595   0.21336   0.00000  Uiso   1.00
O84    O     0.28931   0.86689   0.01779   0.00000  Uiso   1.00
O85    O     0.24755   0.11630   0.31131   0.00000  Uiso   1.00
O86    O     0.93476   0.62191   0.24265   0.00000  Uiso   1.00
N87    N     0.29165   0.83746   0.07654   0.00000  Uiso   1.00
N88    N     0.26191   0.01520   0.28570   0.00000  Uiso   1.00
N89    N     0.03901   0.66291   0.23679   0.00000  Uiso   1.00
N90    N     0.21100   0.89712   0.05834   0.00000  Uiso   1.00
N91    N     0.18126   0.07486   0.26751   0.00000  Uiso   1.00
N92    N     0.95836   0.72257   0.21860   0.00000  Uiso   1.00
C93    C     0.29538   0.66675   0.70126   0.00000  Uiso   1.00
C94    C     0.29111   0.65102   0.66244   0.00000  Uiso   1.00
C95    C     0.24259   0.67102   0.63993   0.00000  Uiso   1.00
C96    C     0.24741   0.65154   0.60535   0.00000  Uiso   1.00
C97    C     0.23292   0.63288   0.54685   0.00000  Uiso   1.00
C98    C     0.29930   0.60202   0.72008   0.00000  Uiso   1.00
C99    C     0.25767   0.58084   0.74605   0.00000  Uiso   1.00
C100   C     0.26939   0.52011   0.75999   0.00000  Uiso   1.00
C101   C     0.26765   0.42541   0.79100   0.00000  Uiso   1.00
C102   C     0.36073   0.69912   0.70660   0.00000  Uiso   1.00
C103   C     0.37075   0.75956   0.72123   0.00000  Uiso   1.00
C104   C     0.43420   0.78058   0.72383   0.00000  Uiso   1.00
C105   C     0.52783   0.83664   0.73390   0.00000  Uiso   1.00
C106   C     0.39023   0.59659   0.67987   0.00000  Uiso   1.00
C107   C     0.34263   0.61291   0.65082   0.00000  Uiso   1.00
C108   C     0.34752   0.59339   0.61627   0.00000  Uiso   1.00
C109   C     0.29902   0.61336   0.59371   0.00000  Uiso   1.00
C110   C     0.35081   0.56391   0.70847   0.00000  Uiso   1.00
C111   C     0.36260   0.50321   0.72238   0.00000  Uiso   1.00
C112   C     0.32100   0.48193   0.74836   0.00000  Uiso   1.00
C113   C     0.41225   0.66101   0.69498   0.00000  Uiso   1.00
C114   C     0.47569   0.68194   0.69756   0.00000  Uiso   1.00
C115   C     0.48580   0.74240   0.71219   0.00000  Uiso   1.00
H116   H     0.25527   0.69642   0.71031   0.00000  Uiso   1.00
H117   H     0.20272   0.70051   0.64894   0.00000  Uiso   1.00
H118   H     0.21781   0.61034   0.75504   0.00000  Uiso   1.00
H119   H     0.33087   0.78904   0.73022   0.00000  Uiso   1.00
H120   H     0.16717   0.68821   0.57577   0.00000  Uiso   1.00
H121   H     0.19899   0.49810   0.79950   0.00000  Uiso   1.00
H122   H     0.43741   0.87493   0.74717   0.00000  Uiso   1.00
H123   H     0.43034   0.56692   0.67082   0.00000  Uiso   1.00
H124   H     0.38740   0.56390   0.60728   0.00000  Uiso   1.00
H125   H     0.40248   0.47373   0.71338   0.00000  Uiso   1.00
H126   H     0.51554   0.65244   0.68857   0.00000  Uiso   1.00
H127   H     0.31705   0.57734   0.54197   0.00000  Uiso   1.00
H128   H     0.34887   0.38723   0.76569   0.00000  Uiso   1.00
H129   H     0.58729   0.76405   0.71336   0.00000  Uiso   1.00
O130   O     0.21069   0.63311   0.51779   0.00000  Uiso   1.00
O131   O     0.25245   0.38370   0.81131   0.00000  Uiso   1.00
O132   O     0.56524   0.87809   0.74265   0.00000  Uiso   1.00
N133   N     0.20835   0.66254   0.57654   0.00000  Uiso   1.00
N134   N     0.23809   0.48480   0.78570   0.00000  Uiso   1.00
N135   N     0.46099   0.83709   0.73679   0.00000  Uiso   1.00
N136   N     0.28900   0.60288   0.55834   0.00000  Uiso   1.00
N137   N     0.31874   0.42514   0.76751   0.00000  Uiso   1.00
N138   N     0.54164   0.77743   0.71860   0.00000  Uiso   1.00
C139   C     0.79538   0.16675   0.20126   0.00000  Uiso   1.00
C140   C     0.79111   0.15102   0.16244   0.00000  Uiso   1.00
C141   C     0.74259   0.17102   0.13993   0.00000  Uiso   1.00
C142   C     0.74741   0.15154   0.10535   0.00000  Uiso   1.00
C143   C     0.73292   0.13288   0.04685   0.00000  Uiso   1.00
C144   C     0.79930   0.10202   0.22008   0.00000  Uiso   1.00
C145   C     0.75767   0.08084   0.24605   0.00000  Uiso   1.00
C146   C     0.76939   0.02011   0.25999   0.00000  Uiso   1.00
C147   C     0.76765   0.92541   0.29100   0.00000  Uiso   1.00
C148   C     0.86073   0.19912   0.20660   0.00000  Uiso   1.00
C149   C     0.87075   0.25956   0.22123   0.00000  Uiso   1.00
C150   C     0.93420   0.28058   0.22383   0.00000  Uiso   1.00
C151   C     0.02783   0.33664   0.23390   0.00000  Uiso   1.00
C152   C     0.89023   0.09659   0.17987   0.00000  Uiso   1.00
C153   C     0.84263   0.11291   0.15082   0.00000  Uiso   1.00
C154   C     0.84752   0.09339   0.11627   0.00000  Uiso   1.00
C155   C     0.79902   0.11336   0.09371   0.00000  Uiso   1.00
C156   C     0.85081   0.06391   0.20847   0.00000  Uiso   1.00
C157   C     0.86260   0.00321   0.22238   0.00000  Uiso   1.00
C158   C     0.82100   0.98193   0.24836   0.00000  Uiso   1.00
C159   C     0.91225   0.16101   0.19498   0.00000  Uiso   1.00
C160   C     0.97569   0.18194   0.19756   0.00000  Uiso   1.00
C161   C     0.98580   0.24240   0.21219   0.00000  Uiso   1.00
H162   H     0.75527   0.19642   0.21031   0.00000  Uiso   1.00
H163   H     0.70272   0.20051   0.14894   0.00000  Uiso   1.00
H164   H     0.71781   0.11034   0.25504   0.00000  Uiso   1.00
H165   H     0.83087   0.28904   0.23022   0.00000  Uiso   1.00
H166   H     0.66717   0.18821   0.07577   0.00000  Uiso   1.00
H167   H     0.69899   0.99810   0.29950   0.00000  Uiso   1.00
H168   H     0.93741   0.37493   0.24717   0.00000  Uiso   1.00
H169   H     0.93034   0.06692   0.17082   0.00000  Uiso   1.00
H170   H     0.88740   0.06390   0.10728   0.00000  Uiso   1.00
H171   H     0.90248   0.97373   0.21338   0.00000  Uiso   1.00
H172   H     0.01554   0.15244   0.18857   0.00000  Uiso   1.00
H173   H     0.81705   0.07734   0.04197   0.00000  Uiso   1.00
H174   H     0.84887   0.88723   0.26569   0.00000  Uiso   1.00
H175   H     0.08729   0.26405   0.21336   0.00000  Uiso   1.00
O176   O     0.71069   0.13311   0.01779   0.00000  Uiso   1.00
O177   O     0.75245   0.88370   0.31131   0.00000  Uiso   1.00
O178   O     0.06524   0.37809   0.24265   0.00000  Uiso   1.00
N179   N     0.70835   0.16254   0.07654   0.00000  Uiso   1.00
N180   N     0.73809   0.98480   0.28570   0.00000  Uiso   1.00
N181   N     0.96099   0.33709   0.23679   0.00000  Uiso   1.00
N182   N     0.78900   0.10288   0.05834   0.00000  Uiso   1.00
N183   N     0.81874   0.92514   0.26751   0.00000  Uiso   1.00
N184   N     0.04164   0.27743   0.21860   0.00000  Uiso   1.00
C185   C     0.33325   0.29538   0.29874   0.00000  Uiso   1.00
C186   C     0.34898   0.29111   0.33756   0.00000  Uiso   1.00
C187   C     0.32898   0.24259   0.36007   0.00000  Uiso   1.00
C188   C     0.34846   0.24741   0.39465   0.00000  Uiso   1.00
C189   C     0.36712   0.23292   0.45315   0.00000  Uiso   1.00
C190   C     0.39798   0.29930   0.27992   0.00000  Uiso   1.00
C191   C     0.41916   0.25767   0.25395   0.00000  Uiso   1.00
C192   C     0.47989   0.26939   0.24001   0.00000  Uiso   1.00
C193   C     0.57459   0.26765   0.20900   0.00000  Uiso   1.00
C194   C     0.30088   0.36073   0.29340   0.00000  Uiso   1.00
C195   C     0.24044   0.37075   0.27877   0.00000  Uiso   1.00
C196   C     0.21942   0.43420   0.27617   0.00000  Uiso   1.00
C197   C     0.16336   0.52783   0.26610   0.00000  Uiso   1.00
C198   C     0.40341   0.39023   0.32013   0.00000  Uiso   1.00
C199   C     0.38709   0.34263   0.34918   0.00000  Uiso   1.00
C200   C     0.40661   0.34752   0.38373   0.00000  Uiso   1.00
C201   C     0.38664   0.29902   0.40629   0.00000  Uiso   1.00
C202   C     0.43609   0.35081   0.29153   0.00000  Uiso   1.00
C203   C     0.49679   0.36260   0.27762   0.00000  Uiso   1.00
C204   C     0.51807   0.32100   0.25164   0.00000  Uiso   1.00
C205   C     0.33899   0.41225   0.30502   0.00000  Uiso   1.00
C206   C     0.31806   0.47569   0.30244   0.00000  Uiso   1.00
C207   C     0.25760   0.48580   0.28781   0.00000  Uiso   1.00
H208   H     0.30358   0.25527   0.28969   0.00000  Uiso   1.00
H209   H     0.29949   0.20272   0.35106   0.00000  Uiso   1.00
H210   H     0.38966   0.21781   0.24496   0.00000  Uiso   1.00
H211   H     0.21096   0.33087   0.26978   0.00000  Uiso   1.00
H212   H     0.31179   0.16717   0.42423   0.00000  Uiso   1.00
H213   H     0.50190   0.19899   0.20050   0.00000  Uiso   1.00
H214   H     0.12507   0.43741   0.25283   0.00000  Uiso   1.00
H215   H     0.43308   0.43034   0.32918   0.00000  Uiso   1.00
H216   H     0.43610   0.38740   0.39272   0.00000  Uiso   1.00
H217   H     0.52627   0.40248   0.28662   0.00000  Uiso   1.00
H218   H     0.34756   0.51554   0.31143   0.00000  Uiso   1.00
H219   H     0.42266   0.31705   0.45803   0.00000  Uiso   1.00
H220   H     0.61277   0.34887   0.23431   0.00000  Uiso   1.00
H221   H     0.23595   0.58729   0.28664   0.00000  Uiso   1.00
O222   O     0.36689   0.21069   0.48221   0.00000  Uiso   1.00
O223   O     0.61630   0.25245   0.18869   0.00000  Uiso   1.00
O224   O     0.12191   0.56524   0.25735   0.00000  Uiso   1.00
N225   N     0.33746   0.20835   0.42346   0.00000  Uiso   1.00
N226   N     0.51520   0.23809   0.21430   0.00000  Uiso   1.00
N227   N     0.16291   0.46099   0.26321   0.00000  Uiso   1.00
N228   N     0.39712   0.28900   0.44166   0.00000  Uiso   1.00
N229   N     0.57486   0.31874   0.23249   0.00000  Uiso   1.00
N230   N     0.22257   0.54164   0.28140   0.00000  Uiso   1.00
C231   C     0.83325   0.79538   0.79874   0.00000  Uiso   1.00
C232   C     0.84898   0.79111   0.83756   0.00000  Uiso   1.00
C233   C     0.82898   0.74259   0.86007   0.00000  Uiso   1.00
C234   C     0.84846   0.74741   0.89465   0.00000  Uiso   1.00
C235   C     0.86712   0.73292   0.95315   0.00000  Uiso   1.00
C236   C     0.89798   0.79930   0.77992   0.00000  Uiso   1.00
C237   C     0.91916   0.75767   0.75395   0.00000  Uiso   1.00
C238   C     0.97989   0.76939   0.74001   0.00000  Uiso   1.00
C239   C     0.07459   0.76765   0.70900   0.00000  Uiso   1.00
C240   C     0.80088   0.86073   0.79340   0.00000  Uiso   1.00
C241   C     0.74044   0.87075   0.77877   0.00000  Uiso   1.00
C242   C     0.71942   0.93420   0.77617   0.00000  Uiso   1.00
C243   C     0.66336   0.02783   0.76610   0.00000  Uiso   1.00
C244   C     0.90341   0.89023   0.82013   0.00000  Uiso   1.00
C245   C     0.88709   0.84263   0.84918   0.00000  Uiso   1.00
C246   C     0.90661   0.84752   0.88373   0.00000  Uiso   1.00
C247   C     0.88664   0.79902   0.90629   0.00000  Uiso   1.00
C248   C     0.93609   0.85081   0.79153   0.00000  Uiso   1.00
C249   C     0.99679   0.86260   0.77762   0.00000  Uiso   1.00
C250   C     0.01807   0.82100   0.75164   0.00000  Uiso   1.00
C251   C     0.83899   0.91225   0.80502   0.00000  Uiso   1.00
C252   C     0.81806   0.97569   0.80244   0.00000  Uiso   1.00
C253   C     0.75760   0.98580   0.78781   0.00000  Uiso   1.00
H254   H     0.80358   0.75527   0.78969   0.00000  Uiso   1.00
H255   H     0.79949   0.70272   0.85106   0.00000  Uiso   1.00
H256   H     0.88966   0.71781   0.74496   0.00000  Uiso   1.00
H257   H     0.71096   0.83087   0.76978   0.00000  Uiso   1.00
H258   H     0.81179   0.66717   0.92423   0.00000  Uiso   1.00
H259   H     0.00190   0.69899   0.70050   0.00000  Uiso   1.00
H260   H     0.62507   0.93741   0.75283   0.00000  Uiso   1.00
H261   H     0.93308   0.93034   0.82918   0.00000  Uiso   1.00
H262   H     0.93610   0.88740   0.89272   0.00000  Uiso   1.00
H263   H     0.02627   0.90248   0.78662   0.00000  Uiso   1.00
H264   H     0.84756   0.01554   0.81143   0.00000  Uiso   1.00
H265   H     0.92266   0.81705   0.95803   0.00000  Uiso   1.00
H266   H     0.11277   0.84887   0.73431   0.00000  Uiso   1.00
H267   H     0.73595   0.08729   0.78664   0.00000  Uiso   1.00
O268   O     0.86689   0.71069   0.98221   0.00000  Uiso   1.00
O269   O     0.11630   0.75245   0.68869   0.00000  Uiso   1.00
O270   O     0.62191   0.06524   0.75735   0.00000  Uiso   1.00
N271   N     0.83746   0.70835   0.92346   0.00000  Uiso   1.00
N272   N     0.01520   0.73809   0.71430   0.00000  Uiso   1.00
N273   N     0.66291   0.96099   0.76321   0.00000  Uiso   1.00
N274   N     0.89712   0.78900   0.94166   0.00000  Uiso   1.00
N275   N     0.07486   0.81874   0.73249   0.00000  Uiso   1.00
N276   N     0.72257   0.04164   0.78140   0.00000  Uiso   1.00
C277   C     0.66675   0.70462   0.29874   0.00000  Uiso   1.00
C278   C     0.65102   0.70889   0.33756   0.00000  Uiso   1.00
C279   C     0.67102   0.75741   0.36007   0.00000  Uiso   1.00
C280   C     0.65154   0.75259   0.39465   0.00000  Uiso   1.00
C281   C     0.63288   0.76708   0.45315   0.00000  Uiso   1.00
C282   C     0.60202   0.70070   0.27992   0.00000  Uiso   1.00
C283   C     0.58084   0.74233   0.25395   0.00000  Uiso   1.00
C284   C     0.52011   0.73061   0.24001   0.00000  Uiso   1.00
C285   C     0.42541   0.73235   0.20900   0.00000  Uiso   1.00
C286   C     0.69912   0.63927   0.29340   0.00000  Uiso   1.00
C287   C     0.75956   0.62925   0.27877   0.00000  Uiso   1.00
C288   C     0.78058   0.56580   0.27617   0.00000  Uiso   1.00
C289   C     0.83664   0.47217   0.26610   0.00000  Uiso   1.00
C290   C     0.59659   0.60977   0.32013   0.00000  Uiso   1.00
C291   C     0.61291   0.65737   0.34918   0.00000  Uiso   1.00
C292   C     0.59339   0.65248   0.38373   0.00000  Uiso   1.00
C293   C     0.61336   0.70098   0.40629   0.00000  Uiso   1.00
C294   C     0.56391   0.64919   0.29153   0.00000  Uiso   1.00
C295   C     0.50321   0.63740   0.27762   0.00000  Uiso   1.00
C296   C     0.48193   0.67900   0.25164   0.00000  Uiso   1.00
C297   C     0.66101   0.58775   0.30502   0.00000  Uiso   1.00
C298   C     0.68194   0.52431   0.30244   0.00000  Uiso   1.00
C299   C     0.74240   0.51420   0.28781   0.00000  Uiso   1.00
H300   H     0.69642   0.74473   0.28969   0.00000  Uiso   1.00
H301   H     0.70051   0.79728   0.35106   0.00000  Uiso   1.00
H302   H     0.61034   0.78219   0.24496   0.00000  Uiso   1.00
H303   H     0.78904   0.66913   0.26978   0.00000  Uiso   1.00
H304   H     0.68821   0.83283   0.42423   0.00000  Uiso   1.00
H305   H     0.49810   0.80101   0.20050   0.00000  Uiso   1.00
H306   H     0.87493   0.56259   0.25283   0.00000  Uiso   1.00
H307   H     0.56692   0.56966   0.32918   0.00000  Uiso   1.00
H308   H     0.56390   0.61260   0.39272   0.00000  Uiso   1.00
H309   H     0.47373   0.59752   0.28662   0.00000  Uiso   1.00
H310   H     0.65244   0.48446   0.31143   0.00000  Uiso   1.00
H311   H     0.57734   0.68295   0.45803   0.00000  Uiso   1.00
H312   H     0.38723   0.65113   0.23431   0.00000  Uiso   1.00
H313   H     0.76405   0.41271   0.28664   0.00000  Uiso   1.00
O314   O     0.63311   0.78931   0.48221   0.00000  Uiso   1.00
O315   O     0.38370   0.74755   0.18869   0.00000  Uiso   1.00
O316   O     0.87809   0.43476   0.25735   0.00000  Uiso   1.00
N317   N     0.66254   0.79165   0.42346   0.00000  Uiso   1.00
N318   N     0.48480   0.76191   0.21430   0.00000  Uiso   1.00
N319   N     0.83709   0.53901   0.26321   0.00000  Uiso   1.00
N320   N     0.60288   0.71100   0.44166   0.00000  Uiso   1.00
N321   N     0.42514   0.68126   0.23249   0.00000  Uiso   1.00
N322   N     0.77743   0.45836   0.28140   0.00000  Uiso   1.00
C323   C     0.16675   0.20462   0.79874   0.00000  Uiso   1.00
C324   C     0.15102   0.20889   0.83756   0.00000  Uiso   1.00
C325   C     0.17102   0.25741   0.86007   0.00000  Uiso   1.00
C326   C     0.15154   0.25259   0.89465   0.00000  Uiso   1.00
C327   C     0.13288   0.26708   0.95315   0.00000  Uiso   1.00
C328   C     0.10202   0.20070   0.77992   0.00000  Uiso   1.00
C329   C     0.08084   0.24233   0.75395   0.00000  Uiso   1.00
C330   C     0.02011   0.23061   0.74001   0.00000  Uiso   1.00
C331   C     0.92541   0.23235   0.70900   0.00000  Uiso   1.00
C332   C     0.19912   0.13927   0.79340   0.00000  Uiso   1.00
C333   C     0.25956   0.12925   0.77877   0.00000  Uiso   1.00
C334   C     0.28058   0.06580   0.77617   0.00000  Uiso   1.00
C335   C     0.33664   0.97217   0.76610   0.00000  Uiso   1.00
C336   C     0.09659   0.10977   0.82013   0.00000  Uiso   1.00
C337   C     0.11291   0.15737   0.84918   0.00000  Uiso   1.00
C338   C     0.09339   0.15248   0.88373   0.00000  Uiso   1.00
C339   C     0.11336   0.20098   0.90629   0.00000  Uiso   1.00
C340   C     0.06391   0.14919   0.79153   0.00000  Uiso   1.00
C341   C     0.00321   0.13740   0.77762   0.00000  Uiso   1.00
C342   C     0.98193   0.17900   0.75164   0.00000  Uiso   1.00
C343   C     0.16101   0.08775   0.80502   0.00000  Uiso   1.00
C344   C     0.18194   0.02431   0.80244   0.00000  Uiso   1.00
C345   C     0.24240   0.01420   0.78781   0.00000  Uiso   1.00
H346   H     0.19642   0.24473   0.78969   0.00000  Uiso   1.00
H347   H     0.20051   0.29728   0.85106   0.00000  Uiso   1.00
H348   H     0.11034   0.28219   0.74496   0.00000  Uiso   1.00
H349   H     0.28904   0.16913   0.76978   0.00000  Uiso   1.00
H350   H     0.18821   0.33283   0.92423   0.00000  Uiso   1.00
H351   H     0.99810   0.30101   0.70050   0.00000  Uiso   1.00
H352   H     0.37493   0.06259   0.75283   0.00000  Uiso   1.00
H353   H     0.06692   0.06966   0.82918   0.00000  Uiso   1.00
H354   H     0.06390   0.11260   0.89272   0.00000  Uiso   1.00
H355   H     0.97373   0.09752   0.78662   0.00000  Uiso   1.00
H356   H     0.15244   0.98446   0.81143   0.00000  Uiso   1.00
H357   H     0.07734   0.18295   0.95803   0.00000  Uiso   1.00
H358   H     0.88723   0.15113   0.73431   0.00000  Uiso   1.00
H359   H     0.26405   0.91271   0.78664   0.00000  Uiso   1.00
O360   O     0.13311   0.28931   0.98221   0.00000  Uiso   1.00
O361   O     0.88370   0.24755   0.68869   0.00000  Uiso   1.00
O362   O     0.37809   0.93476   0.75735   0.00000  Uiso   1.00
N363   N     0.16254   0.29165   0.92346   0.00000  Uiso   1.00
N364   N     0.98480   0.26191   0.71430   0.00000  Uiso   1.00
N365   N     0.33709   0.03901   0.76321   0.00000  Uiso   1.00
N366   N     0.10288   0.21100   0.94166   0.00000  Uiso   1.00
N367   N     0.92514   0.18126   0.73249   0.00000  Uiso   1.00
N368   N     0.27743   0.95836   0.78140   0.00000  Uiso   1.00
C369   C     0.79538   0.33325   0.04874   0.00000  Uiso   1.00
C370   C     0.79111   0.34898   0.08756   0.00000  Uiso   1.00
C371   C     0.74259   0.32898   0.11007   0.00000  Uiso   1.00
C372   C     0.74741   0.34846   0.14465   0.00000  Uiso   1.00
C373   C     0.73292   0.36712   0.20315   0.00000  Uiso   1.00
C374   C     0.79930   0.39798   0.02992   0.00000  Uiso   1.00
C375   C     0.75767   0.41916   0.00395   0.00000  Uiso   1.00
C376   C     0.76939   0.47989   0.99001   0.00000  Uiso   1.00
C377   C     0.76765   0.57459   0.95900   0.00000  Uiso   1.00
C378   C     0.86073   0.30088   0.04340   0.00000  Uiso   1.00
C379   C     0.87075   0.24044   0.02877   0.00000  Uiso   1.00
C380   C     0.93420   0.21942   0.02617   0.00000  Uiso   1.00
C381   C     0.02783   0.16336   0.01610   0.00000  Uiso   1.00
C382   C     0.89023   0.40341   0.07013   0.00000  Uiso   1.00
C383   C     0.84263   0.38709   0.09918   0.00000  Uiso   1.00
C384   C     0.84752   0.40661   0.13373   0.00000  Uiso   1.00
C385   C     0.79902   0.38664   0.15629   0.00000  Uiso   1.00
C386   C     0.85081   0.43609   0.04153   0.00000  Uiso   1.00
C387   C     0.86260   0.49679   0.02762   0.00000  Uiso   1.00
C388   C     0.82100   0.51807   0.00164   0.00000  Uiso   1.00
C389   C     0.91225   0.33899   0.05502   0.00000  Uiso   1.00
C390   C     0.97569   0.31806   0.05244   0.00000  Uiso   1.00
C391   C     0.98580   0.25760   0.03781   0.00000  Uiso   1.00
H392   H     0.75527   0.30358   0.03969   0.00000  Uiso   1.00
H393   H     0.70272   0.29949   0.10106   0.00000  Uiso   1.00
H394   H     0.71781   0.38966   0.99496   0.00000  Uiso   1.00
H395   H     0.83087   0.21096   0.01978   0.00000  Uiso   1.00
H396   H     0.66717   0.31179   0.17423   0.00000  Uiso   1.00
H397   H     0.69899   0.50190   0.95050   0.00000  Uiso   1.00
H398   H     0.93741   0.12507   0.00283   0.00000  Uiso   1.00
H399   H     0.93034   0.43308   0.07918   0.00000  Uiso   1.00
H400   H     0.88740   0.43610   0.14272   0.00000  Uiso   1.00
H401   H     0.90248   0.52627   0.03662   0.00000  Uiso   1.00
H402   H     0.01554   0.34756   0.06143   0.00000  Uiso   1.00
H403   H     0.81705   0.42266   0.20803   0.00000  Uiso   1.00
H404   H     0.84887   0.61277   0.98431   0.00000  Uiso   1.00
H405   H     0.08729   0.23595   0.03664   0.00000  Uiso   1.00
O406   O     0.71069   0.36689   0.23221   0.00000  Uiso   1.00
O407   O     0.75245   0.61630   0.93869   0.00000  Uiso   1.00
O408   O     0.06524   0.12191   0.00735   0.00000  Uiso   1.00
N409   N     0.70835   0.33746   0.17346   0.00000  Uiso   1.00
N410   N     0.73809   0.51520   0.96430   0.00000  Uiso   1.00
N411   N     0.96099   0.16291   0.01321   0.00000  Uiso   1.00
N412   N     0.78900   0.39712   0.19166   0.00000  Uiso   1.00
N413   N     0.81874   0.57486   0.98249   0.00000  Uiso   1.00
N414   N     0.04164   0.22257   0.03140   0.00000  Uiso   1.00
C415   C     0.29538   0.83325   0.54874   0.00000  Uiso   1.00
C416   C     0.29111   0.84898   0.58756   0.00000  Uiso   1.00
C417   C     0.24259   0.82898   0.61007   0.00000  Uiso   1.00
C418   C     0.24741   0.84846   0.64465   0.00000  Uiso   1.00
C419   C     0.23292   0.86712   0.70315   0.00000  Uiso   1.00
C420   C     0.29930   0.89798   0.52992   0.00000  Uiso   1.00
C421   C     0.25767   0.91916   0.50395   0.00000  Uiso   1.00
C422   C     0.26939   0.97989   0.49001   0.00000  Uiso   1.00
C423   C     0.26765   0.07459   0.45900   0.00000  Uiso   1.00
C424   C     0.36073   0.80088   0.54340   0.00000  Uiso   1.00
C425   C     0.37075   0.74044   0.52877   0.00000  Uiso   1.00
C426   C     0.43420   0.71942   0.52617   0.00000  Uiso   1.00
C427   C     0.52783   0.66336   0.51610   0.00000  Uiso   1.00
C428   C     0.39023   0.90341   0.57013   0.00000  Uiso   1.00
C429   C     0.34263   0.88709   0.59918   0.00000  Uiso   1.00
C430   C     0.34752   0.90661   0.63373   0.00000  Uiso   1.00
C431   C     0.29902   0.88664   0.65629   0.00000  Uiso   1.00
C432   C     0.35081   0.93609   0.54153   0.00000  Uiso   1.00
C433   C     0.36260   0.99679   0.52762   0.00000  Uiso   1.00
C434   C     0.32100   0.01807   0.50164   0.00000  Uiso   1.00
C435   C     0.41225   0.83899   0.55502   0.00000  Uiso   1.00
C436   C     0.47569   0.81806   0.55244   0.00000  Uiso   1.00
C437   C     0.48580   0.75760   0.53781   0.00000  Uiso   1.00
H438   H     0.25527   0.80358   0.53969   0.00000  Uiso   1.00
H439   H     0.20272   0.79949   0.60106   0.00000  Uiso   1.00
H440   H     0.21781   0.88966   0.49496   0.00000  Uiso   1.00
H441   H     0.33087   0.71096   0.51978   0.00000  Uiso   1.00
H442   H     0.16717   0.81179   0.67423   0.00000  Uiso   1.00
H443   H     0.19899   0.00190   0.45050   0.00000  Uiso   1.00
H444   H     0.43741   0.62507   0.50283   0.00000  Uiso   1.00
H445   H     0.43034   0.93308   0.57918   0.00000  Uiso   1.00
H446   H     0.38740   0.93610   0.64272   0.00000  Uiso   1.00
H447   H     0.40248   0.02627   0.53662   0.00000  Uiso   1.00
H448   H     0.51554   0.84756   0.56143   0.00000  Uiso   1.00
H449   H     0.31705   0.92266   0.70803   0.00000  Uiso   1.00
H450   H     0.34887   0.11277   0.48431   0.00000  Uiso   1.00
H451   H     0.58729   0.73595   0.53664   0.00000  Uiso   1.00
O452   O     0.21069   0.86689   0.73221   0.00000  Uiso   1.00
O453   O     0.25245   0.11630   0.43869   0.00000  Uiso   1.00
O454   O     0.56524   0.62191   0.50735   0.00000  Uiso   1.00
N455   N     0.20835   0.83746   0.67346   0.00000  Uiso   1.00
N456   N     0.23809   0.01520   0.46430   0.00000  Uiso   1.00
N457   N     0.46099   0.66291   0.51321   0.00000  Uiso   1.00
N458   N     0.28900   0.89712   0.69166   0.00000  Uiso   1.00
N459   N     0.31874   0.07486   0.48249   0.00000  Uiso   1.00
N460   N     0.54164   0.72257   0.53140   0.00000  Uiso   1.00
C461   C     0.20462   0.66675   0.04874   0.00000  Uiso   1.00
C462   C     0.20889   0.65102   0.08756   0.00000  Uiso   1.00
C463   C     0.25741   0.67102   0.11007   0.00000  Uiso   1.00
C464   C     0.25259   0.65154   0.14465   0.00000  Uiso   1.00
C465   C     0.26708   0.63288   0.20315   0.00000  Uiso   1.00
C466   C     0.20070   0.60202   0.02992   0.00000  Uiso   1.00
C467   C     0.24233   0.58084   0.00395   0.00000  Uiso   1.00
C468   C     0.23061   0.52011   0.99001   0.00000  Uiso   1.00
C469   C     0.23235   0.42541   0.95900   0.00000  Uiso   1.00
C470   C     0.13927   0.69912   0.04340   0.00000  Uiso   1.00
C471   C     0.12925   0.75956   0.02877   0.00000  Uiso   1.00
C472   C     0.06580   0.78058   0.02617   0.00000  Uiso   1.00
C473   C     0.97217   0.83664   0.01610   0.00000  Uiso   1.00
C474   C     0.10977   0.59659   0.07013   0.00000  Uiso   1.00
C475   C     0.15737   0.61291   0.09918   0.00000  Uiso   1.00
C476   C     0.15248   0.59339   0.13373   0.00000  Uiso   1.00
C477   C     0.20098   0.61336   0.15629   0.00000  Uiso   1.00
C478   C     0.14919   0.56391   0.04153   0.00000  Uiso   1.00
C479   C     0.13740   0.50321   0.02762   0.00000  Uiso   1.00
C480   C     0.17900   0.48193   0.00164   0.00000  Uiso   1.00
C481   C     0.08775   0.66101   0.05502   0.00000  Uiso   1.00
C482   C     0.02431   0.68194   0.05244   0.00000  Uiso   1.00
C483   C     0.01420   0.74240   0.03781   0.00000  Uiso   1.00
H484   H     0.24473   0.69642   0.03969   0.00000  Uiso   1.00
H485   H     0.29728   0.70051   0.10106   0.00000  Uiso   1.00
H486   H     0.28219   0.61034   0.99496   0.00000  Uiso   1.00
H487   H     0.16913   0.78904   0.01978   0.00000  Uiso   1.00
H488   H     0.33283   0.68821   0.17423   0.00000  Uiso   1.00
H489   H     0.30101   0.49810   0.95050   0.00000  Uiso   1.00
H490   H     0.06259   0.87493   0.00283   0.00000  Uiso   1.00
H491   H     0.06966   0.56692   0.07918   0.00000  Uiso   1.00
H492   H     0.11260   0.56390   0.14272   0.00000  Uiso   1.00
H493   H     0.09752   0.47373   0.03662   0.00000  Uiso   1.00
H494   H     0.98446   0.65244   0.06143   0.00000  Uiso   1.00
H495   H     0.18295   0.57734   0.20803   0.00000  Uiso   1.00
H496   H     0.15113   0.38723   0.98431   0.00000  Uiso   1.00
H497   H     0.91271   0.76405   0.03664   0.00000  Uiso   1.00
O498   O     0.28931   0.63311   0.23221   0.00000  Uiso   1.00
O499   O     0.24755   0.38370   0.93869   0.00000  Uiso   1.00
O500   O     0.93476   0.87809   0.00735   0.00000  Uiso   1.00
N501   N     0.29165   0.66254   0.17346   0.00000  Uiso   1.00
N502   N     0.26191   0.48480   0.96430   0.00000  Uiso   1.00
N503   N     0.03901   0.83709   0.01321   0.00000  Uiso   1.00
N504   N     0.21100   0.60288   0.19166   0.00000  Uiso   1.00
N505   N     0.18126   0.42514   0.98249   0.00000  Uiso   1.00
N506   N     0.95836   0.77743   0.03140   0.00000  Uiso   1.00
C507   C     0.70462   0.16675   0.54874   0.00000  Uiso   1.00
C508   C     0.70889   0.15102   0.58756   0.00000  Uiso   1.00
C509   C     0.75741   0.17102   0.61007   0.00000  Uiso   1.00
C510   C     0.75259   0.15154   0.64465   0.00000  Uiso   1.00
C511   C     0.76708   0.13288   0.70315   0.00000  Uiso   1.00
C512   C     0.70070   0.10202   0.52992   0.00000  Uiso   1.00
C513   C     0.74233   0.08084   0.50395   0.00000  Uiso   1.00
C514   C     0.73061   0.02011   0.49001   0.00000  Uiso   1.00
C515   C     0.73235   0.92541   0.45900   0.00000  Uiso   1.00
C516   C     0.63927   0.19912   0.54340   0.00000  Uiso   1.00
C517   C     0.62925   0.25956   0.52877   0.00000  Uiso   1.00
C518   C     0.56580   0.28058   0.52617   0.00000  Uiso   1.00
C519   C     0.47217   0.33664   0.51610   0.00000  Uiso   1.00
C520   C     0.60977   0.09659   0.57013   0.00000  Uiso   1.00
C521   C     0.65737   0.11291   0.59918   0.00000  Uiso   1.00
C522   C     0.65248   0.09339   0.63373   0.00000  Uiso   1.00
C523   C     0.70098   0.11336   0.65629   0.00000  Uiso   1.00
C524   C     0.64919   0.06391   0.54153   0.00000  Uiso   1.00
C525   C     0.63740   0.00321   0.52762   0.00000  Uiso   1.00
C526   C     0.67900   0.98193   0.50164   0.00000  Uiso   1.00
C527   C     0.58775   0.16101   0.55502   0.00000  Uiso   1.00
C528   C     0.52431   0.18194   0.55244   0.00000  Uiso   1.00
C529   C     0.51420   0.24240   0.53781   0.00000  Uiso   1.00
H530   H     0.74473   0.19642   0.53969   0.00000  Uiso   1.00
H531   H     0.79728   0.20051   0.60106   0.00000  Uiso   1.00
H532   H     0.78219   0.11034   0.49496   0.00000  Uiso   1.00
H533   H     0.66913   0.28904   0.51978   0.00000  Uiso   1.00
H534   H     0.83283   0.18821   0.67423   0.00000  Uiso   1.00
H535   H     0.80101   0.99810   0.45050   0.00000  Uiso   1.00
H536   H     0.56259   0.37493   0.50283   0.00000  Uiso   1.00
H537   H     0.56966   0.06692   0.57918   0.00000  Uiso   1.00
H538   H     0.61260   0.06390   0.64272   0.00000  Uiso   1.00
H539   H     0.59752   0.97373   0.53662   0.00000  Uiso   1.00
H540   H     0.48446   0.15244   0.56143   0.00000  Uiso   1.00
H541   H     0.68295   0.07734   0.70803   0.00000  Uiso   1.00
H542   H     0.65113   0.88723   0.48431   0.00000  Uiso   1.00
H543   H     0.41271   0.26405   0.53664   0.00000  Uiso   1.00
O544   O     0.78931   0.13311   0.73221   0.00000  Uiso   1.00
O545   O     0.74755   0.88370   0.43869   0.00000  Uiso   1.00
O546   O     0.43476   0.37809   0.50735   0.00000  Uiso   1.00
N547   N     0.79165   0.16254   0.67346   0.00000  Uiso   1.00
N548   N     0.76191   0.98480   0.46430   0.00000  Uiso   1.00
N549   N     0.53901   0.33709   0.51321   0.00000  Uiso   1.00
N550   N     0.71100   0.10288   0.69166   0.00000  Uiso   1.00
N551   N     0.68126   0.92514   0.48249   0.00000  Uiso   1.00
N552   N     0.45836   0.27743   0.53140   0.00000  Uiso   1.00
C553   C     0.16675   0.29538   0.45126   0.00000  Uiso   1.00
C554   C     0.15102   0.29111   0.41244   0.00000  Uiso   1.00
C555   C     0.17102   0.24259   0.38993   0.00000  Uiso   1.00
C556   C     0.15154   0.24741   0.35535   0.00000  Uiso   1.00
C557   C     0.13288   0.23292   0.29685   0.00000  Uiso   1.00
C558   C     0.10202   0.29930   0.47008   0.00000  Uiso   1.00
C559   C     0.08084   0.25767   0.49605   0.00000  Uiso   1.00
C560   C     0.02011   0.26939   0.50999   0.00000  Uiso   1.00
C561   C     0.92541   0.26765   0.54100   0.00000  Uiso   1.00
C562   C     0.19912   0.36073   0.45660   0.00000  Uiso   1.00
C563   C     0.25956   0.37075   0.47123   0.00000  Uiso   1.00
C564   C     0.28058   0.43420   0.47383   0.00000  Uiso   1.00
C565   C     0.33664   0.52783   0.48390   0.00000  Uiso   1.00
C566   C     0.09659   0.39023   0.42987   0.00000  Uiso   1.00
C567   C     0.11291   0.34263   0.40082   0.00000  Uiso   1.00
C568   C     0.09339   0.34752   0.36627   0.00000  Uiso   1.00
C569   C     0.11336   0.29902   0.34371   0.00000  Uiso   1.00
C570   C     0.06391   0.35081   0.45847   0.00000  Uiso   1.00
C571   C     0.00321   0.36260   0.47238   0.00000  Uiso   1.00
C572   C     0.98193   0.32100   0.49836   0.00000  Uiso   1.00
C573   C     0.16101   0.41225   0.44498   0.00000  Uiso   1.00
C574   C     0.18194   0.47569   0.44756   0.00000  Uiso   1.00
C575   C     0.24240   0.48580   0.46219   0.00000  Uiso   1.00
H576   H     0.19642   0.25527   0.46031   0.00000  Uiso   1.00
H577   H     0.20051   0.20272   0.39894   0.00000  Uiso   1.00
H578   H     0.11034   0.21781   0.50504   0.00000  Uiso   1.00
H579   H     0.28904   0.33087   0.48022   0.00000  Uiso   1.00
H580   H     0.18821   0.16717   0.32577   0.00000  Uiso   1.00
H581   H     0.99810   0.19899   0.54950   0.00000  Uiso   1.00
H582   H     0.37493   0.43741   0.49717   0.00000  Uiso   1.00
H583   H     0.06692   0.43034   0.42082   0.00000  Uiso   1.00
H584   H     0.06390   0.38740   0.35728   0.00000  Uiso   1.00
H585   H     0.97373   0.40248   0.46338   0.00000  Uiso   1.00
H586   H     0.15244   0.51554   0.43857   0.00000  Uiso   1.00
H587   H     0.07734   0.31705   0.29197   0.00000  Uiso   1.00
H588   H     0.88723   0.34887   0.51569   0.00000  Uiso   1.00
H589   H     0.26405   0.58729   0.46336   0.00000  Uiso   1.00
O590   O     0.13311   0.21069   0.26779   0.00000  Uiso   1.00
O591   O     0.88370   0.25245   0.56131   0.00000  Uiso   1.00
O592   O     0.37809   0.56524   0.49265   0.00000  Uiso   1.00
N593   N     0.16254   0.20835   0.32654   0.00000  Uiso   1.00
N594   N     0.98480   0.23809   0.53570   0.00000  Uiso   1.00
N595   N     0.33709   0.46099   0.48679   0.00000  Uiso   1.00
N596   N     0.10288   0.28900   0.30834   0.00000  Uiso   1.00
N597   N     0.92514   0.31874   0.51751   0.00000  Uiso   1.00
N598   N     0.27743   0.54164   0.46860   0.00000  Uiso   1.00
C599   C     0.66675   0.79538   0.95126   0.00000  Uiso   1.00
C600   C     0.65102   0.79111   0.91244   0.00000  Uiso   1.00
C601   C     0.67102   0.74259   0.88993   0.00000  Uiso   1.00
C602   C     0.65154   0.74741   0.85535   0.00000  Uiso   1.00
C603   C     0.63288   0.73292   0.79685   0.00000  Uiso   1.00
C604   C     0.60202   0.79930   0.97008   0.00000  Uiso   1.00
C605   C     0.58084   0.75767   0.99605   0.00000  Uiso   1.00
C606   C     0.52011   0.76939   0.00999   0.00000  Uiso   1.00
C607   C     0.42541   0.76765   0.04100   0.00000  Uiso   1.00
C608   C     0.69912   0.86073   0.95660   0.00000  Uiso   1.00
C609   C     0.75956   0.87075   0.97123   0.00000  Uiso   1.00
C610   C     0.78058   0.93420   0.97383   0.00000  Uiso   1.00
C611   C     0.83664   0.02783   0.98390   0.00000  Uiso   1.00
C612   C     0.59659   0.89023   0.92987   0.00000  Uiso   1.00
C613   C     0.61291   0.84263   0.90082   0.00000  Uiso   1.00
C614   C     0.59339   0.84752   0.86627   0.00000  Uiso   1.00
C615   C     0.61336   0.79902   0.84371   0.00000  Uiso   1.00
C616   C     0.56391   0.85081   0.95847   0.00000  Uiso   1.00
C617   C     0.50321   0.86260   0.97238   0.00000  Uiso   1.00
C618   C     0.48193   0.82100   0.99836   0.00000  Uiso   1.00
C619   C     0.66101   0.91225   0.94498   0.00000  Uiso   1.00
C620   C     0.68194   0.97569   0.94756   0.00000  Uiso   1.00
C621   C     0.74240   0.98580   0.96219   0.00000  Uiso   1.00
H622   H     0.69642   0.75527   0.96031   0.00000  Uiso   1.00
H623   H     0.70051   0.70272   0.89894   0.00000  Uiso   1.00
H624   H     0.61034   0.71781   0.00504   0.00000  Uiso   1.00
H625   H     0.78904   0.83087   0.98022   0.00000  Uiso   1.00
H626   H     0.68821   0.66717   0.82577   0.00000  Uiso   1.00
H627   H     0.49810   0.69899   0.04950   0.00000  Uiso   1.00
H628   H     0.87493   0.93741   0.99717   0.00000  Uiso   1.00
H629   H     0.56692   0.93034   0.92082   0.00000  Uiso   1.00
H630   H     0.56390   0.88740   0.85728   0.00000  Uiso   1.00
H631   H     0.47373   0.90248   0.96338   0.00000  Uiso   1.00
H632   H     0.65244   0.01554   0.93857   0.00000  Uiso   1.00
H633   H     0.57734   0.81705   0.79197   0.00000  Uiso   1.00
H634   H     0.38723   0.84887   0.01569   0.00000  Uiso   1.00
H635   H     0.76405   0.08729   0.96336   0.00000  Uiso   1.00
O636   O     0.63311   0.71069   0.76779   0.00000  Uiso   1.00
O637   O     0.38370   0.75245   0.06131   0.00000  Uiso   1.00
O638   O     0.87809   0.06524   0.99265   0.00000  Uiso   1.00
N639   N     0.66254   0.70835   0.82654   0.00000  Uiso   1.00
N640   N     0.48480   0.73809   0.03570   0.00000  Uiso   1.00
N641   N     0.83709   0.96099   0.98679   0.00000  Uiso   1.00
N642   N     0.60288   0.78900   0.80834   0.00000  Uiso   1.00
N643   N     0.42514   0.81874   0.01751   0.00000  Uiso   1.00
N644   N     0.77743   0.04164   0.96860   0.00000  Uiso   1.00
C645   C     0.83325   0.70462   0.45126   0.00000  Uiso   1.00
C646   C     0.84898   0.70889   0.41244   0.00000  Uiso   1.00
C647   C     0.82898   0.75741   0.38993   0.00000  Uiso   1.00
C648   C     0.84846   0.75259   0.35535   0.00000  Uiso   1.00
C649   C     0.86712   0.76708   0.29685   0.00000  Uiso   1.00
C650   C     0.89798   0.70070   0.47008   0.00000  Uiso   1.00
C651   C     0.91916   0.74233   0.49605   0.00000  Uiso   1.00
C652   C     0.97989   0.73061   0.50999   0.00000  Uiso   1.00
C653   C     0.07459   0.73235   0.54100   0.00000  Uiso   1.00
C654   C     0.80088   0.63927   0.45660   0.00000  Uiso   1.00
C655   C     0.74044   0.62925   0.47123   0.00000  Uiso   1.00
C656   C     0.71942   0.56580   0.47383   0.00000  Uiso   1.00
C657   C     0.66336   0.47217   0.48390   0.00000  Uiso   1.00
C658   C     0.90341   0.60977   0.42987   0.00000  Uiso   1.00
C659   C     0.88709   0.65737   0.40082   0.00000  Uiso   1.00
C660   C     0.90661   0.65248   0.36627   0.00000  Uiso   1.00
C661   C     0.88664   0.70098   0.34371   0.00000  Uiso   1.00
C662   C     0.93609   0.64919   0.45847   0.00000  Uiso   1.00
C663   C     0.99679   0.63740   0.47238   0.00000  Uiso   1.00
C664   C     0.01807   0.67900   0.49836   0.00000  Uiso   1.00
C665   C     0.83899   0.58775   0.44498   0.00000  Uiso   1.00
C666   C     0.81806   0.52431   0.44756   0.00000  Uiso   1.00
C667   C     0.75760   0.51420   0.46219   0.00000  Uiso   1.00
H668   H     0.80358   0.74473   0.46031   0.00000  Uiso   1.00
H669   H     0.79949   0.79728   0.39894   0.00000  Uiso   1.00
H670   H     0.88966   0.78219   0.50504   0.00000  Uiso   1.00
H671   H     0.71096   0.66913   0.48022   0.00000  Uiso   1.00
H672   H     0.81179   0.83283   0.32577   0.00000  Uiso   1.00
H673   H     0.00190   0.80101   0.54950   0.00000  Uiso   1.00
H674   H     0.62507   0.56259   0.49717   0.00000  Uiso   1.00
H675   H     0.93308   0.56966   0.42082   0.00000  Uiso   1.00
H676   H     0.93610   0.61260   0.35728   0.00000  Uiso   1.00
H677   H     0.02627   0.59752   0.46338   0.00000  Uiso   1.00
H678   H     0.84756   0.48446   0.43857   0.00000  Uiso   1.00
H679   H     0.92266   0.68295   0.29197   0.00000  Uiso   1.00
H680   H     0.11277   0.65113   0.51569   0.00000  Uiso   1.00
H681   H     0.73595   0.41271   0.46336   0.00000  Uiso   1.00
O682   O     0.86689   0.78931   0.26779   0.00000  Uiso   1.00
O683   O     0.11630   0.74755   0.56131   0.00000  Uiso   1.00
O684   O     0.62191   0.43476   0.49265   0.00000  Uiso   1.00
N685   N     0.83746   0.79165   0.32654   0.00000  Uiso   1.00
N686   N     0.01520   0.76191   0.53570   0.00000  Uiso   1.00
N687   N     0.66291   0.53901   0.48679   0.00000  Uiso   1.00
N688   N     0.89712   0.71100   0.30834   0.00000  Uiso   1.00
N689   N     0.07486   0.68126   0.51751   0.00000  Uiso   1.00
N690   N     0.72257   0.45836   0.46860   0.00000  Uiso   1.00
C691   C     0.33325   0.20462   0.95126   0.00000  Uiso   1.00
C692   C     0.34898   0.20889   0.91244   0.00000  Uiso   1.00
C693   C     0.32898   0.25741   0.88993   0.00000  Uiso   1.00
C694   C     0.34846   0.25259   0.85535   0.00000  Uiso   1.00
C695   C     0.36712   0.26708   0.79685   0.00000  Uiso   1.00
C696   C     0.39798   0.20070   0.97008   0.00000  Uiso   1.00
C697   C     0.41916   0.24233   0.99605   0.00000  Uiso   1.00
C698   C     0.47989   0.23061   0.00999   0.00000  Uiso   1.00
C699   C     0.57459   0.23235   0.04100   0.00000  Uiso   1.00
C700   C     0.30088   0.13927   0.95660   0.00000  Uiso   1.00
C701   C     0.24044   0.12925   0.97123   0.00000  Uiso   1.00
C702   C     0.21942   0.06580   0.97383   0.00000  Uiso   1.00
C703   C     0.16336   0.97217   0.98390   0.00000  Uiso   1.00
C704   C     0.40341   0.10977   0.92987   0.00000  Uiso   1.00
C705   C     0.38709   0.15737   0.90082   0.00000  Uiso   1.00
C706   C     0.40661   0.15248   0.86627   0.00000  Uiso   1.00
C707   C     0.38664   0.20098   0.84371   0.00000  Uiso   1.00
C708   C     0.43609   0.14919   0.95847   0.00000  Uiso   1.00
C709   C     0.49679   0.13740   0.97238   0.00000  Uiso   1.00
C710   C     0.51807   0.17900   0.99836   0.00000  Uiso   1.00
C711   C     0.33899   0.08775   0.94498   0.00000  Uiso   1.00
C712   C     0.31806   0.02431   0.94756   0.00000  Uiso   1.00
C713   C     0.25760   0.01420   0.96219   0.00000  Uiso   1.00
H714   H     0.30358   0.24473   0.96031   0.00000  Uiso   1.00
H715   H     0.29949   0.29728   0.89894   0.00000  Uiso   1.00
H716   H     0.38966   0.28219   0.00504   0.00000  Uiso   1.00
H717   H     0.21096   0.16913   0.98022   0.00000  Uiso   1.00
H718   H     0.31179   0.33283   0.82577   0.00000  Uiso   1.00
H719   H     0.50190   0.30101   0.04950   0.00000  Uiso   1.00
H720   H     0.12507   0.06259   0.99717   0.00000  Uiso   1.00
H721   H     0.43308   0.06966   0.92082   0.00000  Uiso   1.00
H722   H     0.43610   0.11260   0.85728   0.00000  Uiso   1.00
H723   H     0.52627   0.09752   0.96338   0.00000  Uiso   1.00
H724   H     0.34756   0.98446   0.93857   0.00000  Uiso   1.00
H725   H     0.42266   0.18295   0.79197   0.00000  Uiso   1.00
H726   H     0.61277   0.15113   0.01569   0.00000  Uiso   1.00
H727   H     0.23595   0.91271   0.96336   0.00000  Uiso   1.00
O728   O     0.36689   0.28931   0.76779   0.00000  Uiso   1.00
O729   O     0.61630   0.24755   0.06131   0.00000  Uiso   1.00
O730   O     0.12191   0.93476   0.99265   0.00000  Uiso   1.00
N731   N     0.33746   0.29165   0.82654   0.00000  Uiso   1.00
N732   N     0.51520   0.26191   0.03570   0.00000  Uiso   1.00
N733   N     0.16291   0.03901   0.98679   0.00000  Uiso   1.00
N734   N     0.39712   0.21100   0.80834   0.00000  Uiso   1.00
N735   N     0.57486   0.18126   0.01751   0.00000  Uiso   1.00
N736   N     0.22257   0.95836   0.96860   0.00000  Uiso   1.00
