data_job_04071
_audit_creation_date              2018-12-19
_audit_creation_method            'Materials Studio'
_symmetry_space_group_name_H-M    'P1'
_symmetry_Int_Tables_number       1
_symmetry_cell_setting            triclinic
loop_
_symmetry_equiv_pos_as_xyz
  x,y,z
_cell_length_a                    30.8208
_cell_length_b                    30.8208
_cell_length_c                    12.5644
_cell_angle_alpha                 90.0000
_cell_angle_beta                  90.0000
_cell_angle_gamma                 90.0000
loop_
_atom_site_label
_atom_site_type_symbol
_atom_site_fract_x
_atom_site_fract_y
_atom_site_fract_z
_atom_site_U_iso_or_equiv
_atom_site_adp_type
_atom_site_occupancy
C1     C     0.51130   0.27981   0.88800   0.00000  Uiso   1.00
C2     C     0.52004   0.30269   0.99345   0.00000  Uiso   1.00
C3     C     0.55646   0.29705   0.05689   0.00000  Uiso   1.00
C4     C     0.55837   0.32098   0.15041   0.00000  Uiso   1.00
C5     C     0.57700   0.35215   0.30977   0.00000  Uiso   1.00
C6     C     0.46767   0.25707   0.90085   0.00000  Uiso   1.00
C7     C     0.46007   0.21308   0.88643   0.00000  Uiso   1.00
C8     C     0.41788   0.19861   0.90199   0.00000  Uiso   1.00
C9     C     0.35520   0.15897   0.91752   0.00000  Uiso   1.00
C10    C     0.50412   0.31564   0.80619   0.00000  Uiso   1.00
C11    C     0.52715   0.32089   0.71215   0.00000  Uiso   1.00
C12    C     0.51565   0.35572   0.64799   0.00000  Uiso   1.00
C13    C     0.50956   0.40701   0.51654   0.00000  Uiso   1.00
C14    C     0.44991   0.33232   0.94125   0.00000  Uiso   1.00
C15    C     0.48669   0.33121   0.02237   0.00000  Uiso   1.00
C16    C     0.48854   0.35515   0.11581   0.00000  Uiso   1.00
C17    C     0.52496   0.34955   0.17939   0.00000  Uiso   1.00
C18    C     0.43433   0.28559   0.92978   0.00000  Uiso   1.00
C19    C     0.39214   0.27118   0.94535   0.00000  Uiso   1.00
C20    C     0.38447   0.22718   0.93097   0.00000  Uiso   1.00
C21    C     0.47077   0.34416   0.83511   0.00000  Uiso   1.00
C22    C     0.45923   0.37899   0.77108   0.00000  Uiso   1.00
C23    C     0.48224   0.38429   0.67697   0.00000  Uiso   1.00
H24    H     0.53726   0.25760   0.86547   0.00000  Uiso   1.00
H25    H     0.58226   0.27497   0.03448   0.00000  Uiso   1.00
H26    H     0.48588   0.19102   0.86404   0.00000  Uiso   1.00
H27    H     0.55296   0.29881   0.68979   0.00000  Uiso   1.00
H28    H     0.61744   0.30680   0.23463   0.00000  Uiso   1.00
H29    H     0.41420   0.12978   0.87521   0.00000  Uiso   1.00
H30    H     0.55565   0.35708   0.50777   0.00000  Uiso   1.00
H31    H     0.42394   0.35452   0.96377   0.00000  Uiso   1.00
H32    H     0.46273   0.37722   0.13818   0.00000  Uiso   1.00
H33    H     0.36634   0.29326   0.96773   0.00000  Uiso   1.00
H34    H     0.43342   0.40105   0.79349   0.00000  Uiso   1.00
H35    H     0.52042   0.38979   0.31880   0.00000  Uiso   1.00
H36    H     0.31718   0.21276   0.95937   0.00000  Uiso   1.00
H37    H     0.45863   0.44006   0.59194   0.00000  Uiso   1.00
O38    O     0.59648   0.36147   0.38969   0.00000  Uiso   1.00
O39    O     0.32984   0.12922   0.91811   0.00000  Uiso   1.00
O40    O     0.51542   0.42743   0.43605   0.00000  Uiso   1.00
N41    N     0.58929   0.32323   0.23050   0.00000  Uiso   1.00
N42    N     0.39928   0.15772   0.89447   0.00000  Uiso   1.00
N43    N     0.53151   0.37021   0.55093   0.00000  Uiso   1.00
N44    N     0.53708   0.36788   0.27579   0.00000  Uiso   1.00
N45    N     0.34707   0.20237   0.93976   0.00000  Uiso   1.00
N46    N     0.47930   0.41487   0.59622   0.00000  Uiso   1.00
C47    C     0.01130   0.77981   0.38800   0.00000  Uiso   1.00
C48    C     0.02004   0.80269   0.49345   0.00000  Uiso   1.00
C49    C     0.05646   0.79705   0.55689   0.00000  Uiso   1.00
C50    C     0.05837   0.82098   0.65041   0.00000  Uiso   1.00
C51    C     0.07700   0.85215   0.80977   0.00000  Uiso   1.00
C52    C     0.96767   0.75707   0.40085   0.00000  Uiso   1.00
C53    C     0.96007   0.71308   0.38643   0.00000  Uiso   1.00
C54    C     0.91788   0.69861   0.40199   0.00000  Uiso   1.00
C55    C     0.85520   0.65897   0.41752   0.00000  Uiso   1.00
C56    C     0.00412   0.81564   0.30619   0.00000  Uiso   1.00
C57    C     0.02715   0.82089   0.21215   0.00000  Uiso   1.00
C58    C     0.01565   0.85572   0.14799   0.00000  Uiso   1.00
C59    C     0.00956   0.90701   0.01654   0.00000  Uiso   1.00
C60    C     0.94991   0.83232   0.44125   0.00000  Uiso   1.00
C61    C     0.98669   0.83121   0.52237   0.00000  Uiso   1.00
C62    C     0.98854   0.85515   0.61581   0.00000  Uiso   1.00
C63    C     0.02496   0.84955   0.67939   0.00000  Uiso   1.00
C64    C     0.93433   0.78559   0.42978   0.00000  Uiso   1.00
C65    C     0.89214   0.77118   0.44535   0.00000  Uiso   1.00
C66    C     0.88447   0.72718   0.43097   0.00000  Uiso   1.00
C67    C     0.97077   0.84416   0.33511   0.00000  Uiso   1.00
C68    C     0.95923   0.87899   0.27108   0.00000  Uiso   1.00
C69    C     0.98224   0.88429   0.17697   0.00000  Uiso   1.00
H70    H     0.03726   0.75760   0.36547   0.00000  Uiso   1.00
H71    H     0.08226   0.77497   0.53448   0.00000  Uiso   1.00
H72    H     0.98588   0.69102   0.36404   0.00000  Uiso   1.00
H73    H     0.05296   0.79881   0.18979   0.00000  Uiso   1.00
H74    H     0.11744   0.80680   0.73463   0.00000  Uiso   1.00
H75    H     0.91420   0.62978   0.37521   0.00000  Uiso   1.00
H76    H     0.05565   0.85708   0.00777   0.00000  Uiso   1.00
H77    H     0.92394   0.85452   0.46377   0.00000  Uiso   1.00
H78    H     0.96273   0.87722   0.63818   0.00000  Uiso   1.00
H79    H     0.86634   0.79326   0.46773   0.00000  Uiso   1.00
H80    H     0.93342   0.90105   0.29349   0.00000  Uiso   1.00
H81    H     0.02042   0.88979   0.81880   0.00000  Uiso   1.00
H82    H     0.81718   0.71276   0.45937   0.00000  Uiso   1.00
H83    H     0.95863   0.94006   0.09194   0.00000  Uiso   1.00
O84    O     0.09648   0.86147   0.88969   0.00000  Uiso   1.00
O85    O     0.82984   0.62922   0.41811   0.00000  Uiso   1.00
O86    O     0.01542   0.92743   0.93605   0.00000  Uiso   1.00
N87    N     0.08929   0.82323   0.73050   0.00000  Uiso   1.00
N88    N     0.89928   0.65772   0.39447   0.00000  Uiso   1.00
N89    N     0.03151   0.87021   0.05093   0.00000  Uiso   1.00
N90    N     0.03708   0.86788   0.77579   0.00000  Uiso   1.00
N91    N     0.84707   0.70237   0.43976   0.00000  Uiso   1.00
N92    N     0.97930   0.91487   0.09622   0.00000  Uiso   1.00
C93    C     0.48870   0.72019   0.88800   0.00000  Uiso   1.00
C94    C     0.47996   0.69731   0.99345   0.00000  Uiso   1.00
C95    C     0.44354   0.70295   0.05689   0.00000  Uiso   1.00
C96    C     0.44163   0.67902   0.15041   0.00000  Uiso   1.00
C97    C     0.42300   0.64785   0.30977   0.00000  Uiso   1.00
C98    C     0.53233   0.74293   0.90085   0.00000  Uiso   1.00
C99    C     0.53993   0.78692   0.88643   0.00000  Uiso   1.00
C100   C     0.58212   0.80139   0.90199   0.00000  Uiso   1.00
C101   C     0.64480   0.84103   0.91752   0.00000  Uiso   1.00
C102   C     0.49588   0.68436   0.80619   0.00000  Uiso   1.00
C103   C     0.47285   0.67911   0.71215   0.00000  Uiso   1.00
C104   C     0.48435   0.64428   0.64799   0.00000  Uiso   1.00
C105   C     0.49044   0.59299   0.51654   0.00000  Uiso   1.00
C106   C     0.55009   0.66768   0.94125   0.00000  Uiso   1.00
C107   C     0.51331   0.66879   0.02237   0.00000  Uiso   1.00
C108   C     0.51146   0.64485   0.11581   0.00000  Uiso   1.00
C109   C     0.47504   0.65045   0.17939   0.00000  Uiso   1.00
C110   C     0.56567   0.71441   0.92978   0.00000  Uiso   1.00
C111   C     0.60786   0.72882   0.94535   0.00000  Uiso   1.00
C112   C     0.61553   0.77282   0.93097   0.00000  Uiso   1.00
C113   C     0.52923   0.65584   0.83511   0.00000  Uiso   1.00
C114   C     0.54077   0.62101   0.77108   0.00000  Uiso   1.00
C115   C     0.51776   0.61571   0.67697   0.00000  Uiso   1.00
H116   H     0.46274   0.74240   0.86547   0.00000  Uiso   1.00
H117   H     0.41774   0.72503   0.03448   0.00000  Uiso   1.00
H118   H     0.51412   0.80898   0.86404   0.00000  Uiso   1.00
H119   H     0.44704   0.70119   0.68979   0.00000  Uiso   1.00
H120   H     0.38256   0.69320   0.23463   0.00000  Uiso   1.00
H121   H     0.58580   0.87022   0.87521   0.00000  Uiso   1.00
H122   H     0.44435   0.64292   0.50777   0.00000  Uiso   1.00
H123   H     0.57606   0.64548   0.96377   0.00000  Uiso   1.00
H124   H     0.53727   0.62278   0.13818   0.00000  Uiso   1.00
H125   H     0.63366   0.70674   0.96773   0.00000  Uiso   1.00
H126   H     0.56658   0.59895   0.79349   0.00000  Uiso   1.00
H127   H     0.47958   0.61021   0.31880   0.00000  Uiso   1.00
H128   H     0.68282   0.78724   0.95937   0.00000  Uiso   1.00
H129   H     0.54137   0.55994   0.59194   0.00000  Uiso   1.00
O130   O     0.40352   0.63853   0.38969   0.00000  Uiso   1.00
O131   O     0.67016   0.87078   0.91811   0.00000  Uiso   1.00
O132   O     0.48458   0.57257   0.43605   0.00000  Uiso   1.00
N133   N     0.41071   0.67677   0.23050   0.00000  Uiso   1.00
N134   N     0.60072   0.84228   0.89447   0.00000  Uiso   1.00
N135   N     0.46849   0.62979   0.55093   0.00000  Uiso   1.00
N136   N     0.46292   0.63212   0.27579   0.00000  Uiso   1.00
N137   N     0.65293   0.79763   0.93976   0.00000  Uiso   1.00
N138   N     0.52070   0.58513   0.59622   0.00000  Uiso   1.00
C139   C     0.98870   0.22019   0.38800   0.00000  Uiso   1.00
C140   C     0.97996   0.19731   0.49345   0.00000  Uiso   1.00
C141   C     0.94354   0.20295   0.55689   0.00000  Uiso   1.00
C142   C     0.94163   0.17902   0.65041   0.00000  Uiso   1.00
C143   C     0.92300   0.14785   0.80977   0.00000  Uiso   1.00
C144   C     0.03233   0.24293   0.40085   0.00000  Uiso   1.00
C145   C     0.03993   0.28692   0.38643   0.00000  Uiso   1.00
C146   C     0.08212   0.30139   0.40199   0.00000  Uiso   1.00
C147   C     0.14480   0.34103   0.41752   0.00000  Uiso   1.00
C148   C     0.99588   0.18436   0.30619   0.00000  Uiso   1.00
C149   C     0.97285   0.17911   0.21215   0.00000  Uiso   1.00
C150   C     0.98435   0.14428   0.14799   0.00000  Uiso   1.00
C151   C     0.99044   0.09299   0.01654   0.00000  Uiso   1.00
C152   C     0.05009   0.16768   0.44125   0.00000  Uiso   1.00
C153   C     0.01331   0.16879   0.52237   0.00000  Uiso   1.00
C154   C     0.01146   0.14485   0.61581   0.00000  Uiso   1.00
C155   C     0.97504   0.15045   0.67939   0.00000  Uiso   1.00
C156   C     0.06567   0.21441   0.42978   0.00000  Uiso   1.00
C157   C     0.10786   0.22882   0.44535   0.00000  Uiso   1.00
C158   C     0.11553   0.27282   0.43097   0.00000  Uiso   1.00
C159   C     0.02923   0.15584   0.33511   0.00000  Uiso   1.00
C160   C     0.04077   0.12101   0.27108   0.00000  Uiso   1.00
C161   C     0.01776   0.11571   0.17697   0.00000  Uiso   1.00
H162   H     0.96274   0.24240   0.36547   0.00000  Uiso   1.00
H163   H     0.91774   0.22503   0.53448   0.00000  Uiso   1.00
H164   H     0.01412   0.30898   0.36404   0.00000  Uiso   1.00
H165   H     0.94704   0.20119   0.18979   0.00000  Uiso   1.00
H166   H     0.88256   0.19320   0.73463   0.00000  Uiso   1.00
H167   H     0.08580   0.37022   0.37521   0.00000  Uiso   1.00
H168   H     0.94435   0.14292   0.00777   0.00000  Uiso   1.00
H169   H     0.07606   0.14548   0.46377   0.00000  Uiso   1.00
H170   H     0.03727   0.12278   0.63818   0.00000  Uiso   1.00
H171   H     0.13366   0.20674   0.46773   0.00000  Uiso   1.00
H172   H     0.06658   0.09895   0.29349   0.00000  Uiso   1.00
H173   H     0.97958   0.11021   0.81880   0.00000  Uiso   1.00
H174   H     0.18282   0.28724   0.45937   0.00000  Uiso   1.00
H175   H     0.04137   0.05994   0.09194   0.00000  Uiso   1.00
O176   O     0.90352   0.13853   0.88969   0.00000  Uiso   1.00
O177   O     0.17016   0.37078   0.41811   0.00000  Uiso   1.00
O178   O     0.98458   0.07257   0.93605   0.00000  Uiso   1.00
N179   N     0.91071   0.17677   0.73050   0.00000  Uiso   1.00
N180   N     0.10072   0.34228   0.39447   0.00000  Uiso   1.00
N181   N     0.96849   0.12979   0.05093   0.00000  Uiso   1.00
N182   N     0.96292   0.13212   0.77579   0.00000  Uiso   1.00
N183   N     0.15293   0.29763   0.43976   0.00000  Uiso   1.00
N184   N     0.02070   0.08513   0.09622   0.00000  Uiso   1.00
C185   C     0.27981   0.48870   0.11200   0.00000  Uiso   1.00
C186   C     0.30269   0.47996   0.00655   0.00000  Uiso   1.00
C187   C     0.29705   0.44354   0.94311   0.00000  Uiso   1.00
C188   C     0.32098   0.44163   0.84959   0.00000  Uiso   1.00
C189   C     0.35215   0.42300   0.69023   0.00000  Uiso   1.00
C190   C     0.25707   0.53233   0.09915   0.00000  Uiso   1.00
C191   C     0.21308   0.53993   0.11357   0.00000  Uiso   1.00
C192   C     0.19861   0.58212   0.09801   0.00000  Uiso   1.00
C193   C     0.15897   0.64480   0.08248   0.00000  Uiso   1.00
C194   C     0.31564   0.49588   0.19381   0.00000  Uiso   1.00
C195   C     0.32089   0.47285   0.28785   0.00000  Uiso   1.00
C196   C     0.35572   0.48435   0.35201   0.00000  Uiso   1.00
C197   C     0.40701   0.49044   0.48346   0.00000  Uiso   1.00
C198   C     0.33232   0.55009   0.05875   0.00000  Uiso   1.00
C199   C     0.33121   0.51331   0.97763   0.00000  Uiso   1.00
C200   C     0.35515   0.51146   0.88419   0.00000  Uiso   1.00
C201   C     0.34955   0.47504   0.82061   0.00000  Uiso   1.00
C202   C     0.28559   0.56567   0.07022   0.00000  Uiso   1.00
C203   C     0.27118   0.60786   0.05465   0.00000  Uiso   1.00
C204   C     0.22718   0.61553   0.06903   0.00000  Uiso   1.00
C205   C     0.34416   0.52923   0.16489   0.00000  Uiso   1.00
C206   C     0.37899   0.54077   0.22892   0.00000  Uiso   1.00
C207   C     0.38429   0.51776   0.32303   0.00000  Uiso   1.00
H208   H     0.25760   0.46274   0.13453   0.00000  Uiso   1.00
H209   H     0.27497   0.41774   0.96552   0.00000  Uiso   1.00
H210   H     0.19102   0.51412   0.13596   0.00000  Uiso   1.00
H211   H     0.29881   0.44704   0.31021   0.00000  Uiso   1.00
H212   H     0.30680   0.38256   0.76537   0.00000  Uiso   1.00
H213   H     0.12978   0.58580   0.12479   0.00000  Uiso   1.00
H214   H     0.35708   0.44435   0.49223   0.00000  Uiso   1.00
H215   H     0.35452   0.57606   0.03623   0.00000  Uiso   1.00
H216   H     0.37722   0.53727   0.86182   0.00000  Uiso   1.00
H217   H     0.29326   0.63366   0.03227   0.00000  Uiso   1.00
H218   H     0.40105   0.56658   0.20651   0.00000  Uiso   1.00
H219   H     0.38979   0.47958   0.68120   0.00000  Uiso   1.00
H220   H     0.21276   0.68282   0.04063   0.00000  Uiso   1.00
H221   H     0.44006   0.54137   0.40806   0.00000  Uiso   1.00
O222   O     0.36147   0.40352   0.61031   0.00000  Uiso   1.00
O223   O     0.12922   0.67016   0.08189   0.00000  Uiso   1.00
O224   O     0.42743   0.48458   0.56395   0.00000  Uiso   1.00
N225   N     0.32323   0.41071   0.76950   0.00000  Uiso   1.00
N226   N     0.15772   0.60072   0.10553   0.00000  Uiso   1.00
N227   N     0.37021   0.46849   0.44907   0.00000  Uiso   1.00
N228   N     0.36788   0.46292   0.72421   0.00000  Uiso   1.00
N229   N     0.20237   0.65293   0.06024   0.00000  Uiso   1.00
N230   N     0.41487   0.52070   0.40378   0.00000  Uiso   1.00
C231   C     0.77981   0.98870   0.61200   0.00000  Uiso   1.00
C232   C     0.80269   0.97996   0.50655   0.00000  Uiso   1.00
C233   C     0.79705   0.94354   0.44311   0.00000  Uiso   1.00
C234   C     0.82098   0.94163   0.34959   0.00000  Uiso   1.00
C235   C     0.85215   0.92300   0.19023   0.00000  Uiso   1.00
C236   C     0.75707   0.03233   0.59915   0.00000  Uiso   1.00
C237   C     0.71308   0.03993   0.61357   0.00000  Uiso   1.00
C238   C     0.69861   0.08212   0.59801   0.00000  Uiso   1.00
C239   C     0.65897   0.14480   0.58248   0.00000  Uiso   1.00
C240   C     0.81564   0.99588   0.69381   0.00000  Uiso   1.00
C241   C     0.82089   0.97285   0.78785   0.00000  Uiso   1.00
C242   C     0.85572   0.98435   0.85201   0.00000  Uiso   1.00
C243   C     0.90701   0.99044   0.98346   0.00000  Uiso   1.00
C244   C     0.83232   0.05009   0.55875   0.00000  Uiso   1.00
C245   C     0.83121   0.01331   0.47763   0.00000  Uiso   1.00
C246   C     0.85515   0.01146   0.38419   0.00000  Uiso   1.00
C247   C     0.84955   0.97504   0.32061   0.00000  Uiso   1.00
C248   C     0.78559   0.06567   0.57022   0.00000  Uiso   1.00
C249   C     0.77118   0.10786   0.55465   0.00000  Uiso   1.00
C250   C     0.72718   0.11553   0.56903   0.00000  Uiso   1.00
C251   C     0.84416   0.02923   0.66489   0.00000  Uiso   1.00
C252   C     0.87899   0.04077   0.72892   0.00000  Uiso   1.00
C253   C     0.88429   0.01776   0.82303   0.00000  Uiso   1.00
H254   H     0.75760   0.96274   0.63453   0.00000  Uiso   1.00
H255   H     0.77497   0.91774   0.46552   0.00000  Uiso   1.00
H256   H     0.69102   0.01412   0.63596   0.00000  Uiso   1.00
H257   H     0.79881   0.94704   0.81021   0.00000  Uiso   1.00
H258   H     0.80680   0.88256   0.26537   0.00000  Uiso   1.00
H259   H     0.62978   0.08580   0.62479   0.00000  Uiso   1.00
H260   H     0.85708   0.94435   0.99223   0.00000  Uiso   1.00
H261   H     0.85452   0.07606   0.53623   0.00000  Uiso   1.00
H262   H     0.87722   0.03727   0.36182   0.00000  Uiso   1.00
H263   H     0.79326   0.13366   0.53227   0.00000  Uiso   1.00
H264   H     0.90105   0.06658   0.70651   0.00000  Uiso   1.00
H265   H     0.88979   0.97958   0.18120   0.00000  Uiso   1.00
H266   H     0.71276   0.18282   0.54063   0.00000  Uiso   1.00
H267   H     0.94006   0.04137   0.90806   0.00000  Uiso   1.00
O268   O     0.86147   0.90352   0.11031   0.00000  Uiso   1.00
O269   O     0.62922   0.17016   0.58189   0.00000  Uiso   1.00
O270   O     0.92743   0.98458   0.06395   0.00000  Uiso   1.00
N271   N     0.82323   0.91071   0.26950   0.00000  Uiso   1.00
N272   N     0.65772   0.10072   0.60553   0.00000  Uiso   1.00
N273   N     0.87021   0.96849   0.94907   0.00000  Uiso   1.00
N274   N     0.86788   0.96292   0.22421   0.00000  Uiso   1.00
N275   N     0.70237   0.15293   0.56024   0.00000  Uiso   1.00
N276   N     0.91487   0.02070   0.90378   0.00000  Uiso   1.00
C277   C     0.72019   0.51130   0.11200   0.00000  Uiso   1.00
C278   C     0.69731   0.52004   0.00655   0.00000  Uiso   1.00
C279   C     0.70295   0.55646   0.94311   0.00000  Uiso   1.00
C280   C     0.67902   0.55837   0.84959   0.00000  Uiso   1.00
C281   C     0.64785   0.57700   0.69023   0.00000  Uiso   1.00
C282   C     0.74293   0.46767   0.09915   0.00000  Uiso   1.00
C283   C     0.78692   0.46007   0.11357   0.00000  Uiso   1.00
C284   C     0.80139   0.41788   0.09801   0.00000  Uiso   1.00
C285   C     0.84103   0.35520   0.08248   0.00000  Uiso   1.00
C286   C     0.68436   0.50412   0.19381   0.00000  Uiso   1.00
C287   C     0.67911   0.52715   0.28785   0.00000  Uiso   1.00
C288   C     0.64428   0.51565   0.35201   0.00000  Uiso   1.00
C289   C     0.59299   0.50956   0.48346   0.00000  Uiso   1.00
C290   C     0.66768   0.44991   0.05875   0.00000  Uiso   1.00
C291   C     0.66879   0.48669   0.97763   0.00000  Uiso   1.00
C292   C     0.64485   0.48854   0.88419   0.00000  Uiso   1.00
C293   C     0.65045   0.52496   0.82061   0.00000  Uiso   1.00
C294   C     0.71441   0.43433   0.07022   0.00000  Uiso   1.00
C295   C     0.72882   0.39214   0.05465   0.00000  Uiso   1.00
C296   C     0.77282   0.38447   0.06903   0.00000  Uiso   1.00
C297   C     0.65584   0.47077   0.16489   0.00000  Uiso   1.00
C298   C     0.62101   0.45923   0.22892   0.00000  Uiso   1.00
C299   C     0.61571   0.48224   0.32303   0.00000  Uiso   1.00
H300   H     0.74240   0.53726   0.13453   0.00000  Uiso   1.00
H301   H     0.72503   0.58226   0.96552   0.00000  Uiso   1.00
H302   H     0.80898   0.48588   0.13596   0.00000  Uiso   1.00
H303   H     0.70119   0.55296   0.31021   0.00000  Uiso   1.00
H304   H     0.69320   0.61744   0.76537   0.00000  Uiso   1.00
H305   H     0.87022   0.41420   0.12479   0.00000  Uiso   1.00
H306   H     0.64292   0.55565   0.49223   0.00000  Uiso   1.00
H307   H     0.64548   0.42394   0.03623   0.00000  Uiso   1.00
H308   H     0.62278   0.46273   0.86182   0.00000  Uiso   1.00
H309   H     0.70674   0.36634   0.03227   0.00000  Uiso   1.00
H310   H     0.59895   0.43342   0.20651   0.00000  Uiso   1.00
H311   H     0.61021   0.52042   0.68120   0.00000  Uiso   1.00
H312   H     0.78724   0.31718   0.04063   0.00000  Uiso   1.00
H313   H     0.55994   0.45863   0.40806   0.00000  Uiso   1.00
O314   O     0.63853   0.59648   0.61031   0.00000  Uiso   1.00
O315   O     0.87078   0.32984   0.08189   0.00000  Uiso   1.00
O316   O     0.57257   0.51542   0.56395   0.00000  Uiso   1.00
N317   N     0.67677   0.58929   0.76950   0.00000  Uiso   1.00
N318   N     0.84228   0.39928   0.10553   0.00000  Uiso   1.00
N319   N     0.62979   0.53151   0.44907   0.00000  Uiso   1.00
N320   N     0.63212   0.53708   0.72421   0.00000  Uiso   1.00
N321   N     0.79763   0.34707   0.06024   0.00000  Uiso   1.00
N322   N     0.58513   0.47930   0.40378   0.00000  Uiso   1.00
C323   C     0.22019   0.01130   0.61200   0.00000  Uiso   1.00
C324   C     0.19731   0.02004   0.50655   0.00000  Uiso   1.00
C325   C     0.20295   0.05646   0.44311   0.00000  Uiso   1.00
C326   C     0.17902   0.05837   0.34959   0.00000  Uiso   1.00
C327   C     0.14785   0.07700   0.19023   0.00000  Uiso   1.00
C328   C     0.24293   0.96767   0.59915   0.00000  Uiso   1.00
C329   C     0.28692   0.96007   0.61357   0.00000  Uiso   1.00
C330   C     0.30139   0.91788   0.59801   0.00000  Uiso   1.00
C331   C     0.34103   0.85520   0.58248   0.00000  Uiso   1.00
C332   C     0.18436   0.00412   0.69381   0.00000  Uiso   1.00
C333   C     0.17911   0.02715   0.78785   0.00000  Uiso   1.00
C334   C     0.14428   0.01565   0.85201   0.00000  Uiso   1.00
C335   C     0.09299   0.00956   0.98346   0.00000  Uiso   1.00
C336   C     0.16768   0.94991   0.55875   0.00000  Uiso   1.00
C337   C     0.16879   0.98669   0.47763   0.00000  Uiso   1.00
C338   C     0.14485   0.98854   0.38419   0.00000  Uiso   1.00
C339   C     0.15045   0.02496   0.32061   0.00000  Uiso   1.00
C340   C     0.21441   0.93433   0.57022   0.00000  Uiso   1.00
C341   C     0.22882   0.89214   0.55465   0.00000  Uiso   1.00
C342   C     0.27282   0.88447   0.56903   0.00000  Uiso   1.00
C343   C     0.15584   0.97077   0.66489   0.00000  Uiso   1.00
C344   C     0.12101   0.95923   0.72892   0.00000  Uiso   1.00
C345   C     0.11571   0.98224   0.82303   0.00000  Uiso   1.00
H346   H     0.24240   0.03726   0.63453   0.00000  Uiso   1.00
H347   H     0.22503   0.08226   0.46552   0.00000  Uiso   1.00
H348   H     0.30898   0.98588   0.63596   0.00000  Uiso   1.00
H349   H     0.20119   0.05296   0.81021   0.00000  Uiso   1.00
H350   H     0.19320   0.11744   0.26537   0.00000  Uiso   1.00
H351   H     0.37022   0.91420   0.62479   0.00000  Uiso   1.00
H352   H     0.14292   0.05565   0.99223   0.00000  Uiso   1.00
H353   H     0.14548   0.92394   0.53623   0.00000  Uiso   1.00
H354   H     0.12278   0.96273   0.36182   0.00000  Uiso   1.00
H355   H     0.20674   0.86634   0.53227   0.00000  Uiso   1.00
H356   H     0.09895   0.93342   0.70651   0.00000  Uiso   1.00
H357   H     0.11021   0.02042   0.18120   0.00000  Uiso   1.00
H358   H     0.28724   0.81718   0.54063   0.00000  Uiso   1.00
H359   H     0.05994   0.95863   0.90806   0.00000  Uiso   1.00
O360   O     0.13853   0.09648   0.11031   0.00000  Uiso   1.00
O361   O     0.37078   0.82984   0.58189   0.00000  Uiso   1.00
O362   O     0.07257   0.01542   0.06395   0.00000  Uiso   1.00
N363   N     0.17677   0.08929   0.26950   0.00000  Uiso   1.00
N364   N     0.34228   0.89928   0.60553   0.00000  Uiso   1.00
N365   N     0.12979   0.03151   0.94907   0.00000  Uiso   1.00
N366   N     0.13212   0.03708   0.22421   0.00000  Uiso   1.00
N367   N     0.29763   0.84707   0.56024   0.00000  Uiso   1.00
N368   N     0.08513   0.97930   0.90378   0.00000  Uiso   1.00
C369   C     0.98870   0.27981   0.86200   0.00000  Uiso   1.00
C370   C     0.97996   0.30269   0.75655   0.00000  Uiso   1.00
C371   C     0.94354   0.29705   0.69311   0.00000  Uiso   1.00
C372   C     0.94163   0.32098   0.59959   0.00000  Uiso   1.00
C373   C     0.92300   0.35215   0.44023   0.00000  Uiso   1.00
C374   C     0.03233   0.25707   0.84915   0.00000  Uiso   1.00
C375   C     0.03993   0.21308   0.86357   0.00000  Uiso   1.00
C376   C     0.08212   0.19861   0.84801   0.00000  Uiso   1.00
C377   C     0.14480   0.15897   0.83248   0.00000  Uiso   1.00
C378   C     0.99588   0.31564   0.94381   0.00000  Uiso   1.00
C379   C     0.97285   0.32089   0.03785   0.00000  Uiso   1.00
C380   C     0.98435   0.35572   0.10201   0.00000  Uiso   1.00
C381   C     0.99044   0.40701   0.23346   0.00000  Uiso   1.00
C382   C     0.05009   0.33232   0.80875   0.00000  Uiso   1.00
C383   C     0.01331   0.33121   0.72763   0.00000  Uiso   1.00
C384   C     0.01146   0.35515   0.63419   0.00000  Uiso   1.00
C385   C     0.97504   0.34955   0.57061   0.00000  Uiso   1.00
C386   C     0.06567   0.28559   0.82022   0.00000  Uiso   1.00
C387   C     0.10786   0.27118   0.80465   0.00000  Uiso   1.00
C388   C     0.11553   0.22718   0.81903   0.00000  Uiso   1.00
C389   C     0.02923   0.34416   0.91489   0.00000  Uiso   1.00
C390   C     0.04077   0.37899   0.97892   0.00000  Uiso   1.00
C391   C     0.01776   0.38429   0.07303   0.00000  Uiso   1.00
H392   H     0.96274   0.25760   0.88453   0.00000  Uiso   1.00
H393   H     0.91774   0.27497   0.71552   0.00000  Uiso   1.00
H394   H     0.01412   0.19102   0.88596   0.00000  Uiso   1.00
H395   H     0.94704   0.29881   0.06021   0.00000  Uiso   1.00
H396   H     0.88256   0.30680   0.51537   0.00000  Uiso   1.00
H397   H     0.08580   0.12978   0.87479   0.00000  Uiso   1.00
H398   H     0.94435   0.35708   0.24223   0.00000  Uiso   1.00
H399   H     0.07606   0.35452   0.78623   0.00000  Uiso   1.00
H400   H     0.03727   0.37722   0.61182   0.00000  Uiso   1.00
H401   H     0.13366   0.29326   0.78227   0.00000  Uiso   1.00
H402   H     0.06658   0.40105   0.95651   0.00000  Uiso   1.00
H403   H     0.97958   0.38979   0.43120   0.00000  Uiso   1.00
H404   H     0.18282   0.21276   0.79063   0.00000  Uiso   1.00
H405   H     0.04137   0.44006   0.15806   0.00000  Uiso   1.00
O406   O     0.90352   0.36147   0.36031   0.00000  Uiso   1.00
O407   O     0.17016   0.12922   0.83189   0.00000  Uiso   1.00
O408   O     0.98458   0.42743   0.31395   0.00000  Uiso   1.00
N409   N     0.91071   0.32323   0.51950   0.00000  Uiso   1.00
N410   N     0.10072   0.15772   0.85553   0.00000  Uiso   1.00
N411   N     0.96849   0.37021   0.19907   0.00000  Uiso   1.00
N412   N     0.96292   0.36788   0.47421   0.00000  Uiso   1.00
N413   N     0.15293   0.20237   0.81024   0.00000  Uiso   1.00
N414   N     0.02070   0.41487   0.15378   0.00000  Uiso   1.00
C415   C     0.48870   0.77981   0.36200   0.00000  Uiso   1.00
C416   C     0.47996   0.80269   0.25655   0.00000  Uiso   1.00
C417   C     0.44354   0.79705   0.19311   0.00000  Uiso   1.00
C418   C     0.44163   0.82098   0.09959   0.00000  Uiso   1.00
C419   C     0.42300   0.85215   0.94023   0.00000  Uiso   1.00
C420   C     0.53233   0.75707   0.34915   0.00000  Uiso   1.00
C421   C     0.53993   0.71308   0.36357   0.00000  Uiso   1.00
C422   C     0.58212   0.69861   0.34801   0.00000  Uiso   1.00
C423   C     0.64480   0.65897   0.33248   0.00000  Uiso   1.00
C424   C     0.49588   0.81564   0.44381   0.00000  Uiso   1.00
C425   C     0.47285   0.82089   0.53785   0.00000  Uiso   1.00
C426   C     0.48435   0.85572   0.60201   0.00000  Uiso   1.00
C427   C     0.49044   0.90701   0.73346   0.00000  Uiso   1.00
C428   C     0.55009   0.83232   0.30875   0.00000  Uiso   1.00
C429   C     0.51331   0.83121   0.22763   0.00000  Uiso   1.00
C430   C     0.51146   0.85515   0.13419   0.00000  Uiso   1.00
C431   C     0.47504   0.84955   0.07061   0.00000  Uiso   1.00
C432   C     0.56567   0.78559   0.32022   0.00000  Uiso   1.00
C433   C     0.60786   0.77118   0.30465   0.00000  Uiso   1.00
C434   C     0.61553   0.72718   0.31903   0.00000  Uiso   1.00
C435   C     0.52923   0.84416   0.41489   0.00000  Uiso   1.00
C436   C     0.54077   0.87899   0.47892   0.00000  Uiso   1.00
C437   C     0.51776   0.88429   0.57303   0.00000  Uiso   1.00
H438   H     0.46274   0.75760   0.38453   0.00000  Uiso   1.00
H439   H     0.41774   0.77497   0.21552   0.00000  Uiso   1.00
H440   H     0.51412   0.69102   0.38596   0.00000  Uiso   1.00
H441   H     0.44704   0.79881   0.56021   0.00000  Uiso   1.00
H442   H     0.38256   0.80680   0.01537   0.00000  Uiso   1.00
H443   H     0.58580   0.62978   0.37479   0.00000  Uiso   1.00
H444   H     0.44435   0.85708   0.74223   0.00000  Uiso   1.00
H445   H     0.57606   0.85452   0.28623   0.00000  Uiso   1.00
H446   H     0.53727   0.87722   0.11182   0.00000  Uiso   1.00
H447   H     0.63366   0.79326   0.28227   0.00000  Uiso   1.00
H448   H     0.56658   0.90105   0.45651   0.00000  Uiso   1.00
H449   H     0.47958   0.88979   0.93120   0.00000  Uiso   1.00
H450   H     0.68282   0.71276   0.29063   0.00000  Uiso   1.00
H451   H     0.54137   0.94006   0.65806   0.00000  Uiso   1.00
O452   O     0.40352   0.86147   0.86031   0.00000  Uiso   1.00
O453   O     0.67016   0.62922   0.33189   0.00000  Uiso   1.00
O454   O     0.48458   0.92743   0.81395   0.00000  Uiso   1.00
N455   N     0.41071   0.82323   0.01950   0.00000  Uiso   1.00
N456   N     0.60072   0.65772   0.35553   0.00000  Uiso   1.00
N457   N     0.46849   0.87021   0.69907   0.00000  Uiso   1.00
N458   N     0.46292   0.86788   0.97421   0.00000  Uiso   1.00
N459   N     0.65293   0.70237   0.31024   0.00000  Uiso   1.00
N460   N     0.52070   0.91487   0.65378   0.00000  Uiso   1.00
C461   C     0.01130   0.72019   0.86200   0.00000  Uiso   1.00
C462   C     0.02004   0.69731   0.75655   0.00000  Uiso   1.00
C463   C     0.05646   0.70295   0.69311   0.00000  Uiso   1.00
C464   C     0.05837   0.67902   0.59959   0.00000  Uiso   1.00
C465   C     0.07700   0.64785   0.44023   0.00000  Uiso   1.00
C466   C     0.96767   0.74293   0.84915   0.00000  Uiso   1.00
C467   C     0.96007   0.78692   0.86357   0.00000  Uiso   1.00
C468   C     0.91788   0.80139   0.84801   0.00000  Uiso   1.00
C469   C     0.85520   0.84103   0.83248   0.00000  Uiso   1.00
C470   C     0.00412   0.68436   0.94381   0.00000  Uiso   1.00
C471   C     0.02715   0.67911   0.03785   0.00000  Uiso   1.00
C472   C     0.01565   0.64428   0.10201   0.00000  Uiso   1.00
C473   C     0.00956   0.59299   0.23346   0.00000  Uiso   1.00
C474   C     0.94991   0.66768   0.80875   0.00000  Uiso   1.00
C475   C     0.98669   0.66879   0.72763   0.00000  Uiso   1.00
C476   C     0.98854   0.64485   0.63419   0.00000  Uiso   1.00
C477   C     0.02496   0.65045   0.57061   0.00000  Uiso   1.00
C478   C     0.93433   0.71441   0.82022   0.00000  Uiso   1.00
C479   C     0.89214   0.72882   0.80465   0.00000  Uiso   1.00
C480   C     0.88447   0.77282   0.81903   0.00000  Uiso   1.00
C481   C     0.97077   0.65584   0.91489   0.00000  Uiso   1.00
C482   C     0.95923   0.62101   0.97892   0.00000  Uiso   1.00
C483   C     0.98224   0.61571   0.07303   0.00000  Uiso   1.00
H484   H     0.03726   0.74240   0.88453   0.00000  Uiso   1.00
H485   H     0.08226   0.72503   0.71552   0.00000  Uiso   1.00
H486   H     0.98588   0.80898   0.88596   0.00000  Uiso   1.00
H487   H     0.05296   0.70119   0.06021   0.00000  Uiso   1.00
H488   H     0.11744   0.69320   0.51537   0.00000  Uiso   1.00
H489   H     0.91420   0.87022   0.87479   0.00000  Uiso   1.00
H490   H     0.05565   0.64292   0.24223   0.00000  Uiso   1.00
H491   H     0.92394   0.64548   0.78623   0.00000  Uiso   1.00
H492   H     0.96273   0.62278   0.61182   0.00000  Uiso   1.00
H493   H     0.86634   0.70674   0.78227   0.00000  Uiso   1.00
H494   H     0.93342   0.59895   0.95651   0.00000  Uiso   1.00
H495   H     0.02042   0.61021   0.43120   0.00000  Uiso   1.00
H496   H     0.81718   0.78724   0.79063   0.00000  Uiso   1.00
H497   H     0.95863   0.55994   0.15806   0.00000  Uiso   1.00
O498   O     0.09648   0.63853   0.36031   0.00000  Uiso   1.00
O499   O     0.82984   0.87078   0.83189   0.00000  Uiso   1.00
O500   O     0.01542   0.57257   0.31395   0.00000  Uiso   1.00
N501   N     0.08929   0.67677   0.51950   0.00000  Uiso   1.00
N502   N     0.89928   0.84228   0.85553   0.00000  Uiso   1.00
N503   N     0.03151   0.62979   0.19907   0.00000  Uiso   1.00
N504   N     0.03708   0.63212   0.47421   0.00000  Uiso   1.00
N505   N     0.84707   0.79763   0.81024   0.00000  Uiso   1.00
N506   N     0.97930   0.58513   0.15378   0.00000  Uiso   1.00
C507   C     0.51130   0.22019   0.36200   0.00000  Uiso   1.00
C508   C     0.52004   0.19731   0.25655   0.00000  Uiso   1.00
C509   C     0.55646   0.20295   0.19311   0.00000  Uiso   1.00
C510   C     0.55837   0.17902   0.09959   0.00000  Uiso   1.00
C511   C     0.57700   0.14785   0.94023   0.00000  Uiso   1.00
C512   C     0.46767   0.24293   0.34915   0.00000  Uiso   1.00
C513   C     0.46007   0.28692   0.36357   0.00000  Uiso   1.00
C514   C     0.41788   0.30139   0.34801   0.00000  Uiso   1.00
C515   C     0.35520   0.34103   0.33248   0.00000  Uiso   1.00
C516   C     0.50412   0.18436   0.44381   0.00000  Uiso   1.00
C517   C     0.52715   0.17911   0.53785   0.00000  Uiso   1.00
C518   C     0.51565   0.14428   0.60201   0.00000  Uiso   1.00
C519   C     0.50956   0.09299   0.73346   0.00000  Uiso   1.00
C520   C     0.44991   0.16768   0.30875   0.00000  Uiso   1.00
C521   C     0.48669   0.16879   0.22763   0.00000  Uiso   1.00
C522   C     0.48854   0.14485   0.13419   0.00000  Uiso   1.00
C523   C     0.52496   0.15045   0.07061   0.00000  Uiso   1.00
C524   C     0.43433   0.21441   0.32022   0.00000  Uiso   1.00
C525   C     0.39214   0.22882   0.30465   0.00000  Uiso   1.00
C526   C     0.38447   0.27282   0.31903   0.00000  Uiso   1.00
C527   C     0.47077   0.15584   0.41489   0.00000  Uiso   1.00
C528   C     0.45923   0.12101   0.47892   0.00000  Uiso   1.00
C529   C     0.48224   0.11571   0.57303   0.00000  Uiso   1.00
H530   H     0.53726   0.24240   0.38453   0.00000  Uiso   1.00
H531   H     0.58226   0.22503   0.21552   0.00000  Uiso   1.00
H532   H     0.48588   0.30898   0.38596   0.00000  Uiso   1.00
H533   H     0.55296   0.20119   0.56021   0.00000  Uiso   1.00
H534   H     0.61744   0.19320   0.01537   0.00000  Uiso   1.00
H535   H     0.41420   0.37022   0.37479   0.00000  Uiso   1.00
H536   H     0.55565   0.14292   0.74223   0.00000  Uiso   1.00
H537   H     0.42394   0.14548   0.28623   0.00000  Uiso   1.00
H538   H     0.46273   0.12278   0.11182   0.00000  Uiso   1.00
H539   H     0.36634   0.20674   0.28227   0.00000  Uiso   1.00
H540   H     0.43342   0.09895   0.45651   0.00000  Uiso   1.00
H541   H     0.52042   0.11021   0.93120   0.00000  Uiso   1.00
H542   H     0.31718   0.28724   0.29063   0.00000  Uiso   1.00
H543   H     0.45863   0.05994   0.65806   0.00000  Uiso   1.00
O544   O     0.59648   0.13853   0.86031   0.00000  Uiso   1.00
O545   O     0.32984   0.37078   0.33189   0.00000  Uiso   1.00
O546   O     0.51542   0.07257   0.81395   0.00000  Uiso   1.00
N547   N     0.58929   0.17677   0.01950   0.00000  Uiso   1.00
N548   N     0.39928   0.34228   0.35553   0.00000  Uiso   1.00
N549   N     0.53151   0.12979   0.69907   0.00000  Uiso   1.00
N550   N     0.53708   0.13212   0.97421   0.00000  Uiso   1.00
N551   N     0.34707   0.29763   0.31024   0.00000  Uiso   1.00
N552   N     0.47930   0.08513   0.65378   0.00000  Uiso   1.00
C553   C     0.22019   0.48870   0.63800   0.00000  Uiso   1.00
C554   C     0.19731   0.47996   0.74345   0.00000  Uiso   1.00
C555   C     0.20295   0.44354   0.80689   0.00000  Uiso   1.00
C556   C     0.17902   0.44163   0.90041   0.00000  Uiso   1.00
C557   C     0.14785   0.42300   0.05977   0.00000  Uiso   1.00
C558   C     0.24293   0.53233   0.65085   0.00000  Uiso   1.00
C559   C     0.28692   0.53993   0.63643   0.00000  Uiso   1.00
C560   C     0.30139   0.58212   0.65199   0.00000  Uiso   1.00
C561   C     0.34103   0.64480   0.66752   0.00000  Uiso   1.00
C562   C     0.18436   0.49588   0.55619   0.00000  Uiso   1.00
C563   C     0.17911   0.47285   0.46215   0.00000  Uiso   1.00
C564   C     0.14428   0.48435   0.39799   0.00000  Uiso   1.00
C565   C     0.09299   0.49044   0.26654   0.00000  Uiso   1.00
C566   C     0.16768   0.55009   0.69125   0.00000  Uiso   1.00
C567   C     0.16879   0.51331   0.77237   0.00000  Uiso   1.00
C568   C     0.14485   0.51146   0.86581   0.00000  Uiso   1.00
C569   C     0.15045   0.47504   0.92939   0.00000  Uiso   1.00
C570   C     0.21441   0.56567   0.67978   0.00000  Uiso   1.00
C571   C     0.22882   0.60786   0.69535   0.00000  Uiso   1.00
C572   C     0.27282   0.61553   0.68097   0.00000  Uiso   1.00
C573   C     0.15584   0.52923   0.58511   0.00000  Uiso   1.00
C574   C     0.12101   0.54077   0.52108   0.00000  Uiso   1.00
C575   C     0.11571   0.51776   0.42697   0.00000  Uiso   1.00
H576   H     0.24240   0.46274   0.61547   0.00000  Uiso   1.00
H577   H     0.22503   0.41774   0.78448   0.00000  Uiso   1.00
H578   H     0.30898   0.51412   0.61404   0.00000  Uiso   1.00
H579   H     0.20119   0.44704   0.43979   0.00000  Uiso   1.00
H580   H     0.19320   0.38256   0.98463   0.00000  Uiso   1.00
H581   H     0.37022   0.58580   0.62521   0.00000  Uiso   1.00
H582   H     0.14292   0.44435   0.25777   0.00000  Uiso   1.00
H583   H     0.14548   0.57606   0.71377   0.00000  Uiso   1.00
H584   H     0.12278   0.53727   0.88818   0.00000  Uiso   1.00
H585   H     0.20674   0.63366   0.71773   0.00000  Uiso   1.00
H586   H     0.09895   0.56658   0.54349   0.00000  Uiso   1.00
H587   H     0.11021   0.47958   0.06880   0.00000  Uiso   1.00
H588   H     0.28724   0.68282   0.70937   0.00000  Uiso   1.00
H589   H     0.05994   0.54137   0.34194   0.00000  Uiso   1.00
O590   O     0.13853   0.40352   0.13969   0.00000  Uiso   1.00
O591   O     0.37078   0.67016   0.66811   0.00000  Uiso   1.00
O592   O     0.07257   0.48458   0.18605   0.00000  Uiso   1.00
N593   N     0.17677   0.41071   0.98050   0.00000  Uiso   1.00
N594   N     0.34228   0.60072   0.64447   0.00000  Uiso   1.00
N595   N     0.12979   0.46849   0.30093   0.00000  Uiso   1.00
N596   N     0.13212   0.46292   0.02579   0.00000  Uiso   1.00
N597   N     0.29763   0.65293   0.68976   0.00000  Uiso   1.00
N598   N     0.08513   0.52070   0.34622   0.00000  Uiso   1.00
C599   C     0.72019   0.98870   0.13800   0.00000  Uiso   1.00
C600   C     0.69731   0.97996   0.24345   0.00000  Uiso   1.00
C601   C     0.70295   0.94354   0.30689   0.00000  Uiso   1.00
C602   C     0.67902   0.94163   0.40041   0.00000  Uiso   1.00
C603   C     0.64785   0.92300   0.55977   0.00000  Uiso   1.00
C604   C     0.74293   0.03233   0.15085   0.00000  Uiso   1.00
C605   C     0.78692   0.03993   0.13643   0.00000  Uiso   1.00
C606   C     0.80139   0.08212   0.15199   0.00000  Uiso   1.00
C607   C     0.84103   0.14480   0.16752   0.00000  Uiso   1.00
C608   C     0.68436   0.99588   0.05619   0.00000  Uiso   1.00
C609   C     0.67911   0.97285   0.96215   0.00000  Uiso   1.00
C610   C     0.64428   0.98435   0.89799   0.00000  Uiso   1.00
C611   C     0.59299   0.99044   0.76654   0.00000  Uiso   1.00
C612   C     0.66768   0.05009   0.19125   0.00000  Uiso   1.00
C613   C     0.66879   0.01331   0.27237   0.00000  Uiso   1.00
C614   C     0.64485   0.01146   0.36581   0.00000  Uiso   1.00
C615   C     0.65045   0.97504   0.42939   0.00000  Uiso   1.00
C616   C     0.71441   0.06567   0.17978   0.00000  Uiso   1.00
C617   C     0.72882   0.10786   0.19535   0.00000  Uiso   1.00
C618   C     0.77282   0.11553   0.18097   0.00000  Uiso   1.00
C619   C     0.65584   0.02923   0.08511   0.00000  Uiso   1.00
C620   C     0.62101   0.04077   0.02108   0.00000  Uiso   1.00
C621   C     0.61571   0.01776   0.92697   0.00000  Uiso   1.00
H622   H     0.74240   0.96274   0.11547   0.00000  Uiso   1.00
H623   H     0.72503   0.91774   0.28448   0.00000  Uiso   1.00
H624   H     0.80898   0.01412   0.11404   0.00000  Uiso   1.00
H625   H     0.70119   0.94704   0.93979   0.00000  Uiso   1.00
H626   H     0.69320   0.88256   0.48463   0.00000  Uiso   1.00
H627   H     0.87022   0.08580   0.12521   0.00000  Uiso   1.00
H628   H     0.64292   0.94435   0.75777   0.00000  Uiso   1.00
H629   H     0.64548   0.07606   0.21377   0.00000  Uiso   1.00
H630   H     0.62278   0.03727   0.38818   0.00000  Uiso   1.00
H631   H     0.70674   0.13366   0.21773   0.00000  Uiso   1.00
H632   H     0.59895   0.06658   0.04349   0.00000  Uiso   1.00
H633   H     0.61021   0.97958   0.56880   0.00000  Uiso   1.00
H634   H     0.78724   0.18282   0.20937   0.00000  Uiso   1.00
H635   H     0.55994   0.04137   0.84194   0.00000  Uiso   1.00
O636   O     0.63853   0.90352   0.63969   0.00000  Uiso   1.00
O637   O     0.87078   0.17016   0.16811   0.00000  Uiso   1.00
O638   O     0.57257   0.98458   0.68605   0.00000  Uiso   1.00
N639   N     0.67677   0.91071   0.48050   0.00000  Uiso   1.00
N640   N     0.84228   0.10072   0.14447   0.00000  Uiso   1.00
N641   N     0.62979   0.96849   0.80093   0.00000  Uiso   1.00
N642   N     0.63212   0.96292   0.52579   0.00000  Uiso   1.00
N643   N     0.79763   0.15293   0.18976   0.00000  Uiso   1.00
N644   N     0.58513   0.02070   0.84622   0.00000  Uiso   1.00
C645   C     0.77981   0.51130   0.63800   0.00000  Uiso   1.00
C646   C     0.80269   0.52004   0.74345   0.00000  Uiso   1.00
C647   C     0.79705   0.55646   0.80689   0.00000  Uiso   1.00
C648   C     0.82098   0.55837   0.90041   0.00000  Uiso   1.00
C649   C     0.85215   0.57700   0.05977   0.00000  Uiso   1.00
C650   C     0.75707   0.46767   0.65085   0.00000  Uiso   1.00
C651   C     0.71308   0.46007   0.63643   0.00000  Uiso   1.00
C652   C     0.69861   0.41788   0.65199   0.00000  Uiso   1.00
C653   C     0.65897   0.35520   0.66752   0.00000  Uiso   1.00
C654   C     0.81564   0.50412   0.55619   0.00000  Uiso   1.00
C655   C     0.82089   0.52715   0.46215   0.00000  Uiso   1.00
C656   C     0.85572   0.51565   0.39799   0.00000  Uiso   1.00
C657   C     0.90701   0.50956   0.26654   0.00000  Uiso   1.00
C658   C     0.83232   0.44991   0.69125   0.00000  Uiso   1.00
C659   C     0.83121   0.48669   0.77237   0.00000  Uiso   1.00
C660   C     0.85515   0.48854   0.86581   0.00000  Uiso   1.00
C661   C     0.84955   0.52496   0.92939   0.00000  Uiso   1.00
C662   C     0.78559   0.43433   0.67978   0.00000  Uiso   1.00
C663   C     0.77118   0.39214   0.69535   0.00000  Uiso   1.00
C664   C     0.72718   0.38447   0.68097   0.00000  Uiso   1.00
C665   C     0.84416   0.47077   0.58511   0.00000  Uiso   1.00
C666   C     0.87899   0.45923   0.52108   0.00000  Uiso   1.00
C667   C     0.88429   0.48224   0.42697   0.00000  Uiso   1.00
H668   H     0.75760   0.53726   0.61547   0.00000  Uiso   1.00
H669   H     0.77497   0.58226   0.78448   0.00000  Uiso   1.00
H670   H     0.69102   0.48588   0.61404   0.00000  Uiso   1.00
H671   H     0.79881   0.55296   0.43979   0.00000  Uiso   1.00
H672   H     0.80680   0.61744   0.98463   0.00000  Uiso   1.00
H673   H     0.62978   0.41420   0.62521   0.00000  Uiso   1.00
H674   H     0.85708   0.55565   0.25777   0.00000  Uiso   1.00
H675   H     0.85452   0.42394   0.71377   0.00000  Uiso   1.00
H676   H     0.87722   0.46273   0.88818   0.00000  Uiso   1.00
H677   H     0.79326   0.36634   0.71773   0.00000  Uiso   1.00
H678   H     0.90105   0.43342   0.54349   0.00000  Uiso   1.00
H679   H     0.88979   0.52042   0.06880   0.00000  Uiso   1.00
H680   H     0.71276   0.31718   0.70937   0.00000  Uiso   1.00
H681   H     0.94006   0.45863   0.34194   0.00000  Uiso   1.00
O682   O     0.86147   0.59648   0.13969   0.00000  Uiso   1.00
O683   O     0.62922   0.32984   0.66811   0.00000  Uiso   1.00
O684   O     0.92743   0.51542   0.18605   0.00000  Uiso   1.00
N685   N     0.82323   0.58929   0.98050   0.00000  Uiso   1.00
N686   N     0.65772   0.39928   0.64447   0.00000  Uiso   1.00
N687   N     0.87021   0.53151   0.30093   0.00000  Uiso   1.00
N688   N     0.86788   0.53708   0.02579   0.00000  Uiso   1.00
N689   N     0.70237   0.34707   0.68976   0.00000  Uiso   1.00
N690   N     0.91487   0.47930   0.34622   0.00000  Uiso   1.00
C691   C     0.27981   0.01130   0.13800   0.00000  Uiso   1.00
C692   C     0.30269   0.02004   0.24345   0.00000  Uiso   1.00
C693   C     0.29705   0.05646   0.30689   0.00000  Uiso   1.00
C694   C     0.32098   0.05837   0.40041   0.00000  Uiso   1.00
C695   C     0.35215   0.07700   0.55977   0.00000  Uiso   1.00
C696   C     0.25707   0.96767   0.15085   0.00000  Uiso   1.00
C697   C     0.21308   0.96007   0.13643   0.00000  Uiso   1.00
C698   C     0.19861   0.91788   0.15199   0.00000  Uiso   1.00
C699   C     0.15897   0.85520   0.16752   0.00000  Uiso   1.00
C700   C     0.31564   0.00412   0.05619   0.00000  Uiso   1.00
C701   C     0.32089   0.02715   0.96215   0.00000  Uiso   1.00
C702   C     0.35572   0.01565   0.89799   0.00000  Uiso   1.00
C703   C     0.40701   0.00956   0.76654   0.00000  Uiso   1.00
C704   C     0.33232   0.94991   0.19125   0.00000  Uiso   1.00
C705   C     0.33121   0.98669   0.27237   0.00000  Uiso   1.00
C706   C     0.35515   0.98854   0.36581   0.00000  Uiso   1.00
C707   C     0.34955   0.02496   0.42939   0.00000  Uiso   1.00
C708   C     0.28559   0.93433   0.17978   0.00000  Uiso   1.00
C709   C     0.27118   0.89214   0.19535   0.00000  Uiso   1.00
C710   C     0.22718   0.88447   0.18097   0.00000  Uiso   1.00
C711   C     0.34416   0.97077   0.08511   0.00000  Uiso   1.00
C712   C     0.37899   0.95923   0.02108   0.00000  Uiso   1.00
C713   C     0.38429   0.98224   0.92697   0.00000  Uiso   1.00
H714   H     0.25760   0.03726   0.11547   0.00000  Uiso   1.00
H715   H     0.27497   0.08226   0.28448   0.00000  Uiso   1.00
H716   H     0.19102   0.98588   0.11404   0.00000  Uiso   1.00
H717   H     0.29881   0.05296   0.93979   0.00000  Uiso   1.00
H718   H     0.30680   0.11744   0.48463   0.00000  Uiso   1.00
H719   H     0.12978   0.91420   0.12521   0.00000  Uiso   1.00
H720   H     0.35708   0.05565   0.75777   0.00000  Uiso   1.00
H721   H     0.35452   0.92394   0.21377   0.00000  Uiso   1.00
H722   H     0.37722   0.96273   0.38818   0.00000  Uiso   1.00
H723   H     0.29326   0.86634   0.21773   0.00000  Uiso   1.00
H724   H     0.40105   0.93342   0.04349   0.00000  Uiso   1.00
H725   H     0.38979   0.02042   0.56880   0.00000  Uiso   1.00
H726   H     0.21276   0.81718   0.20937   0.00000  Uiso   1.00
H727   H     0.44006   0.95863   0.84194   0.00000  Uiso   1.00
O728   O     0.36147   0.09648   0.63969   0.00000  Uiso   1.00
O729   O     0.12922   0.82984   0.16811   0.00000  Uiso   1.00
O730   O     0.42743   0.01542   0.68605   0.00000  Uiso   1.00
N731   N     0.32323   0.08929   0.48050   0.00000  Uiso   1.00
N732   N     0.15772   0.89928   0.14447   0.00000  Uiso   1.00
N733   N     0.37021   0.03151   0.80093   0.00000  Uiso   1.00
N734   N     0.36788   0.03708   0.52579   0.00000  Uiso   1.00
N735   N     0.20237   0.84707   0.18976   0.00000  Uiso   1.00
N736   N     0.41487   0.97930   0.84622   0.00000  Uiso   1.00
