data_job_06489
_audit_creation_date              2018-12-19
_audit_creation_method            'Materials Studio'
_symmetry_space_group_name_H-M    'P1'
_symmetry_Int_Tables_number       1
_symmetry_cell_setting            triclinic
loop_
_symmetry_equiv_pos_as_xyz
  x,y,z
_cell_length_a                    36.6611
_cell_length_b                    21.4532
_cell_length_c                    53.0367
_cell_angle_alpha                 90.0000
_cell_angle_beta                  156.9453
_cell_angle_gamma                 90.0000
loop_
_atom_site_label
_atom_site_type_symbol
_atom_site_fract_x
_atom_site_fract_y
_atom_site_fract_z
_atom_site_U_iso_or_equiv
_atom_site_adp_type
_atom_site_occupancy
C1     C     0.41918   0.30836   0.65787   0.00000  Uiso   1.00
C2     C     0.34614   0.29819   0.63188   0.00000  Uiso   1.00
C3     C     0.32286   0.24131   0.62782   0.00000  Uiso   1.00
C4     C     0.25421   0.24180   0.60259   0.00000  Uiso   1.00
C5     C     0.14741   0.21756   0.56531   0.00000  Uiso   1.00
C6     C     0.36885   0.34062   0.60415   0.00000  Uiso   1.00
C7     C     0.36467   0.31942   0.57680   0.00000  Uiso   1.00
C8     C     0.31514   0.35563   0.52824   0.00000  Uiso   1.00
C9     C     0.24365   0.39729   0.44795   0.00000  Uiso   1.00
C10    C     0.48737   0.35619   0.71180   0.00000  Uiso   1.00
C11    C     0.58286   0.34810   0.77496   0.00000  Uiso   1.00
C12    C     0.13313   0.89744   0.81703   0.00000  Uiso   1.00
C13    C     0.24567   0.96328   0.90388   0.00000  Uiso   1.00
C14    C     0.33866   0.41037   0.62027   0.00000  Uiso   1.00
C15    C     0.30240   0.35359   0.61145   0.00000  Uiso   1.00
C16    C     0.23377   0.35417   0.58622   0.00000  Uiso   1.00
C17    C     0.21039   0.29730   0.58213   0.00000  Uiso   1.00
C18    C     0.32511   0.39602   0.58373   0.00000  Uiso   1.00
C19    C     0.27558   0.43228   0.53520   0.00000  Uiso   1.00
C20    C     0.27132   0.41114   0.50778   0.00000  Uiso   1.00
C21    C     0.44364   0.41160   0.69138   0.00000  Uiso   1.00
C22    C     0.99376   0.96096   0.73336   0.00000  Uiso   1.00
C23    C     0.08931   0.95294   0.79657   0.00000  Uiso   1.00
H24    H     0.45323   0.26523   0.67376   0.00000  Uiso   1.00
H25    H     0.35672   0.19844   0.64363   0.00000  Uiso   1.00
H26    H     0.39853   0.27654   0.59262   0.00000  Uiso   1.00
H27    H     0.61668   0.30522   0.79074   0.00000  Uiso   1.00
H28    H     0.23040   0.14882   0.60118   0.00000  Uiso   1.00
H29    H     0.31859   0.31352   0.49364   0.00000  Uiso   1.00
H30    H     0.27861   0.87398   0.91144   0.00000  Uiso   1.00
H31    H     0.30460   0.45351   0.60437   0.00000  Uiso   1.00
H32    H     0.19993   0.39706   0.57042   0.00000  Uiso   1.00
H33    H     0.74174   0.97516   0.51941   0.00000  Uiso   1.00
H34    H     0.95990   0.00383   0.71754   0.00000  Uiso   1.00
H35    H     0.10315   0.31003   0.54177   0.00000  Uiso   1.00
H36    H     0.69134   0.97472   0.43423   0.00000  Uiso   1.00
H37    H     0.15135   0.03519   0.85202   0.00000  Uiso   1.00
O38    O     0.10058   0.18888   0.55038   0.00000  Uiso   1.00
O39    O     0.71629   0.90496   0.40930   0.00000  Uiso   1.00
O40    O     0.31983   0.98429   0.95743   0.00000  Uiso   1.00
N41    N     0.21483   0.19451   0.59187   0.00000  Uiso   1.00
N42    N     0.29727   0.34848   0.49132   0.00000  Uiso   1.00
N43    N     0.22735   0.90502   0.88192   0.00000  Uiso   1.00
N44    N     0.14636   0.28125   0.55990   0.00000  Uiso   1.00
N45    N     0.72879   0.93523   0.45935   0.00000  Uiso   1.00
N46    N     0.15888   0.99177   0.84994   0.00000  Uiso   1.00
C47    C     0.22278   0.91804   0.66253   0.00000  Uiso   1.00
C48    C     0.21166   0.86580   0.63619   0.00000  Uiso   1.00
C49    C     0.24692   0.86597   0.63425   0.00000  Uiso   1.00
C50    C     0.22919   0.81374   0.60827   0.00000  Uiso   1.00
C51    C     0.21967   0.74034   0.57088   0.00000  Uiso   1.00
C52    C     0.12438   0.93618   0.60790   0.00000  Uiso   1.00
C53    C     0.08625   0.99552   0.58218   0.00000  Uiso   1.00
C54    C     0.99505   0.00253   0.53241   0.00000  Uiso   1.00
C55    C     0.85005   0.03841   0.45112   0.00000  Uiso   1.00
C56    C     0.26774   0.88836   0.71424   0.00000  Uiso   1.00
C57    C     0.35014   0.90749   0.77793   0.00000  Uiso   1.00
C58    C     0.37963   0.87425   0.81768   0.00000  Uiso   1.00
C59    C     0.45722   0.83587   0.90151   0.00000  Uiso   1.00
C60    C     0.12860   0.82499   0.61986   0.00000  Uiso   1.00
C61    C     0.16051   0.81527   0.61301   0.00000  Uiso   1.00
C62    C     0.14273   0.76302   0.58704   0.00000  Uiso   1.00
C63    C     0.17795   0.76311   0.58506   0.00000  Uiso   1.00
C64    C     0.07323   0.88565   0.58473   0.00000  Uiso   1.00
C65    C     0.98206   0.89257   0.53498   0.00000  Uiso   1.00
C66    C     0.94380   0.95190   0.50919   0.00000  Uiso   1.00
C67    C     0.21659   0.83782   0.69107   0.00000  Uiso   1.00
C68    C     0.24595   0.80455   0.73073   0.00000  Uiso   1.00
C69    C     0.32838   0.82362   0.79447   0.00000  Uiso   1.00
H70    H     0.26259   0.95738   0.68056   0.00000  Uiso   1.00
H71    H     0.28649   0.90509   0.65218   0.00000  Uiso   1.00
H72    H     0.12585   0.03462   0.60013   0.00000  Uiso   1.00
H73    H     0.38970   0.94661   0.79585   0.00000  Uiso   1.00
H74    H     0.29040   0.82483   0.61047   0.00000  Uiso   1.00
H75    H     0.95170   0.09796   0.50073   0.00000  Uiso   1.00
H76    H     0.50808   0.91237   0.91344   0.00000  Uiso   1.00
H77    H     0.08878   0.78564   0.60182   0.00000  Uiso   1.00
H78    H     0.10314   0.72392   0.56911   0.00000  Uiso   1.00
H79    H     0.94250   0.85345   0.51706   0.00000  Uiso   1.00
H80    H     0.20635   0.76544   0.71278   0.00000  Uiso   1.00
H81    H     0.14158   0.67779   0.54304   0.00000  Uiso   1.00
H82    H     0.80288   0.95092   0.43331   0.00000  Uiso   1.00
H83    H     0.35926   0.76532   0.84602   0.00000  Uiso   1.00
O84    O     0.22854   0.71382   0.55664   0.00000  Uiso   1.00
O85    O     0.78420   0.07215   0.41269   0.00000  Uiso   1.00
O86    O     0.51415   0.82866   0.95415   0.00000  Uiso   1.00
N87    N     0.25342   0.79869   0.59910   0.00000  Uiso   1.00
N88    N     0.93675   0.05405   0.49650   0.00000  Uiso   1.00
N89    N     0.45691   0.88054   0.88234   0.00000  Uiso   1.00
N90    N     0.17334   0.71957   0.56282   0.00000  Uiso   1.00
N91    N     0.85667   0.97493   0.46022   0.00000  Uiso   1.00
N92    N     0.37683   0.80142   0.84606   0.00000  Uiso   1.00
C93    C     0.50865   0.82963   0.65583   0.00000  Uiso   1.00
C94    C     0.48738   0.87729   0.62176   0.00000  Uiso   1.00
C95    C     0.47084   0.94033   0.61503   0.00000  Uiso   1.00
C96    C     0.45266   0.97614   0.58223   0.00000  Uiso   1.00
C97    C     0.41981   0.05414   0.53312   0.00000  Uiso   1.00
C98    C     0.43536   0.77861   0.60653   0.00000  Uiso   1.00
C99    C     0.37510   0.75869   0.58700   0.00000  Uiso   1.00
C100   C     0.31314   0.71143   0.54139   0.00000  Uiso   1.00
C101   C     0.19960   0.63620   0.46867   0.00000  Uiso   1.00
C102   C     0.60123   0.79976   0.70747   0.00000  Uiso   1.00
C103   C     0.68043   0.79759   0.77282   0.00000  Uiso   1.00
C104   C     0.75812   0.76812   0.81219   0.00000  Uiso   1.00
C105   C     0.40212   0.22572   0.89620   0.00000  Uiso   1.00
C106   C     0.50578   0.78113   0.60953   0.00000  Uiso   1.00
C107   C     0.48582   0.85094   0.59661   0.00000  Uiso   1.00
C108   C     0.46766   0.88667   0.56381   0.00000  Uiso   1.00
C109   C     0.45110   0.94975   0.55704   0.00000  Uiso   1.00
C110   C     0.43380   0.75227   0.58138   0.00000  Uiso   1.00
C111   C     0.37193   0.70502   0.53578   0.00000  Uiso   1.00
C112   C     0.31158   0.68503   0.51619   0.00000  Uiso   1.00
C113   C     0.59968   0.77341   0.68232   0.00000  Uiso   1.00
C114   C     0.17726   0.24393   0.72160   0.00000  Uiso   1.00
C115   C     0.25656   0.24173   0.78699   0.00000  Uiso   1.00
H116   H     0.50986   0.85014   0.67540   0.00000  Uiso   1.00
H117   H     0.47204   0.96070   0.63449   0.00000  Uiso   1.00
H118   H     0.37633   0.77908   0.60648   0.00000  Uiso   1.00
H119   H     0.68161   0.81798   0.79226   0.00000  Uiso   1.00
H120   H     0.42939   0.07165   0.57802   0.00000  Uiso   1.00
H121   H     0.22760   0.68868   0.51897   0.00000  Uiso   1.00
H122   H     0.87135   0.77072   0.91074   0.00000  Uiso   1.00
H123   H     0.50457   0.76062   0.58995   0.00000  Uiso   1.00
H124   H     0.46646   0.86627   0.54435   0.00000  Uiso   1.00
H125   H     0.37074   0.68465   0.51634   0.00000  Uiso   1.00
H126   H     0.17603   0.22355   0.70212   0.00000  Uiso   1.00
H127   H     0.42485   0.99500   0.50486   0.00000  Uiso   1.00
H128   H     0.22307   0.61203   0.44581   0.00000  Uiso   1.00
H129   H     0.36681   0.19407   0.83757   0.00000  Uiso   1.00
O130   O     0.40212   0.10444   0.51297   0.00000  Uiso   1.00
O131   O     0.13739   0.60199   0.43550   0.00000  Uiso   1.00
O132   O     0.48197   0.20962   0.94949   0.00000  Uiso   1.00
N133   N     0.43357   0.03911   0.56707   0.00000  Uiso   1.00
N134   N     0.24490   0.68107   0.51185   0.00000  Uiso   1.00
N135   N     0.34674   0.25775   0.87812   0.00000  Uiso   1.00
N136   N     0.43113   0.99787   0.52771   0.00000  Uiso   1.00
N137   N     0.24246   0.63983   0.47249   0.00000  Uiso   1.00
N138   N     0.34430   0.21651   0.83875   0.00000  Uiso   1.00
C139   C     0.14860   0.05347   0.13758   0.00000  Uiso   1.00
C140   C     0.15192   0.10965   0.12209   0.00000  Uiso   1.00
C141   C     0.20155   0.11326   0.13126   0.00000  Uiso   1.00
C142   C     0.69554   0.66873   0.11405   0.00000  Uiso   1.00
C143   C     0.70882   0.74834   0.09384   0.00000  Uiso   1.00
C144   C     0.04589   0.03682   0.07511   0.00000  Uiso   1.00
C145   C     0.00638   0.97919   0.04478   0.00000  Uiso   1.00
C146   C     0.91112   0.97336   0.98803   0.00000  Uiso   1.00
C147   C     0.75980   0.93989   0.89491   0.00000  Uiso   1.00
C148   C     0.18020   0.07705   0.18341   0.00000  Uiso   1.00
C149   C     0.25361   0.05323   0.24414   0.00000  Uiso   1.00
C150   C     0.27141   0.08125   0.27857   0.00000  Uiso   1.00
C151   C     0.32863   0.11024   0.35361   0.00000  Uiso   1.00
C152   C     0.04966   0.14556   0.09072   0.00000  Uiso   1.00
C153   C     0.09817   0.15967   0.09664   0.00000  Uiso   1.00
C154   C     0.59208   0.71515   0.07941   0.00000  Uiso   1.00
C155   C     0.64171   0.71884   0.08855   0.00000  Uiso   1.00
C156   C     0.99214   0.08684   0.04966   0.00000  Uiso   1.00
C157   C     0.89692   0.08108   0.99294   0.00000  Uiso   1.00
C158   C     0.85728   0.02347   0.96253   0.00000  Uiso   1.00
C159   C     0.12646   0.12707   0.15796   0.00000  Uiso   1.00
C160   C     0.14414   0.15513   0.19230   0.00000  Uiso   1.00
C161   C     0.21757   0.13136   0.25307   0.00000  Uiso   1.00
H162   H     0.19044   0.01452   0.15739   0.00000  Uiso   1.00
H163   H     0.24313   0.07454   0.15095   0.00000  Uiso   1.00
H164   H     0.04799   0.94049   0.06450   0.00000  Uiso   1.00
H165   H     0.29518   0.01452   0.26382   0.00000  Uiso   1.00
H166   H     0.77782   0.66312   0.13257   0.00000  Uiso   1.00
H167   H     0.86637   0.88048   0.95028   0.00000  Uiso   1.00
H168   H     0.38762   0.03658   0.37060   0.00000  Uiso   1.00
H169   H     0.00782   0.18451   0.07090   0.00000  Uiso   1.00
H170   H     0.55049   0.75385   0.05972   0.00000  Uiso   1.00
H171   H     0.85535   0.11980   0.97326   0.00000  Uiso   1.00
H172   H     0.10254   0.19383   0.17258   0.00000  Uiso   1.00
H173   H     0.62146   0.80866   0.05851   0.00000  Uiso   1.00
H174   H     0.71001   0.02601   0.87622   0.00000  Uiso   1.00
H175   H     0.23126   0.18212   0.29655   0.00000  Uiso   1.00
O176   O     0.73098   0.77844   0.08972   0.00000  Uiso   1.00
O177   O     0.69118   0.90761   0.85057   0.00000  Uiso   1.00
O178   O     0.37505   0.11242   0.40203   0.00000  Uiso   1.00
N179   N     0.73518   0.68787   0.11669   0.00000  Uiso   1.00
N180   N     0.85049   0.92361   0.94625   0.00000  Uiso   1.00
N181   N     0.33780   0.06954   0.33921   0.00000  Uiso   1.00
N182   N     0.65104   0.76618   0.07684   0.00000  Uiso   1.00
N183   N     0.76636   0.00192   0.90640   0.00000  Uiso   1.00
N184   N     0.25367   0.14786   0.29936   0.00000  Uiso   1.00
C185   C     0.97187   0.78612   0.13855   0.00000  Uiso   1.00
C186   C     0.96791   0.72308   0.12279   0.00000  Uiso   1.00
C187   C     0.96058   0.66554   0.12992   0.00000  Uiso   1.00
C188   C     0.45798   0.11332   0.11282   0.00000  Uiso   1.00
C189   C     0.45110   0.01465   0.09187   0.00000  Uiso   1.00
C190   C     0.89212   0.82453   0.07690   0.00000  Uiso   1.00
C191   C     0.82109   0.85229   0.04546   0.00000  Uiso   1.00
C192   C     0.75470   0.88547   0.98974   0.00000  Uiso   1.00
C193   C     0.63019   0.94434   0.89759   0.00000  Uiso   1.00
C194   C     0.06132   0.81731   0.18644   0.00000  Uiso   1.00
C195   C     0.13254   0.83902   0.24710   0.00000  Uiso   1.00
C196   C     0.20860   0.86615   0.28359   0.00000  Uiso   1.00
C197   C     0.34679   0.91381   0.36151   0.00000  Uiso   1.00
C198   C     0.98028   0.79570   0.09549   0.00000  Uiso   1.00
C199   C     0.97247   0.72829   0.09940   0.00000  Uiso   1.00
C200   C     0.46989   0.17614   0.08228   0.00000  Uiso   1.00
C201   C     0.46256   0.11853   0.08939   0.00000  Uiso   1.00
C202   C     0.89669   0.82973   0.05351   0.00000  Uiso   1.00
C203   C     0.83039   0.86289   0.99783   0.00000  Uiso   1.00
C204   C     0.75927   0.89069   0.96631   0.00000  Uiso   1.00
C205   C     0.06589   0.82251   0.16305   0.00000  Uiso   1.00
C206   C     0.14185   0.84962   0.19946   0.00000  Uiso   1.00
C207   C     0.21317   0.87136   0.26016   0.00000  Uiso   1.00
H208   H     0.96831   0.78207   0.15675   0.00000  Uiso   1.00
H209   H     0.95704   0.66154   0.14802   0.00000  Uiso   1.00
H210   H     0.81758   0.84826   0.06358   0.00000  Uiso   1.00
H211   H     0.12898   0.83499   0.26518   0.00000  Uiso   1.00
H212   H     0.44654   0.03020   0.12799   0.00000  Uiso   1.00
H213   H     0.65248   0.92393   0.94996   0.00000  Uiso   1.00
H214   H     0.30914   0.89596   0.37508   0.00000  Uiso   1.00
H215   H     0.98383   0.79975   0.07728   0.00000  Uiso   1.00
H216   H     0.47343   0.18018   0.06419   0.00000  Uiso   1.00
H217   H     0.83395   0.86690   0.97975   0.00000  Uiso   1.00
H218   H     0.14536   0.85364   0.18135   0.00000  Uiso   1.00
H219   H     0.45983   0.04533   0.05995   0.00000  Uiso   1.00
H220   H     0.66577   0.93907   0.88192   0.00000  Uiso   1.00
H221   H     0.32243   0.91109   0.30704   0.00000  Uiso   1.00
O222   O     0.44602   0.95879   0.08677   0.00000  Uiso   1.00
O223   O     0.56024   0.97536   0.85321   0.00000  Uiso   1.00
O224   O     0.42176   0.93866   0.41095   0.00000  Uiso   1.00
N225   N     0.45111   0.05017   0.11379   0.00000  Uiso   1.00
N226   N     0.67618   0.91828   0.94734   0.00000  Uiso   1.00
N227   N     0.29009   0.89214   0.34478   0.00000  Uiso   1.00
N228   N     0.45826   0.05831   0.07718   0.00000  Uiso   1.00
N229   N     0.68333   0.92642   0.91073   0.00000  Uiso   1.00
N230   N     0.29724   0.90028   0.30816   0.00000  Uiso   1.00
C231   C     0.92702   0.18629   0.13767   0.00000  Uiso   1.00
C232   C     0.86534   0.19438   0.12162   0.00000  Uiso   1.00
C233   C     0.85607   0.24859   0.12977   0.00000  Uiso   1.00
C234   C     0.79614   0.24652   0.11219   0.00000  Uiso   1.00
C235   C     0.70777   0.26737   0.09101   0.00000  Uiso   1.00
C236   C     0.86281   0.16437   0.07571   0.00000  Uiso   1.00
C237   C     0.85144   0.19335   0.04529   0.00000  Uiso   1.00
C238   C     0.78940   0.16600   0.98906   0.00000  Uiso   1.00
C239   C     0.69715   0.14023   0.89665   0.00000  Uiso   1.00
C240   C     0.99126   0.13153   0.18433   0.00000  Uiso   1.00
C241   C     0.08788   0.13289   0.24522   0.00000  Uiso   1.00
C242   C     0.13398   0.07789   0.28043   0.00000  Uiso   1.00
C243   C     0.24116   0.00113   0.35665   0.00000  Uiso   1.00
C244   C     0.83707   0.08620   0.09193   0.00000  Uiso   1.00
C245   C     0.81648   0.14002   0.09677   0.00000  Uiso   1.00
C246   C     0.75656   0.13786   0.07917   0.00000  Uiso   1.00
C247   C     0.74720   0.19206   0.08730   0.00000  Uiso   1.00
C248   C     0.81396   0.11001   0.05087   0.00000  Uiso   1.00
C249   C     0.75193   0.08262   0.99468   0.00000  Uiso   1.00
C250   C     0.74045   0.11155   0.96417   0.00000  Uiso   1.00
C251   C     0.94240   0.07717   0.15948   0.00000  Uiso   1.00
C252   C     0.98836   0.02216   0.19461   0.00000  Uiso   1.00
C253   C     0.08503   0.02343   0.25554   0.00000  Uiso   1.00
H254   H     0.96505   0.22861   0.15701   0.00000  Uiso   1.00
H255   H     0.89388   0.29066   0.14900   0.00000  Uiso   1.00
H256   H     0.88926   0.23541   0.06453   0.00000  Uiso   1.00
H257   H     0.12566   0.17496   0.26442   0.00000  Uiso   1.00
H258   H     0.79341   0.33548   0.12914   0.00000  Uiso   1.00
H259   H     0.78369   0.21898   0.95104   0.00000  Uiso   1.00
H260   H     0.28219   0.09151   0.37256   0.00000  Uiso   1.00
H261   H     0.79904   0.04388   0.07259   0.00000  Uiso   1.00
H262   H     0.71876   0.09579   0.05994   0.00000  Uiso   1.00
H263   H     0.71414   0.04055   0.97547   0.00000  Uiso   1.00
H264   H     0.95053   0.98010   0.17537   0.00000  Uiso   1.00
H265   H     0.65127   0.17732   0.05686   0.00000  Uiso   1.00
H266   H     0.64155   0.06082   0.87876   0.00000  Uiso   1.00
H267   H     0.14004   0.93335   0.30028   0.00000  Uiso   1.00
O268   O     0.67250   0.29389   0.08618   0.00000  Uiso   1.00
O269   O     0.65976   0.14104   0.85253   0.00000  Uiso   1.00
O270   O     0.31378   0.97380   0.40556   0.00000  Uiso   1.00
N271   N     0.77099   0.29113   0.11387   0.00000  Uiso   1.00
N272   N     0.76189   0.18222   0.94735   0.00000  Uiso   1.00
N273   N     0.22794   0.06304   0.34144   0.00000  Uiso   1.00
N274   N     0.69451   0.20602   0.07498   0.00000  Uiso   1.00
N275   N     0.68540   0.09711   0.90846   0.00000  Uiso   1.00
N276   N     0.15146   0.97793   0.30255   0.00000  Uiso   1.00
C277   C     0.91918   0.80836   0.65787   0.00000  Uiso   1.00
C278   C     0.84614   0.79819   0.63188   0.00000  Uiso   1.00
C279   C     0.82286   0.74131   0.62782   0.00000  Uiso   1.00
C280   C     0.75421   0.74180   0.60259   0.00000  Uiso   1.00
C281   C     0.64741   0.71756   0.56531   0.00000  Uiso   1.00
C282   C     0.86885   0.84062   0.60415   0.00000  Uiso   1.00
C283   C     0.86467   0.81942   0.57680   0.00000  Uiso   1.00
C284   C     0.81514   0.85563   0.52824   0.00000  Uiso   1.00
C285   C     0.74365   0.89729   0.44795   0.00000  Uiso   1.00
C286   C     0.98737   0.85619   0.71180   0.00000  Uiso   1.00
C287   C     0.08286   0.84810   0.77496   0.00000  Uiso   1.00
C288   C     0.63313   0.39744   0.81703   0.00000  Uiso   1.00
C289   C     0.74567   0.46328   0.90388   0.00000  Uiso   1.00
C290   C     0.83866   0.91037   0.62027   0.00000  Uiso   1.00
C291   C     0.80240   0.85359   0.61145   0.00000  Uiso   1.00
C292   C     0.73377   0.85417   0.58622   0.00000  Uiso   1.00
C293   C     0.71039   0.79730   0.58213   0.00000  Uiso   1.00
C294   C     0.82511   0.89602   0.58373   0.00000  Uiso   1.00
C295   C     0.77558   0.93228   0.53520   0.00000  Uiso   1.00
C296   C     0.77132   0.91114   0.50778   0.00000  Uiso   1.00
C297   C     0.94364   0.91160   0.69138   0.00000  Uiso   1.00
C298   C     0.49376   0.46096   0.73336   0.00000  Uiso   1.00
C299   C     0.58931   0.45294   0.79657   0.00000  Uiso   1.00
H300   H     0.95323   0.76523   0.67376   0.00000  Uiso   1.00
H301   H     0.85672   0.69844   0.64363   0.00000  Uiso   1.00
H302   H     0.89853   0.77654   0.59262   0.00000  Uiso   1.00
H303   H     0.11668   0.80522   0.79074   0.00000  Uiso   1.00
H304   H     0.73040   0.64882   0.60118   0.00000  Uiso   1.00
H305   H     0.81859   0.81352   0.49364   0.00000  Uiso   1.00
H306   H     0.77861   0.37398   0.91144   0.00000  Uiso   1.00
H307   H     0.80460   0.95351   0.60437   0.00000  Uiso   1.00
H308   H     0.69993   0.89706   0.57042   0.00000  Uiso   1.00
H309   H     0.24174   0.47516   0.51941   0.00000  Uiso   1.00
H310   H     0.45990   0.50383   0.71754   0.00000  Uiso   1.00
H311   H     0.60315   0.81003   0.54177   0.00000  Uiso   1.00
H312   H     0.19134   0.47472   0.43423   0.00000  Uiso   1.00
H313   H     0.65135   0.53519   0.85202   0.00000  Uiso   1.00
O314   O     0.60058   0.68888   0.55038   0.00000  Uiso   1.00
O315   O     0.21629   0.40496   0.40930   0.00000  Uiso   1.00
O316   O     0.81983   0.48429   0.95743   0.00000  Uiso   1.00
N317   N     0.71483   0.69451   0.59187   0.00000  Uiso   1.00
N318   N     0.79727   0.84848   0.49132   0.00000  Uiso   1.00
N319   N     0.72735   0.40502   0.88192   0.00000  Uiso   1.00
N320   N     0.64636   0.78125   0.55990   0.00000  Uiso   1.00
N321   N     0.22879   0.43523   0.45935   0.00000  Uiso   1.00
N322   N     0.65888   0.49177   0.84994   0.00000  Uiso   1.00
C323   C     0.72278   0.41804   0.66253   0.00000  Uiso   1.00
C324   C     0.71166   0.36580   0.63619   0.00000  Uiso   1.00
C325   C     0.74692   0.36597   0.63425   0.00000  Uiso   1.00
C326   C     0.72919   0.31374   0.60827   0.00000  Uiso   1.00
C327   C     0.71967   0.24034   0.57088   0.00000  Uiso   1.00
C328   C     0.62438   0.43618   0.60790   0.00000  Uiso   1.00
C329   C     0.58625   0.49552   0.58218   0.00000  Uiso   1.00
C330   C     0.49505   0.50253   0.53241   0.00000  Uiso   1.00
C331   C     0.35005   0.53841   0.45112   0.00000  Uiso   1.00
C332   C     0.76774   0.38836   0.71424   0.00000  Uiso   1.00
C333   C     0.85014   0.40749   0.77793   0.00000  Uiso   1.00
C334   C     0.87963   0.37425   0.81768   0.00000  Uiso   1.00
C335   C     0.95722   0.33587   0.90151   0.00000  Uiso   1.00
C336   C     0.62860   0.32499   0.61986   0.00000  Uiso   1.00
C337   C     0.66051   0.31527   0.61301   0.00000  Uiso   1.00
C338   C     0.64273   0.26302   0.58704   0.00000  Uiso   1.00
C339   C     0.67795   0.26311   0.58506   0.00000  Uiso   1.00
C340   C     0.57323   0.38565   0.58473   0.00000  Uiso   1.00
C341   C     0.48206   0.39257   0.53498   0.00000  Uiso   1.00
C342   C     0.44380   0.45190   0.50919   0.00000  Uiso   1.00
C343   C     0.71659   0.33782   0.69107   0.00000  Uiso   1.00
C344   C     0.74595   0.30455   0.73073   0.00000  Uiso   1.00
C345   C     0.82838   0.32362   0.79447   0.00000  Uiso   1.00
H346   H     0.76259   0.45738   0.68056   0.00000  Uiso   1.00
H347   H     0.78649   0.40509   0.65218   0.00000  Uiso   1.00
H348   H     0.62585   0.53462   0.60013   0.00000  Uiso   1.00
H349   H     0.88970   0.44661   0.79585   0.00000  Uiso   1.00
H350   H     0.79040   0.32483   0.61047   0.00000  Uiso   1.00
H351   H     0.45170   0.59796   0.50073   0.00000  Uiso   1.00
H352   H     0.00808   0.41237   0.91344   0.00000  Uiso   1.00
H353   H     0.58878   0.28564   0.60182   0.00000  Uiso   1.00
H354   H     0.60314   0.22392   0.56911   0.00000  Uiso   1.00
H355   H     0.44250   0.35345   0.51706   0.00000  Uiso   1.00
H356   H     0.70635   0.26544   0.71278   0.00000  Uiso   1.00
H357   H     0.64158   0.17779   0.54304   0.00000  Uiso   1.00
H358   H     0.30288   0.45092   0.43331   0.00000  Uiso   1.00
H359   H     0.85926   0.26532   0.84602   0.00000  Uiso   1.00
O360   O     0.72854   0.21382   0.55664   0.00000  Uiso   1.00
O361   O     0.28420   0.57215   0.41269   0.00000  Uiso   1.00
O362   O     0.01415   0.32866   0.95415   0.00000  Uiso   1.00
N363   N     0.75342   0.29869   0.59910   0.00000  Uiso   1.00
N364   N     0.43675   0.55405   0.49650   0.00000  Uiso   1.00
N365   N     0.95691   0.38054   0.88234   0.00000  Uiso   1.00
N366   N     0.67334   0.21957   0.56282   0.00000  Uiso   1.00
N367   N     0.35667   0.47493   0.46022   0.00000  Uiso   1.00
N368   N     0.87683   0.30142   0.84606   0.00000  Uiso   1.00
C369   C     0.00865   0.32963   0.65583   0.00000  Uiso   1.00
C370   C     0.98738   0.37729   0.62176   0.00000  Uiso   1.00
C371   C     0.97084   0.44033   0.61503   0.00000  Uiso   1.00
C372   C     0.95266   0.47614   0.58223   0.00000  Uiso   1.00
C373   C     0.91981   0.55414   0.53312   0.00000  Uiso   1.00
C374   C     0.93536   0.27861   0.60653   0.00000  Uiso   1.00
C375   C     0.87510   0.25869   0.58700   0.00000  Uiso   1.00
C376   C     0.81314   0.21143   0.54139   0.00000  Uiso   1.00
C377   C     0.69960   0.13620   0.46867   0.00000  Uiso   1.00
C378   C     0.10123   0.29976   0.70747   0.00000  Uiso   1.00
C379   C     0.18043   0.29759   0.77282   0.00000  Uiso   1.00
C380   C     0.25812   0.26812   0.81219   0.00000  Uiso   1.00
C381   C     0.90212   0.72572   0.89620   0.00000  Uiso   1.00
C382   C     0.00578   0.28113   0.60953   0.00000  Uiso   1.00
C383   C     0.98582   0.35094   0.59661   0.00000  Uiso   1.00
C384   C     0.96766   0.38667   0.56381   0.00000  Uiso   1.00
C385   C     0.95110   0.44975   0.55704   0.00000  Uiso   1.00
C386   C     0.93380   0.25227   0.58138   0.00000  Uiso   1.00
C387   C     0.87193   0.20502   0.53578   0.00000  Uiso   1.00
C388   C     0.81158   0.18503   0.51619   0.00000  Uiso   1.00
C389   C     0.09968   0.27341   0.68232   0.00000  Uiso   1.00
C390   C     0.67726   0.74393   0.72160   0.00000  Uiso   1.00
C391   C     0.75656   0.74173   0.78699   0.00000  Uiso   1.00
H392   H     0.00986   0.35014   0.67540   0.00000  Uiso   1.00
H393   H     0.97204   0.46070   0.63449   0.00000  Uiso   1.00
H394   H     0.87633   0.27908   0.60648   0.00000  Uiso   1.00
H395   H     0.18161   0.31798   0.79226   0.00000  Uiso   1.00
H396   H     0.92939   0.57165   0.57802   0.00000  Uiso   1.00
H397   H     0.72760   0.18868   0.51897   0.00000  Uiso   1.00
H398   H     0.37135   0.27072   0.91074   0.00000  Uiso   1.00
H399   H     0.00457   0.26062   0.58995   0.00000  Uiso   1.00
H400   H     0.96646   0.36627   0.54435   0.00000  Uiso   1.00
H401   H     0.87074   0.18465   0.51634   0.00000  Uiso   1.00
H402   H     0.67603   0.72355   0.70212   0.00000  Uiso   1.00
H403   H     0.92485   0.49500   0.50486   0.00000  Uiso   1.00
H404   H     0.72307   0.11203   0.44581   0.00000  Uiso   1.00
H405   H     0.86681   0.69407   0.83757   0.00000  Uiso   1.00
O406   O     0.90212   0.60444   0.51297   0.00000  Uiso   1.00
O407   O     0.63739   0.10199   0.43550   0.00000  Uiso   1.00
O408   O     0.98197   0.70962   0.94949   0.00000  Uiso   1.00
N409   N     0.93357   0.53911   0.56707   0.00000  Uiso   1.00
N410   N     0.74490   0.18107   0.51185   0.00000  Uiso   1.00
N411   N     0.84674   0.75775   0.87812   0.00000  Uiso   1.00
N412   N     0.93113   0.49787   0.52771   0.00000  Uiso   1.00
N413   N     0.74246   0.13983   0.47249   0.00000  Uiso   1.00
N414   N     0.84430   0.71651   0.83875   0.00000  Uiso   1.00
C415   C     0.64860   0.55347   0.13758   0.00000  Uiso   1.00
C416   C     0.65192   0.60965   0.12209   0.00000  Uiso   1.00
C417   C     0.70155   0.61326   0.13126   0.00000  Uiso   1.00
C418   C     0.19554   0.16873   0.11405   0.00000  Uiso   1.00
C419   C     0.20882   0.24834   0.09384   0.00000  Uiso   1.00
C420   C     0.54589   0.53682   0.07511   0.00000  Uiso   1.00
C421   C     0.50638   0.47919   0.04478   0.00000  Uiso   1.00
C422   C     0.41112   0.47336   0.98803   0.00000  Uiso   1.00
C423   C     0.25980   0.43989   0.89491   0.00000  Uiso   1.00
C424   C     0.68020   0.57705   0.18341   0.00000  Uiso   1.00
C425   C     0.75361   0.55323   0.24414   0.00000  Uiso   1.00
C426   C     0.77141   0.58125   0.27857   0.00000  Uiso   1.00
C427   C     0.82863   0.61024   0.35361   0.00000  Uiso   1.00
C428   C     0.54966   0.64556   0.09072   0.00000  Uiso   1.00
C429   C     0.59817   0.65967   0.09664   0.00000  Uiso   1.00
C430   C     0.09208   0.21515   0.07941   0.00000  Uiso   1.00
C431   C     0.14171   0.21884   0.08855   0.00000  Uiso   1.00
C432   C     0.49214   0.58684   0.04966   0.00000  Uiso   1.00
C433   C     0.39692   0.58108   0.99294   0.00000  Uiso   1.00
C434   C     0.35728   0.52347   0.96253   0.00000  Uiso   1.00
C435   C     0.62646   0.62707   0.15796   0.00000  Uiso   1.00
C436   C     0.64414   0.65513   0.19230   0.00000  Uiso   1.00
C437   C     0.71757   0.63136   0.25307   0.00000  Uiso   1.00
H438   H     0.69044   0.51452   0.15739   0.00000  Uiso   1.00
H439   H     0.74313   0.57454   0.15095   0.00000  Uiso   1.00
H440   H     0.54799   0.44049   0.06450   0.00000  Uiso   1.00
H441   H     0.79518   0.51452   0.26382   0.00000  Uiso   1.00
H442   H     0.27782   0.16312   0.13257   0.00000  Uiso   1.00
H443   H     0.36637   0.38048   0.95028   0.00000  Uiso   1.00
H444   H     0.88762   0.53658   0.37060   0.00000  Uiso   1.00
H445   H     0.50782   0.68451   0.07090   0.00000  Uiso   1.00
H446   H     0.05049   0.25385   0.05972   0.00000  Uiso   1.00
H447   H     0.35535   0.61980   0.97326   0.00000  Uiso   1.00
H448   H     0.60254   0.69383   0.17258   0.00000  Uiso   1.00
H449   H     0.12146   0.30866   0.05851   0.00000  Uiso   1.00
H450   H     0.21001   0.52601   0.87622   0.00000  Uiso   1.00
H451   H     0.73126   0.68212   0.29655   0.00000  Uiso   1.00
O452   O     0.23098   0.27844   0.08972   0.00000  Uiso   1.00
O453   O     0.19118   0.40761   0.85057   0.00000  Uiso   1.00
O454   O     0.87505   0.61242   0.40203   0.00000  Uiso   1.00
N455   N     0.23518   0.18787   0.11669   0.00000  Uiso   1.00
N456   N     0.35049   0.42361   0.94625   0.00000  Uiso   1.00
N457   N     0.83780   0.56954   0.33921   0.00000  Uiso   1.00
N458   N     0.15104   0.26618   0.07684   0.00000  Uiso   1.00
N459   N     0.26636   0.50192   0.90640   0.00000  Uiso   1.00
N460   N     0.75367   0.64786   0.29936   0.00000  Uiso   1.00
C461   C     0.47187   0.28612   0.13855   0.00000  Uiso   1.00
C462   C     0.46791   0.22308   0.12279   0.00000  Uiso   1.00
C463   C     0.46058   0.16554   0.12992   0.00000  Uiso   1.00
C464   C     0.95798   0.61332   0.11282   0.00000  Uiso   1.00
C465   C     0.95110   0.51465   0.09187   0.00000  Uiso   1.00
C466   C     0.39212   0.32453   0.07690   0.00000  Uiso   1.00
C467   C     0.32109   0.35229   0.04546   0.00000  Uiso   1.00
C468   C     0.25470   0.38547   0.98974   0.00000  Uiso   1.00
C469   C     0.13019   0.44434   0.89759   0.00000  Uiso   1.00
C470   C     0.56132   0.31731   0.18644   0.00000  Uiso   1.00
C471   C     0.63254   0.33902   0.24710   0.00000  Uiso   1.00
C472   C     0.70860   0.36615   0.28359   0.00000  Uiso   1.00
C473   C     0.84679   0.41381   0.36151   0.00000  Uiso   1.00
C474   C     0.48028   0.29570   0.09549   0.00000  Uiso   1.00
C475   C     0.47247   0.22829   0.09940   0.00000  Uiso   1.00
C476   C     0.96989   0.67614   0.08228   0.00000  Uiso   1.00
C477   C     0.96256   0.61853   0.08939   0.00000  Uiso   1.00
C478   C     0.39669   0.32973   0.05351   0.00000  Uiso   1.00
C479   C     0.33039   0.36289   0.99783   0.00000  Uiso   1.00
C480   C     0.25927   0.39069   0.96631   0.00000  Uiso   1.00
C481   C     0.56589   0.32251   0.16305   0.00000  Uiso   1.00
C482   C     0.64185   0.34962   0.19946   0.00000  Uiso   1.00
C483   C     0.71317   0.37136   0.26016   0.00000  Uiso   1.00
H484   H     0.46831   0.28207   0.15675   0.00000  Uiso   1.00
H485   H     0.45704   0.16154   0.14802   0.00000  Uiso   1.00
H486   H     0.31758   0.34826   0.06358   0.00000  Uiso   1.00
H487   H     0.62898   0.33499   0.26518   0.00000  Uiso   1.00
H488   H     0.94654   0.53020   0.12799   0.00000  Uiso   1.00
H489   H     0.15248   0.42393   0.94996   0.00000  Uiso   1.00
H490   H     0.80914   0.39596   0.37508   0.00000  Uiso   1.00
H491   H     0.48383   0.29975   0.07728   0.00000  Uiso   1.00
H492   H     0.97343   0.68018   0.06419   0.00000  Uiso   1.00
H493   H     0.33395   0.36690   0.97975   0.00000  Uiso   1.00
H494   H     0.64536   0.35364   0.18135   0.00000  Uiso   1.00
H495   H     0.95983   0.54533   0.05995   0.00000  Uiso   1.00
H496   H     0.16577   0.43907   0.88192   0.00000  Uiso   1.00
H497   H     0.82243   0.41109   0.30704   0.00000  Uiso   1.00
O498   O     0.94602   0.45879   0.08677   0.00000  Uiso   1.00
O499   O     0.06024   0.47536   0.85321   0.00000  Uiso   1.00
O500   O     0.92176   0.43866   0.41095   0.00000  Uiso   1.00
N501   N     0.95111   0.55017   0.11379   0.00000  Uiso   1.00
N502   N     0.17618   0.41828   0.94734   0.00000  Uiso   1.00
N503   N     0.79009   0.39214   0.34478   0.00000  Uiso   1.00
N504   N     0.95826   0.55831   0.07718   0.00000  Uiso   1.00
N505   N     0.18333   0.42642   0.91073   0.00000  Uiso   1.00
N506   N     0.79724   0.40028   0.30816   0.00000  Uiso   1.00
C507   C     0.42702   0.68629   0.13767   0.00000  Uiso   1.00
C508   C     0.36534   0.69438   0.12162   0.00000  Uiso   1.00
C509   C     0.35607   0.74859   0.12977   0.00000  Uiso   1.00
C510   C     0.29614   0.74652   0.11219   0.00000  Uiso   1.00
C511   C     0.20777   0.76737   0.09101   0.00000  Uiso   1.00
C512   C     0.36281   0.66437   0.07571   0.00000  Uiso   1.00
C513   C     0.35144   0.69335   0.04529   0.00000  Uiso   1.00
C514   C     0.28940   0.66600   0.98906   0.00000  Uiso   1.00
C515   C     0.19715   0.64023   0.89665   0.00000  Uiso   1.00
C516   C     0.49126   0.63153   0.18433   0.00000  Uiso   1.00
C517   C     0.58788   0.63289   0.24522   0.00000  Uiso   1.00
C518   C     0.63398   0.57789   0.28043   0.00000  Uiso   1.00
C519   C     0.74116   0.50113   0.35665   0.00000  Uiso   1.00
C520   C     0.33707   0.58620   0.09193   0.00000  Uiso   1.00
C521   C     0.31648   0.64002   0.09677   0.00000  Uiso   1.00
C522   C     0.25656   0.63786   0.07917   0.00000  Uiso   1.00
C523   C     0.24720   0.69206   0.08730   0.00000  Uiso   1.00
C524   C     0.31396   0.61001   0.05087   0.00000  Uiso   1.00
C525   C     0.25193   0.58262   0.99468   0.00000  Uiso   1.00
C526   C     0.24045   0.61155   0.96417   0.00000  Uiso   1.00
C527   C     0.44240   0.57717   0.15948   0.00000  Uiso   1.00
C528   C     0.48836   0.52216   0.19461   0.00000  Uiso   1.00
C529   C     0.58503   0.52343   0.25554   0.00000  Uiso   1.00
H530   H     0.46505   0.72861   0.15701   0.00000  Uiso   1.00
H531   H     0.39388   0.79066   0.14900   0.00000  Uiso   1.00
H532   H     0.38926   0.73541   0.06453   0.00000  Uiso   1.00
H533   H     0.62566   0.67496   0.26442   0.00000  Uiso   1.00
H534   H     0.29341   0.83548   0.12914   0.00000  Uiso   1.00
H535   H     0.28369   0.71898   0.95104   0.00000  Uiso   1.00
H536   H     0.78219   0.59151   0.37256   0.00000  Uiso   1.00
H537   H     0.29904   0.54388   0.07259   0.00000  Uiso   1.00
H538   H     0.21876   0.59579   0.05994   0.00000  Uiso   1.00
H539   H     0.21414   0.54055   0.97547   0.00000  Uiso   1.00
H540   H     0.45053   0.48010   0.17537   0.00000  Uiso   1.00
H541   H     0.15127   0.67732   0.05686   0.00000  Uiso   1.00
H542   H     0.14155   0.56082   0.87876   0.00000  Uiso   1.00
H543   H     0.64004   0.43335   0.30028   0.00000  Uiso   1.00
O544   O     0.17250   0.79389   0.08618   0.00000  Uiso   1.00
O545   O     0.15976   0.64104   0.85253   0.00000  Uiso   1.00
O546   O     0.81378   0.47380   0.40556   0.00000  Uiso   1.00
N547   N     0.27099   0.79113   0.11387   0.00000  Uiso   1.00
N548   N     0.26189   0.68222   0.94735   0.00000  Uiso   1.00
N549   N     0.72794   0.56304   0.34144   0.00000  Uiso   1.00
N550   N     0.19451   0.70602   0.07498   0.00000  Uiso   1.00
N551   N     0.18540   0.59711   0.90846   0.00000  Uiso   1.00
N552   N     0.65146   0.47793   0.30255   0.00000  Uiso   1.00
C553   C     0.58082   0.30836   0.34213   0.00000  Uiso   1.00
C554   C     0.65386   0.29819   0.36812   0.00000  Uiso   1.00
C555   C     0.67714   0.24131   0.37218   0.00000  Uiso   1.00
C556   C     0.74579   0.24180   0.39741   0.00000  Uiso   1.00
C557   C     0.85259   0.21756   0.43469   0.00000  Uiso   1.00
C558   C     0.63115   0.34062   0.39585   0.00000  Uiso   1.00
C559   C     0.63533   0.31942   0.42320   0.00000  Uiso   1.00
C560   C     0.68486   0.35563   0.47176   0.00000  Uiso   1.00
C561   C     0.75635   0.39729   0.55205   0.00000  Uiso   1.00
C562   C     0.51263   0.35619   0.28820   0.00000  Uiso   1.00
C563   C     0.41714   0.34810   0.22504   0.00000  Uiso   1.00
C564   C     0.86687   0.89744   0.18297   0.00000  Uiso   1.00
C565   C     0.75433   0.96328   0.09612   0.00000  Uiso   1.00
C566   C     0.66134   0.41037   0.37973   0.00000  Uiso   1.00
C567   C     0.69760   0.35359   0.38855   0.00000  Uiso   1.00
C568   C     0.76623   0.35417   0.41378   0.00000  Uiso   1.00
C569   C     0.78961   0.29730   0.41787   0.00000  Uiso   1.00
C570   C     0.67489   0.39602   0.41627   0.00000  Uiso   1.00
C571   C     0.72442   0.43228   0.46480   0.00000  Uiso   1.00
C572   C     0.72868   0.41114   0.49222   0.00000  Uiso   1.00
C573   C     0.55636   0.41160   0.30862   0.00000  Uiso   1.00
C574   C     0.00624   0.96096   0.26664   0.00000  Uiso   1.00
C575   C     0.91069   0.95294   0.20343   0.00000  Uiso   1.00
H576   H     0.54677   0.26523   0.32624   0.00000  Uiso   1.00
H577   H     0.64328   0.19844   0.35637   0.00000  Uiso   1.00
H578   H     0.60147   0.27654   0.40738   0.00000  Uiso   1.00
H579   H     0.38332   0.30522   0.20926   0.00000  Uiso   1.00
H580   H     0.76960   0.14882   0.39882   0.00000  Uiso   1.00
H581   H     0.68141   0.31352   0.50636   0.00000  Uiso   1.00
H582   H     0.72139   0.87398   0.08856   0.00000  Uiso   1.00
H583   H     0.69540   0.45351   0.39563   0.00000  Uiso   1.00
H584   H     0.80007   0.39706   0.42958   0.00000  Uiso   1.00
H585   H     0.25826   0.97516   0.48059   0.00000  Uiso   1.00
H586   H     0.04010   0.00383   0.28246   0.00000  Uiso   1.00
H587   H     0.89685   0.31003   0.45823   0.00000  Uiso   1.00
H588   H     0.30866   0.97472   0.56577   0.00000  Uiso   1.00
H589   H     0.84865   0.03519   0.14798   0.00000  Uiso   1.00
O590   O     0.89942   0.18888   0.44962   0.00000  Uiso   1.00
O591   O     0.28371   0.90496   0.59070   0.00000  Uiso   1.00
O592   O     0.68017   0.98429   0.04257   0.00000  Uiso   1.00
N593   N     0.78517   0.19451   0.40813   0.00000  Uiso   1.00
N594   N     0.70273   0.34848   0.50868   0.00000  Uiso   1.00
N595   N     0.77265   0.90502   0.11808   0.00000  Uiso   1.00
N596   N     0.85364   0.28125   0.44010   0.00000  Uiso   1.00
N597   N     0.27121   0.93523   0.54065   0.00000  Uiso   1.00
N598   N     0.84112   0.99177   0.15006   0.00000  Uiso   1.00
C599   C     0.77722   0.91804   0.33747   0.00000  Uiso   1.00
C600   C     0.78834   0.86580   0.36381   0.00000  Uiso   1.00
C601   C     0.75308   0.86597   0.36575   0.00000  Uiso   1.00
C602   C     0.77081   0.81374   0.39173   0.00000  Uiso   1.00
C603   C     0.78033   0.74034   0.42912   0.00000  Uiso   1.00
C604   C     0.87562   0.93618   0.39210   0.00000  Uiso   1.00
C605   C     0.91375   0.99552   0.41782   0.00000  Uiso   1.00
C606   C     0.00495   0.00253   0.46759   0.00000  Uiso   1.00
C607   C     0.14995   0.03841   0.54888   0.00000  Uiso   1.00
C608   C     0.73226   0.88836   0.28576   0.00000  Uiso   1.00
C609   C     0.64986   0.90749   0.22207   0.00000  Uiso   1.00
C610   C     0.62037   0.87425   0.18232   0.00000  Uiso   1.00
C611   C     0.54278   0.83587   0.09849   0.00000  Uiso   1.00
C612   C     0.87140   0.82499   0.38014   0.00000  Uiso   1.00
C613   C     0.83949   0.81527   0.38699   0.00000  Uiso   1.00
C614   C     0.85727   0.76302   0.41296   0.00000  Uiso   1.00
C615   C     0.82205   0.76311   0.41494   0.00000  Uiso   1.00
C616   C     0.92677   0.88565   0.41527   0.00000  Uiso   1.00
C617   C     0.01794   0.89257   0.46502   0.00000  Uiso   1.00
C618   C     0.05620   0.95190   0.49081   0.00000  Uiso   1.00
C619   C     0.78341   0.83782   0.30893   0.00000  Uiso   1.00
C620   C     0.75405   0.80455   0.26927   0.00000  Uiso   1.00
C621   C     0.67162   0.82362   0.20553   0.00000  Uiso   1.00
H622   H     0.73741   0.95738   0.31944   0.00000  Uiso   1.00
H623   H     0.71351   0.90509   0.34782   0.00000  Uiso   1.00
H624   H     0.87415   0.03462   0.39987   0.00000  Uiso   1.00
H625   H     0.61030   0.94661   0.20415   0.00000  Uiso   1.00
H626   H     0.70960   0.82483   0.38953   0.00000  Uiso   1.00
H627   H     0.04830   0.09796   0.49927   0.00000  Uiso   1.00
H628   H     0.49192   0.91237   0.08656   0.00000  Uiso   1.00
H629   H     0.91122   0.78564   0.39818   0.00000  Uiso   1.00
H630   H     0.89686   0.72392   0.43089   0.00000  Uiso   1.00
H631   H     0.05750   0.85345   0.48294   0.00000  Uiso   1.00
H632   H     0.79365   0.76544   0.28722   0.00000  Uiso   1.00
H633   H     0.85842   0.67779   0.45696   0.00000  Uiso   1.00
H634   H     0.19712   0.95092   0.56669   0.00000  Uiso   1.00
H635   H     0.64074   0.76532   0.15398   0.00000  Uiso   1.00
O636   O     0.77146   0.71382   0.44336   0.00000  Uiso   1.00
O637   O     0.21580   0.07215   0.58731   0.00000  Uiso   1.00
O638   O     0.48585   0.82866   0.04585   0.00000  Uiso   1.00
N639   N     0.74658   0.79869   0.40090   0.00000  Uiso   1.00
N640   N     0.06325   0.05405   0.50350   0.00000  Uiso   1.00
N641   N     0.54309   0.88054   0.11766   0.00000  Uiso   1.00
N642   N     0.82666   0.71957   0.43718   0.00000  Uiso   1.00
N643   N     0.14333   0.97493   0.53978   0.00000  Uiso   1.00
N644   N     0.62317   0.80142   0.15394   0.00000  Uiso   1.00
C645   C     0.49135   0.82963   0.34417   0.00000  Uiso   1.00
C646   C     0.51262   0.87729   0.37824   0.00000  Uiso   1.00
C647   C     0.52916   0.94033   0.38497   0.00000  Uiso   1.00
C648   C     0.54734   0.97614   0.41777   0.00000  Uiso   1.00
C649   C     0.58019   0.05414   0.46688   0.00000  Uiso   1.00
C650   C     0.56464   0.77861   0.39347   0.00000  Uiso   1.00
C651   C     0.62490   0.75869   0.41300   0.00000  Uiso   1.00
C652   C     0.68686   0.71143   0.45861   0.00000  Uiso   1.00
C653   C     0.80040   0.63620   0.53133   0.00000  Uiso   1.00
C654   C     0.39877   0.79976   0.29253   0.00000  Uiso   1.00
C655   C     0.31957   0.79759   0.22718   0.00000  Uiso   1.00
C656   C     0.24188   0.76812   0.18781   0.00000  Uiso   1.00
C657   C     0.59788   0.22572   0.10380   0.00000  Uiso   1.00
C658   C     0.49422   0.78113   0.39047   0.00000  Uiso   1.00
C659   C     0.51418   0.85094   0.40339   0.00000  Uiso   1.00
C660   C     0.53234   0.88667   0.43619   0.00000  Uiso   1.00
C661   C     0.54890   0.94975   0.44296   0.00000  Uiso   1.00
C662   C     0.56620   0.75227   0.41862   0.00000  Uiso   1.00
C663   C     0.62807   0.70502   0.46422   0.00000  Uiso   1.00
C664   C     0.68842   0.68503   0.48381   0.00000  Uiso   1.00
C665   C     0.40032   0.77341   0.31768   0.00000  Uiso   1.00
C666   C     0.82274   0.24393   0.27840   0.00000  Uiso   1.00
C667   C     0.74344   0.24173   0.21301   0.00000  Uiso   1.00
H668   H     0.49014   0.85014   0.32460   0.00000  Uiso   1.00
H669   H     0.52796   0.96070   0.36551   0.00000  Uiso   1.00
H670   H     0.62367   0.77908   0.39352   0.00000  Uiso   1.00
H671   H     0.31839   0.81798   0.20774   0.00000  Uiso   1.00
H672   H     0.57061   0.07165   0.42198   0.00000  Uiso   1.00
H673   H     0.77240   0.68868   0.48103   0.00000  Uiso   1.00
H674   H     0.12865   0.77072   0.08926   0.00000  Uiso   1.00
H675   H     0.49543   0.76062   0.41005   0.00000  Uiso   1.00
H676   H     0.53354   0.86627   0.45565   0.00000  Uiso   1.00
H677   H     0.62926   0.68465   0.48366   0.00000  Uiso   1.00
H678   H     0.82397   0.22355   0.29788   0.00000  Uiso   1.00
H679   H     0.57515   0.99500   0.49514   0.00000  Uiso   1.00
H680   H     0.77693   0.61203   0.55419   0.00000  Uiso   1.00
H681   H     0.63319   0.19407   0.16243   0.00000  Uiso   1.00
O682   O     0.59788   0.10444   0.48703   0.00000  Uiso   1.00
O683   O     0.86261   0.60199   0.56450   0.00000  Uiso   1.00
O684   O     0.51803   0.20962   0.05051   0.00000  Uiso   1.00
N685   N     0.56643   0.03911   0.43293   0.00000  Uiso   1.00
N686   N     0.75510   0.68107   0.48815   0.00000  Uiso   1.00
N687   N     0.65326   0.25775   0.12188   0.00000  Uiso   1.00
N688   N     0.56887   0.99787   0.47229   0.00000  Uiso   1.00
N689   N     0.75754   0.63983   0.52751   0.00000  Uiso   1.00
N690   N     0.65570   0.21651   0.16125   0.00000  Uiso   1.00
C691   C     0.85140   0.05347   0.86242   0.00000  Uiso   1.00
C692   C     0.84808   0.10965   0.87791   0.00000  Uiso   1.00
C693   C     0.79845   0.11326   0.86874   0.00000  Uiso   1.00
C694   C     0.30446   0.66873   0.88595   0.00000  Uiso   1.00
C695   C     0.29118   0.74834   0.90616   0.00000  Uiso   1.00
C696   C     0.95411   0.03682   0.92489   0.00000  Uiso   1.00
C697   C     0.99362   0.97919   0.95522   0.00000  Uiso   1.00
C698   C     0.08888   0.97336   0.01197   0.00000  Uiso   1.00
C699   C     0.24020   0.93989   0.10509   0.00000  Uiso   1.00
C700   C     0.81980   0.07705   0.81659   0.00000  Uiso   1.00
C701   C     0.74639   0.05323   0.75586   0.00000  Uiso   1.00
C702   C     0.72859   0.08125   0.72143   0.00000  Uiso   1.00
C703   C     0.67137   0.11024   0.64639   0.00000  Uiso   1.00
C704   C     0.95034   0.14556   0.90928   0.00000  Uiso   1.00
C705   C     0.90183   0.15967   0.90336   0.00000  Uiso   1.00
C706   C     0.40792   0.71515   0.92059   0.00000  Uiso   1.00
C707   C     0.35829   0.71884   0.91145   0.00000  Uiso   1.00
C708   C     0.00786   0.08684   0.95034   0.00000  Uiso   1.00
C709   C     0.10308   0.08108   0.00706   0.00000  Uiso   1.00
C710   C     0.14272   0.02347   0.03747   0.00000  Uiso   1.00
C711   C     0.87354   0.12707   0.84204   0.00000  Uiso   1.00
C712   C     0.85586   0.15513   0.80770   0.00000  Uiso   1.00
C713   C     0.78243   0.13136   0.74693   0.00000  Uiso   1.00
H714   H     0.80956   0.01452   0.84261   0.00000  Uiso   1.00
H715   H     0.75687   0.07454   0.84905   0.00000  Uiso   1.00
H716   H     0.95201   0.94049   0.93550   0.00000  Uiso   1.00
H717   H     0.70482   0.01452   0.73618   0.00000  Uiso   1.00
H718   H     0.22218   0.66312   0.86743   0.00000  Uiso   1.00
H719   H     0.13363   0.88048   0.04972   0.00000  Uiso   1.00
H720   H     0.61238   0.03658   0.62940   0.00000  Uiso   1.00
H721   H     0.99218   0.18451   0.92910   0.00000  Uiso   1.00
H722   H     0.44951   0.75385   0.94028   0.00000  Uiso   1.00
H723   H     0.14465   0.11980   0.02674   0.00000  Uiso   1.00
H724   H     0.89746   0.19383   0.82742   0.00000  Uiso   1.00
H725   H     0.37854   0.80866   0.94149   0.00000  Uiso   1.00
H726   H     0.28999   0.02601   0.12378   0.00000  Uiso   1.00
H727   H     0.76874   0.18212   0.70345   0.00000  Uiso   1.00
O728   O     0.26902   0.77844   0.91028   0.00000  Uiso   1.00
O729   O     0.30882   0.90761   0.14943   0.00000  Uiso   1.00
O730   O     0.62495   0.11242   0.59797   0.00000  Uiso   1.00
N731   N     0.26482   0.68787   0.88331   0.00000  Uiso   1.00
N732   N     0.14951   0.92361   0.05375   0.00000  Uiso   1.00
N733   N     0.66220   0.06954   0.66079   0.00000  Uiso   1.00
N734   N     0.34896   0.76618   0.92316   0.00000  Uiso   1.00
N735   N     0.23364   0.00192   0.09360   0.00000  Uiso   1.00
N736   N     0.74633   0.14786   0.70064   0.00000  Uiso   1.00
C737   C     0.02813   0.78612   0.86145   0.00000  Uiso   1.00
C738   C     0.03209   0.72308   0.87721   0.00000  Uiso   1.00
C739   C     0.03942   0.66554   0.87008   0.00000  Uiso   1.00
C740   C     0.54202   0.11332   0.88718   0.00000  Uiso   1.00
C741   C     0.54890   0.01465   0.90813   0.00000  Uiso   1.00
C742   C     0.10788   0.82453   0.92310   0.00000  Uiso   1.00
C743   C     0.17891   0.85229   0.95454   0.00000  Uiso   1.00
C744   C     0.24530   0.88547   0.01026   0.00000  Uiso   1.00
C745   C     0.36981   0.94434   0.10241   0.00000  Uiso   1.00
C746   C     0.93868   0.81731   0.81356   0.00000  Uiso   1.00
C747   C     0.86746   0.83902   0.75290   0.00000  Uiso   1.00
C748   C     0.79140   0.86615   0.71641   0.00000  Uiso   1.00
C749   C     0.65321   0.91381   0.63849   0.00000  Uiso   1.00
C750   C     0.01972   0.79570   0.90451   0.00000  Uiso   1.00
C751   C     0.02753   0.72829   0.90060   0.00000  Uiso   1.00
C752   C     0.53011   0.17614   0.91772   0.00000  Uiso   1.00
C753   C     0.53744   0.11853   0.91061   0.00000  Uiso   1.00
C754   C     0.10331   0.82973   0.94649   0.00000  Uiso   1.00
C755   C     0.16961   0.86289   0.00217   0.00000  Uiso   1.00
C756   C     0.24073   0.89069   0.03369   0.00000  Uiso   1.00
C757   C     0.93411   0.82251   0.83695   0.00000  Uiso   1.00
C758   C     0.85815   0.84962   0.80054   0.00000  Uiso   1.00
C759   C     0.78683   0.87136   0.73984   0.00000  Uiso   1.00
H760   H     0.03169   0.78207   0.84325   0.00000  Uiso   1.00
H761   H     0.04296   0.66154   0.85198   0.00000  Uiso   1.00
H762   H     0.18242   0.84826   0.93642   0.00000  Uiso   1.00
H763   H     0.87102   0.83499   0.73482   0.00000  Uiso   1.00
H764   H     0.55346   0.03020   0.87201   0.00000  Uiso   1.00
H765   H     0.34752   0.92393   0.05004   0.00000  Uiso   1.00
H766   H     0.69086   0.89596   0.62492   0.00000  Uiso   1.00
H767   H     0.01617   0.79975   0.92272   0.00000  Uiso   1.00
H768   H     0.52657   0.18018   0.93581   0.00000  Uiso   1.00
H769   H     0.16605   0.86690   0.02025   0.00000  Uiso   1.00
H770   H     0.85464   0.85364   0.81865   0.00000  Uiso   1.00
H771   H     0.54017   0.04533   0.94005   0.00000  Uiso   1.00
H772   H     0.33423   0.93907   0.11808   0.00000  Uiso   1.00
H773   H     0.67757   0.91109   0.69296   0.00000  Uiso   1.00
O774   O     0.55398   0.95879   0.91323   0.00000  Uiso   1.00
O775   O     0.43976   0.97536   0.14679   0.00000  Uiso   1.00
O776   O     0.57824   0.93866   0.58905   0.00000  Uiso   1.00
N777   N     0.54889   0.05017   0.88621   0.00000  Uiso   1.00
N778   N     0.32382   0.91828   0.05266   0.00000  Uiso   1.00
N779   N     0.70991   0.89214   0.65522   0.00000  Uiso   1.00
N780   N     0.54174   0.05831   0.92282   0.00000  Uiso   1.00
N781   N     0.31667   0.92642   0.08927   0.00000  Uiso   1.00
N782   N     0.70276   0.90028   0.69184   0.00000  Uiso   1.00
C783   C     0.07298   0.18629   0.86233   0.00000  Uiso   1.00
C784   C     0.13466   0.19438   0.87838   0.00000  Uiso   1.00
C785   C     0.14393   0.24859   0.87023   0.00000  Uiso   1.00
C786   C     0.20386   0.24652   0.88781   0.00000  Uiso   1.00
C787   C     0.29223   0.26737   0.90899   0.00000  Uiso   1.00
C788   C     0.13719   0.16437   0.92429   0.00000  Uiso   1.00
C789   C     0.14856   0.19335   0.95471   0.00000  Uiso   1.00
C790   C     0.21060   0.16600   0.01094   0.00000  Uiso   1.00
C791   C     0.30285   0.14023   0.10335   0.00000  Uiso   1.00
C792   C     0.00874   0.13153   0.81567   0.00000  Uiso   1.00
C793   C     0.91212   0.13289   0.75478   0.00000  Uiso   1.00
C794   C     0.86602   0.07789   0.71957   0.00000  Uiso   1.00
C795   C     0.75884   0.00113   0.64335   0.00000  Uiso   1.00
C796   C     0.16293   0.08620   0.90807   0.00000  Uiso   1.00
C797   C     0.18352   0.14002   0.90323   0.00000  Uiso   1.00
C798   C     0.24344   0.13786   0.92083   0.00000  Uiso   1.00
C799   C     0.25280   0.19206   0.91270   0.00000  Uiso   1.00
C800   C     0.18604   0.11001   0.94913   0.00000  Uiso   1.00
C801   C     0.24807   0.08262   0.00532   0.00000  Uiso   1.00
C802   C     0.25955   0.11155   0.03583   0.00000  Uiso   1.00
C803   C     0.05760   0.07717   0.84052   0.00000  Uiso   1.00
C804   C     0.01164   0.02216   0.80539   0.00000  Uiso   1.00
C805   C     0.91497   0.02343   0.74446   0.00000  Uiso   1.00
H806   H     0.03495   0.22861   0.84299   0.00000  Uiso   1.00
H807   H     0.10612   0.29066   0.85100   0.00000  Uiso   1.00
H808   H     0.11074   0.23541   0.93547   0.00000  Uiso   1.00
H809   H     0.87434   0.17496   0.73558   0.00000  Uiso   1.00
H810   H     0.20659   0.33548   0.87086   0.00000  Uiso   1.00
H811   H     0.21631   0.21898   0.04896   0.00000  Uiso   1.00
H812   H     0.71781   0.09151   0.62744   0.00000  Uiso   1.00
H813   H     0.20096   0.04388   0.92741   0.00000  Uiso   1.00
H814   H     0.28124   0.09579   0.94006   0.00000  Uiso   1.00
H815   H     0.28586   0.04055   0.02453   0.00000  Uiso   1.00
H816   H     0.04947   0.98010   0.82463   0.00000  Uiso   1.00
H817   H     0.34873   0.17732   0.94314   0.00000  Uiso   1.00
H818   H     0.35845   0.06082   0.12124   0.00000  Uiso   1.00
H819   H     0.85996   0.93335   0.69972   0.00000  Uiso   1.00
O820   O     0.32750   0.29389   0.91382   0.00000  Uiso   1.00
O821   O     0.34024   0.14104   0.14747   0.00000  Uiso   1.00
O822   O     0.68622   0.97380   0.59444   0.00000  Uiso   1.00
N823   N     0.22901   0.29113   0.88613   0.00000  Uiso   1.00
N824   N     0.23811   0.18222   0.05265   0.00000  Uiso   1.00
N825   N     0.77206   0.06304   0.65856   0.00000  Uiso   1.00
N826   N     0.30549   0.20602   0.92502   0.00000  Uiso   1.00
N827   N     0.31460   0.09711   0.09154   0.00000  Uiso   1.00
N828   N     0.84854   0.97793   0.69745   0.00000  Uiso   1.00
C829   C     0.08082   0.80836   0.34213   0.00000  Uiso   1.00
C830   C     0.15386   0.79819   0.36812   0.00000  Uiso   1.00
C831   C     0.17714   0.74131   0.37218   0.00000  Uiso   1.00
C832   C     0.24579   0.74180   0.39741   0.00000  Uiso   1.00
C833   C     0.35259   0.71756   0.43469   0.00000  Uiso   1.00
C834   C     0.13115   0.84062   0.39585   0.00000  Uiso   1.00
C835   C     0.13533   0.81942   0.42320   0.00000  Uiso   1.00
C836   C     0.18486   0.85563   0.47176   0.00000  Uiso   1.00
C837   C     0.25635   0.89729   0.55205   0.00000  Uiso   1.00
C838   C     0.01263   0.85619   0.28820   0.00000  Uiso   1.00
C839   C     0.91714   0.84810   0.22504   0.00000  Uiso   1.00
C840   C     0.36687   0.39744   0.18297   0.00000  Uiso   1.00
C841   C     0.25433   0.46328   0.09612   0.00000  Uiso   1.00
C842   C     0.16134   0.91037   0.37973   0.00000  Uiso   1.00
C843   C     0.19760   0.85359   0.38855   0.00000  Uiso   1.00
C844   C     0.26623   0.85417   0.41378   0.00000  Uiso   1.00
C845   C     0.28961   0.79730   0.41787   0.00000  Uiso   1.00
C846   C     0.17489   0.89602   0.41627   0.00000  Uiso   1.00
C847   C     0.22442   0.93228   0.46480   0.00000  Uiso   1.00
C848   C     0.22868   0.91114   0.49222   0.00000  Uiso   1.00
C849   C     0.05636   0.91160   0.30862   0.00000  Uiso   1.00
C850   C     0.50624   0.46096   0.26664   0.00000  Uiso   1.00
C851   C     0.41069   0.45294   0.20343   0.00000  Uiso   1.00
H852   H     0.04677   0.76523   0.32624   0.00000  Uiso   1.00
H853   H     0.14328   0.69844   0.35637   0.00000  Uiso   1.00
H854   H     0.10147   0.77654   0.40738   0.00000  Uiso   1.00
H855   H     0.88332   0.80522   0.20926   0.00000  Uiso   1.00
H856   H     0.26960   0.64882   0.39882   0.00000  Uiso   1.00
H857   H     0.18141   0.81352   0.50636   0.00000  Uiso   1.00
H858   H     0.22139   0.37398   0.08856   0.00000  Uiso   1.00
H859   H     0.19540   0.95351   0.39563   0.00000  Uiso   1.00
H860   H     0.30007   0.89706   0.42958   0.00000  Uiso   1.00
H861   H     0.75826   0.47516   0.48059   0.00000  Uiso   1.00
H862   H     0.54010   0.50383   0.28246   0.00000  Uiso   1.00
H863   H     0.39685   0.81003   0.45823   0.00000  Uiso   1.00
H864   H     0.80866   0.47472   0.56577   0.00000  Uiso   1.00
H865   H     0.34865   0.53519   0.14798   0.00000  Uiso   1.00
O866   O     0.39942   0.68888   0.44962   0.00000  Uiso   1.00
O867   O     0.78371   0.40496   0.59070   0.00000  Uiso   1.00
O868   O     0.18017   0.48429   0.04257   0.00000  Uiso   1.00
N869   N     0.28517   0.69451   0.40813   0.00000  Uiso   1.00
N870   N     0.20273   0.84848   0.50868   0.00000  Uiso   1.00
N871   N     0.27265   0.40502   0.11808   0.00000  Uiso   1.00
N872   N     0.35364   0.78125   0.44010   0.00000  Uiso   1.00
N873   N     0.77121   0.43523   0.54065   0.00000  Uiso   1.00
N874   N     0.34112   0.49177   0.15006   0.00000  Uiso   1.00
C875   C     0.27722   0.41804   0.33747   0.00000  Uiso   1.00
C876   C     0.28834   0.36580   0.36381   0.00000  Uiso   1.00
C877   C     0.25308   0.36597   0.36575   0.00000  Uiso   1.00
C878   C     0.27081   0.31374   0.39173   0.00000  Uiso   1.00
C879   C     0.28033   0.24034   0.42912   0.00000  Uiso   1.00
C880   C     0.37562   0.43618   0.39210   0.00000  Uiso   1.00
C881   C     0.41375   0.49552   0.41782   0.00000  Uiso   1.00
C882   C     0.50495   0.50253   0.46759   0.00000  Uiso   1.00
C883   C     0.64995   0.53841   0.54888   0.00000  Uiso   1.00
C884   C     0.23226   0.38836   0.28576   0.00000  Uiso   1.00
C885   C     0.14986   0.40749   0.22207   0.00000  Uiso   1.00
C886   C     0.12037   0.37425   0.18232   0.00000  Uiso   1.00
C887   C     0.04278   0.33587   0.09849   0.00000  Uiso   1.00
C888   C     0.37140   0.32499   0.38014   0.00000  Uiso   1.00
C889   C     0.33949   0.31527   0.38699   0.00000  Uiso   1.00
C890   C     0.35727   0.26302   0.41296   0.00000  Uiso   1.00
C891   C     0.32205   0.26311   0.41494   0.00000  Uiso   1.00
C892   C     0.42677   0.38565   0.41527   0.00000  Uiso   1.00
C893   C     0.51794   0.39257   0.46502   0.00000  Uiso   1.00
C894   C     0.55620   0.45190   0.49081   0.00000  Uiso   1.00
C895   C     0.28341   0.33782   0.30893   0.00000  Uiso   1.00
C896   C     0.25405   0.30455   0.26927   0.00000  Uiso   1.00
C897   C     0.17162   0.32362   0.20553   0.00000  Uiso   1.00
H898   H     0.23741   0.45738   0.31944   0.00000  Uiso   1.00
H899   H     0.21351   0.40509   0.34782   0.00000  Uiso   1.00
H900   H     0.37415   0.53462   0.39987   0.00000  Uiso   1.00
H901   H     0.11030   0.44661   0.20415   0.00000  Uiso   1.00
H902   H     0.20960   0.32483   0.38953   0.00000  Uiso   1.00
H903   H     0.54830   0.59796   0.49927   0.00000  Uiso   1.00
H904   H     0.99192   0.41237   0.08656   0.00000  Uiso   1.00
H905   H     0.41122   0.28564   0.39818   0.00000  Uiso   1.00
H906   H     0.39686   0.22392   0.43089   0.00000  Uiso   1.00
H907   H     0.55750   0.35345   0.48294   0.00000  Uiso   1.00
H908   H     0.29365   0.26544   0.28722   0.00000  Uiso   1.00
H909   H     0.35842   0.17779   0.45696   0.00000  Uiso   1.00
H910   H     0.69712   0.45092   0.56669   0.00000  Uiso   1.00
H911   H     0.14074   0.26532   0.15398   0.00000  Uiso   1.00
O912   O     0.27146   0.21382   0.44336   0.00000  Uiso   1.00
O913   O     0.71580   0.57215   0.58731   0.00000  Uiso   1.00
O914   O     0.98585   0.32866   0.04585   0.00000  Uiso   1.00
N915   N     0.24658   0.29869   0.40090   0.00000  Uiso   1.00
N916   N     0.56325   0.55405   0.50350   0.00000  Uiso   1.00
N917   N     0.04309   0.38054   0.11766   0.00000  Uiso   1.00
N918   N     0.32666   0.21957   0.43718   0.00000  Uiso   1.00
N919   N     0.64333   0.47493   0.53978   0.00000  Uiso   1.00
N920   N     0.12317   0.30142   0.15394   0.00000  Uiso   1.00
C921   C     0.99135   0.32963   0.34417   0.00000  Uiso   1.00
C922   C     0.01262   0.37729   0.37824   0.00000  Uiso   1.00
C923   C     0.02916   0.44033   0.38497   0.00000  Uiso   1.00
C924   C     0.04734   0.47614   0.41777   0.00000  Uiso   1.00
C925   C     0.08019   0.55414   0.46688   0.00000  Uiso   1.00
C926   C     0.06464   0.27861   0.39347   0.00000  Uiso   1.00
C927   C     0.12490   0.25869   0.41300   0.00000  Uiso   1.00
C928   C     0.18686   0.21143   0.45861   0.00000  Uiso   1.00
C929   C     0.30040   0.13620   0.53133   0.00000  Uiso   1.00
C930   C     0.89877   0.29976   0.29253   0.00000  Uiso   1.00
C931   C     0.81957   0.29759   0.22718   0.00000  Uiso   1.00
C932   C     0.74188   0.26812   0.18781   0.00000  Uiso   1.00
C933   C     0.09788   0.72572   0.10380   0.00000  Uiso   1.00
C934   C     0.99422   0.28113   0.39047   0.00000  Uiso   1.00
C935   C     0.01418   0.35094   0.40339   0.00000  Uiso   1.00
C936   C     0.03234   0.38667   0.43619   0.00000  Uiso   1.00
C937   C     0.04890   0.44975   0.44296   0.00000  Uiso   1.00
C938   C     0.06620   0.25227   0.41862   0.00000  Uiso   1.00
C939   C     0.12807   0.20502   0.46422   0.00000  Uiso   1.00
C940   C     0.18842   0.18503   0.48381   0.00000  Uiso   1.00
C941   C     0.90032   0.27341   0.31768   0.00000  Uiso   1.00
C942   C     0.32274   0.74393   0.27840   0.00000  Uiso   1.00
C943   C     0.24344   0.74173   0.21301   0.00000  Uiso   1.00
H944   H     0.99014   0.35014   0.32460   0.00000  Uiso   1.00
H945   H     0.02796   0.46070   0.36551   0.00000  Uiso   1.00
H946   H     0.12367   0.27908   0.39352   0.00000  Uiso   1.00
H947   H     0.81839   0.31798   0.20774   0.00000  Uiso   1.00
H948   H     0.07061   0.57165   0.42198   0.00000  Uiso   1.00
H949   H     0.27240   0.18868   0.48103   0.00000  Uiso   1.00
H950   H     0.62865   0.27072   0.08926   0.00000  Uiso   1.00
H951   H     0.99543   0.26062   0.41005   0.00000  Uiso   1.00
H952   H     0.03354   0.36627   0.45565   0.00000  Uiso   1.00
H953   H     0.12926   0.18465   0.48366   0.00000  Uiso   1.00
H954   H     0.32397   0.72355   0.29788   0.00000  Uiso   1.00
H955   H     0.07515   0.49500   0.49514   0.00000  Uiso   1.00
H956   H     0.27693   0.11203   0.55419   0.00000  Uiso   1.00
H957   H     0.13319   0.69407   0.16243   0.00000  Uiso   1.00
O958   O     0.09788   0.60444   0.48703   0.00000  Uiso   1.00
O959   O     0.36261   0.10199   0.56450   0.00000  Uiso   1.00
O960   O     0.01803   0.70962   0.05051   0.00000  Uiso   1.00
N961   N     0.06643   0.53911   0.43293   0.00000  Uiso   1.00
N962   N     0.25510   0.18107   0.48815   0.00000  Uiso   1.00
N963   N     0.15326   0.75775   0.12188   0.00000  Uiso   1.00
N964   N     0.06887   0.49787   0.47229   0.00000  Uiso   1.00
N965   N     0.25754   0.13983   0.52751   0.00000  Uiso   1.00
N966   N     0.15570   0.71651   0.16125   0.00000  Uiso   1.00
C967   C     0.35140   0.55347   0.86242   0.00000  Uiso   1.00
C968   C     0.34808   0.60965   0.87791   0.00000  Uiso   1.00
C969   C     0.29845   0.61326   0.86874   0.00000  Uiso   1.00
C970   C     0.80446   0.16873   0.88595   0.00000  Uiso   1.00
C971   C     0.79118   0.24834   0.90616   0.00000  Uiso   1.00
C972   C     0.45411   0.53682   0.92489   0.00000  Uiso   1.00
C973   C     0.49362   0.47919   0.95522   0.00000  Uiso   1.00
C974   C     0.58888   0.47336   0.01197   0.00000  Uiso   1.00
C975   C     0.74020   0.43989   0.10509   0.00000  Uiso   1.00
C976   C     0.31980   0.57705   0.81659   0.00000  Uiso   1.00
C977   C     0.24639   0.55323   0.75586   0.00000  Uiso   1.00
C978   C     0.22859   0.58125   0.72143   0.00000  Uiso   1.00
C979   C     0.17137   0.61024   0.64639   0.00000  Uiso   1.00
C980   C     0.45034   0.64556   0.90928   0.00000  Uiso   1.00
C981   C     0.40183   0.65967   0.90336   0.00000  Uiso   1.00
C982   C     0.90792   0.21515   0.92059   0.00000  Uiso   1.00
C983   C     0.85829   0.21884   0.91145   0.00000  Uiso   1.00
C984   C     0.50786   0.58684   0.95034   0.00000  Uiso   1.00
C985   C     0.60308   0.58108   0.00706   0.00000  Uiso   1.00
C986   C     0.64272   0.52347   0.03747   0.00000  Uiso   1.00
C987   C     0.37354   0.62707   0.84204   0.00000  Uiso   1.00
C988   C     0.35586   0.65513   0.80770   0.00000  Uiso   1.00
C989   C     0.28243   0.63136   0.74693   0.00000  Uiso   1.00
H990   H     0.30956   0.51452   0.84261   0.00000  Uiso   1.00
H991   H     0.25687   0.57454   0.84905   0.00000  Uiso   1.00
H992   H     0.45201   0.44049   0.93550   0.00000  Uiso   1.00
H993   H     0.20482   0.51452   0.73618   0.00000  Uiso   1.00
H994   H     0.72218   0.16312   0.86743   0.00000  Uiso   1.00
H995   H     0.63363   0.38048   0.04972   0.00000  Uiso   1.00
H996   H     0.11238   0.53658   0.62940   0.00000  Uiso   1.00
H997   H     0.49218   0.68451   0.92910   0.00000  Uiso   1.00
H998   H     0.94951   0.25385   0.94028   0.00000  Uiso   1.00
H999   H     0.64465   0.61980   0.02674   0.00000  Uiso   1.00
H1000  H     0.39746   0.69383   0.82742   0.00000  Uiso   1.00
H1001  H     0.87854   0.30866   0.94149   0.00000  Uiso   1.00
H1002  H     0.78999   0.52601   0.12378   0.00000  Uiso   1.00
H1003  H     0.26874   0.68212   0.70345   0.00000  Uiso   1.00
O1004  O     0.76902   0.27844   0.91028   0.00000  Uiso   1.00
O1005  O     0.80882   0.40761   0.14943   0.00000  Uiso   1.00
O1006  O     0.12495   0.61242   0.59797   0.00000  Uiso   1.00
N1007  N     0.76482   0.18787   0.88331   0.00000  Uiso   1.00
N1008  N     0.64951   0.42361   0.05375   0.00000  Uiso   1.00
N1009  N     0.16220   0.56954   0.66079   0.00000  Uiso   1.00
N1010  N     0.84896   0.26618   0.92316   0.00000  Uiso   1.00
N1011  N     0.73364   0.50192   0.09360   0.00000  Uiso   1.00
N1012  N     0.24633   0.64786   0.70064   0.00000  Uiso   1.00
C1013  C     0.52813   0.28612   0.86145   0.00000  Uiso   1.00
C1014  C     0.53209   0.22308   0.87721   0.00000  Uiso   1.00
C1015  C     0.53942   0.16554   0.87008   0.00000  Uiso   1.00
C1016  C     0.04202   0.61332   0.88718   0.00000  Uiso   1.00
C1017  C     0.04890   0.51465   0.90813   0.00000  Uiso   1.00
C1018  C     0.60788   0.32453   0.92310   0.00000  Uiso   1.00
C1019  C     0.67891   0.35229   0.95454   0.00000  Uiso   1.00
C1020  C     0.74530   0.38547   0.01026   0.00000  Uiso   1.00
C1021  C     0.86981   0.44434   0.10241   0.00000  Uiso   1.00
C1022  C     0.43868   0.31731   0.81356   0.00000  Uiso   1.00
C1023  C     0.36746   0.33902   0.75290   0.00000  Uiso   1.00
C1024  C     0.29140   0.36615   0.71641   0.00000  Uiso   1.00
C1025  C     0.15321   0.41381   0.63849   0.00000  Uiso   1.00
C1026  C     0.51972   0.29570   0.90451   0.00000  Uiso   1.00
C1027  C     0.52753   0.22829   0.90060   0.00000  Uiso   1.00
C1028  C     0.03011   0.67614   0.91772   0.00000  Uiso   1.00
C1029  C     0.03744   0.61853   0.91061   0.00000  Uiso   1.00
C1030  C     0.60331   0.32973   0.94649   0.00000  Uiso   1.00
C1031  C     0.66961   0.36289   0.00217   0.00000  Uiso   1.00
C1032  C     0.74073   0.39069   0.03369   0.00000  Uiso   1.00
C1033  C     0.43411   0.32251   0.83695   0.00000  Uiso   1.00
C1034  C     0.35815   0.34962   0.80054   0.00000  Uiso   1.00
C1035  C     0.28683   0.37136   0.73984   0.00000  Uiso   1.00
H1036  H     0.53169   0.28207   0.84325   0.00000  Uiso   1.00
H1037  H     0.54296   0.16154   0.85198   0.00000  Uiso   1.00
H1038  H     0.68242   0.34826   0.93642   0.00000  Uiso   1.00
H1039  H     0.37102   0.33499   0.73482   0.00000  Uiso   1.00
H1040  H     0.05346   0.53020   0.87201   0.00000  Uiso   1.00
H1041  H     0.84752   0.42393   0.05004   0.00000  Uiso   1.00
H1042  H     0.19086   0.39596   0.62492   0.00000  Uiso   1.00
H1043  H     0.51617   0.29975   0.92272   0.00000  Uiso   1.00
H1044  H     0.02657   0.68018   0.93581   0.00000  Uiso   1.00
H1045  H     0.66605   0.36690   0.02025   0.00000  Uiso   1.00
H1046  H     0.35464   0.35364   0.81865   0.00000  Uiso   1.00
H1047  H     0.04017   0.54533   0.94005   0.00000  Uiso   1.00
H1048  H     0.83423   0.43907   0.11808   0.00000  Uiso   1.00
H1049  H     0.17757   0.41109   0.69296   0.00000  Uiso   1.00
O1050  O     0.05398   0.45879   0.91323   0.00000  Uiso   1.00
O1051  O     0.93976   0.47536   0.14679   0.00000  Uiso   1.00
O1052  O     0.07824   0.43866   0.58905   0.00000  Uiso   1.00
N1053  N     0.04889   0.55017   0.88621   0.00000  Uiso   1.00
N1054  N     0.82382   0.41828   0.05266   0.00000  Uiso   1.00
N1055  N     0.20991   0.39214   0.65522   0.00000  Uiso   1.00
N1056  N     0.04174   0.55831   0.92282   0.00000  Uiso   1.00
N1057  N     0.81667   0.42642   0.08927   0.00000  Uiso   1.00
N1058  N     0.20276   0.40028   0.69184   0.00000  Uiso   1.00
C1059  C     0.57298   0.68629   0.86233   0.00000  Uiso   1.00
C1060  C     0.63466   0.69438   0.87838   0.00000  Uiso   1.00
C1061  C     0.64393   0.74859   0.87023   0.00000  Uiso   1.00
C1062  C     0.70386   0.74652   0.88781   0.00000  Uiso   1.00
C1063  C     0.79223   0.76737   0.90899   0.00000  Uiso   1.00
C1064  C     0.63719   0.66437   0.92429   0.00000  Uiso   1.00
C1065  C     0.64856   0.69335   0.95471   0.00000  Uiso   1.00
C1066  C     0.71060   0.66600   0.01094   0.00000  Uiso   1.00
C1067  C     0.80285   0.64023   0.10335   0.00000  Uiso   1.00
C1068  C     0.50874   0.63153   0.81567   0.00000  Uiso   1.00
C1069  C     0.41212   0.63289   0.75478   0.00000  Uiso   1.00
C1070  C     0.36602   0.57789   0.71957   0.00000  Uiso   1.00
C1071  C     0.25884   0.50113   0.64335   0.00000  Uiso   1.00
C1072  C     0.66293   0.58620   0.90807   0.00000  Uiso   1.00
C1073  C     0.68352   0.64002   0.90323   0.00000  Uiso   1.00
C1074  C     0.74344   0.63786   0.92083   0.00000  Uiso   1.00
C1075  C     0.75280   0.69206   0.91270   0.00000  Uiso   1.00
C1076  C     0.68604   0.61001   0.94913   0.00000  Uiso   1.00
C1077  C     0.74807   0.58262   0.00532   0.00000  Uiso   1.00
C1078  C     0.75955   0.61155   0.03583   0.00000  Uiso   1.00
C1079  C     0.55760   0.57717   0.84052   0.00000  Uiso   1.00
C1080  C     0.51164   0.52216   0.80539   0.00000  Uiso   1.00
C1081  C     0.41497   0.52343   0.74446   0.00000  Uiso   1.00
H1082  H     0.53495   0.72861   0.84299   0.00000  Uiso   1.00
H1083  H     0.60612   0.79066   0.85100   0.00000  Uiso   1.00
H1084  H     0.61074   0.73541   0.93547   0.00000  Uiso   1.00
H1085  H     0.37434   0.67496   0.73558   0.00000  Uiso   1.00
H1086  H     0.70659   0.83548   0.87086   0.00000  Uiso   1.00
H1087  H     0.71631   0.71898   0.04896   0.00000  Uiso   1.00
H1088  H     0.21781   0.59151   0.62744   0.00000  Uiso   1.00
H1089  H     0.70096   0.54388   0.92741   0.00000  Uiso   1.00
H1090  H     0.78124   0.59579   0.94006   0.00000  Uiso   1.00
H1091  H     0.78586   0.54055   0.02453   0.00000  Uiso   1.00
H1092  H     0.54947   0.48010   0.82463   0.00000  Uiso   1.00
H1093  H     0.84873   0.67732   0.94314   0.00000  Uiso   1.00
H1094  H     0.85845   0.56082   0.12124   0.00000  Uiso   1.00
H1095  H     0.35996   0.43335   0.69972   0.00000  Uiso   1.00
O1096  O     0.82750   0.79389   0.91382   0.00000  Uiso   1.00
O1097  O     0.84024   0.64104   0.14747   0.00000  Uiso   1.00
O1098  O     0.18622   0.47380   0.59444   0.00000  Uiso   1.00
N1099  N     0.72901   0.79113   0.88613   0.00000  Uiso   1.00
N1100  N     0.73811   0.68222   0.05265   0.00000  Uiso   1.00
N1101  N     0.27206   0.56304   0.65856   0.00000  Uiso   1.00
N1102  N     0.80549   0.70602   0.92502   0.00000  Uiso   1.00
N1103  N     0.81460   0.59711   0.09154   0.00000  Uiso   1.00
N1104  N     0.34854   0.47793   0.69745   0.00000  Uiso   1.00
