data_job_03554
_audit_creation_date              2018-12-19
_audit_creation_method            'Materials Studio'
_symmetry_space_group_name_H-M    'P1'
_symmetry_Int_Tables_number       1
_symmetry_cell_setting            triclinic
loop_
_symmetry_equiv_pos_as_xyz
  x,y,z
_cell_length_a                    42.8824
_cell_length_b                    14.5966
_cell_length_c                    19.8178
_cell_angle_alpha                 90.0000
_cell_angle_beta                  90.0000
_cell_angle_gamma                 90.0000
loop_
_atom_site_label
_atom_site_type_symbol
_atom_site_fract_x
_atom_site_fract_y
_atom_site_fract_z
_atom_site_U_iso_or_equiv
_atom_site_adp_type
_atom_site_occupancy
C1     C     0.62035   0.83791   0.53065   0.00000  Uiso   1.00
C2     C     0.62794   0.81179   0.60332   0.00000  Uiso   1.00
C3     C     0.65250   0.75648   0.62383   0.00000  Uiso   1.00
C4     C     0.65548   0.74073   0.69262   0.00000  Uiso   1.00
C5     C     0.67042   0.69432   0.79838   0.00000  Uiso   1.00
C6     C     0.58675   0.80782   0.51871   0.00000  Uiso   1.00
C7     C     0.57667   0.74918   0.46808   0.00000  Uiso   1.00
C8     C     0.54497   0.73010   0.46564   0.00000  Uiso   1.00
C9     C     0.49596   0.67757   0.44001   0.00000  Uiso   1.00
C10    C     0.62006   0.94234   0.52864   0.00000  Uiso   1.00
C11    C     0.63799   0.99682   0.48634   0.00000  Uiso   1.00
C12    C     0.63433   0.09099   0.49225   0.00000  Uiso   1.00
C13    C     0.63705   0.24733   0.48204   0.00000  Uiso   1.00
C14    C     0.58197   0.90828   0.61634   0.00000  Uiso   1.00
C15    C     0.60709   0.85001   0.64987   0.00000  Uiso   1.00
C16    C     0.61004   0.83434   0.71864   0.00000  Uiso   1.00
C17    C     0.63459   0.77902   0.73925   0.00000  Uiso   1.00
C18    C     0.56590   0.84604   0.56526   0.00000  Uiso   1.00
C19    C     0.53421   0.82704   0.56289   0.00000  Uiso   1.00
C20    C     0.52409   0.76839   0.51227   0.00000  Uiso   1.00
C21    C     0.59921   0.98056   0.57519   0.00000  Uiso   1.00
C22    C     0.59553   0.07467   0.58116   0.00000  Uiso   1.00
C23    C     0.61345   0.12928   0.53888   0.00000  Uiso   1.00
H24    H     0.63658   0.80815   0.49441   0.00000  Uiso   1.00
H25    H     0.66862   0.72691   0.58780   0.00000  Uiso   1.00
H26    H     0.59281   0.71962   0.43206   0.00000  Uiso   1.00
H27    H     0.65412   0.96721   0.45033   0.00000  Uiso   1.00
H28    H     0.69495   0.65367   0.71186   0.00000  Uiso   1.00
H29    H     0.53509   0.63832   0.38347   0.00000  Uiso   1.00
H30    H     0.66437   0.16042   0.42199   0.00000  Uiso   1.00
H31    H     0.56574   0.93804   0.65258   0.00000  Uiso   1.00
H32    H     0.59390   0.86393   0.75465   0.00000  Uiso   1.00
H33    H     0.51808   0.85663   0.59891   0.00000  Uiso   1.00
H34    H     0.57939   0.10423   0.61718   0.00000  Uiso   1.00
H35    H     0.63430   0.76487   0.84728   0.00000  Uiso   1.00
H36    H     0.47444   0.74953   0.51889   0.00000  Uiso   1.00
H37    H     0.60372   0.27163   0.55741   0.00000  Uiso   1.00
O38    O     0.68442   0.65815   0.84385   0.00000  Uiso   1.00
O39    O     0.47469   0.63803   0.41301   0.00000  Uiso   1.00
O40    O     0.64431   0.32301   0.46355   0.00000  Uiso   1.00
N41    N     0.67682   0.69003   0.72972   0.00000  Uiso   1.00
N42    N     0.52735   0.67567   0.42270   0.00000  Uiso   1.00
N43    N     0.64822   0.16378   0.45870   0.00000  Uiso   1.00
N44    N     0.64418   0.74987   0.80259   0.00000  Uiso   1.00
N45    N     0.49472   0.73551   0.49557   0.00000  Uiso   1.00
N46    N     0.61558   0.22362   0.53157   0.00000  Uiso   1.00
C47    C     0.62035   0.33791   0.03065   0.00000  Uiso   1.00
C48    C     0.62794   0.31179   0.10332   0.00000  Uiso   1.00
C49    C     0.65250   0.25648   0.12383   0.00000  Uiso   1.00
C50    C     0.65548   0.24073   0.19262   0.00000  Uiso   1.00
C51    C     0.67042   0.19432   0.29838   0.00000  Uiso   1.00
C52    C     0.58675   0.30782   0.01871   0.00000  Uiso   1.00
C53    C     0.57667   0.24918   0.96808   0.00000  Uiso   1.00
C54    C     0.54497   0.23010   0.96564   0.00000  Uiso   1.00
C55    C     0.49596   0.17757   0.94001   0.00000  Uiso   1.00
C56    C     0.62006   0.44234   0.02864   0.00000  Uiso   1.00
C57    C     0.63799   0.49682   0.98634   0.00000  Uiso   1.00
C58    C     0.63433   0.59099   0.99225   0.00000  Uiso   1.00
C59    C     0.63705   0.74733   0.98204   0.00000  Uiso   1.00
C60    C     0.58197   0.40828   0.11634   0.00000  Uiso   1.00
C61    C     0.60709   0.35001   0.14987   0.00000  Uiso   1.00
C62    C     0.61004   0.33434   0.21864   0.00000  Uiso   1.00
C63    C     0.63459   0.27902   0.23925   0.00000  Uiso   1.00
C64    C     0.56590   0.34604   0.06526   0.00000  Uiso   1.00
C65    C     0.53421   0.32704   0.06289   0.00000  Uiso   1.00
C66    C     0.52409   0.26839   0.01227   0.00000  Uiso   1.00
C67    C     0.59921   0.48056   0.07519   0.00000  Uiso   1.00
C68    C     0.59553   0.57467   0.08116   0.00000  Uiso   1.00
C69    C     0.61345   0.62928   0.03888   0.00000  Uiso   1.00
H70    H     0.63658   0.30815   0.99441   0.00000  Uiso   1.00
H71    H     0.66862   0.22691   0.08780   0.00000  Uiso   1.00
H72    H     0.59281   0.21962   0.93206   0.00000  Uiso   1.00
H73    H     0.65412   0.46721   0.95033   0.00000  Uiso   1.00
H74    H     0.69495   0.15367   0.21186   0.00000  Uiso   1.00
H75    H     0.53509   0.13832   0.88347   0.00000  Uiso   1.00
H76    H     0.66437   0.66042   0.92199   0.00000  Uiso   1.00
H77    H     0.56574   0.43804   0.15258   0.00000  Uiso   1.00
H78    H     0.59390   0.36393   0.25465   0.00000  Uiso   1.00
H79    H     0.51808   0.35663   0.09891   0.00000  Uiso   1.00
H80    H     0.57939   0.60423   0.11718   0.00000  Uiso   1.00
H81    H     0.63430   0.26487   0.34728   0.00000  Uiso   1.00
H82    H     0.47444   0.24953   0.01889   0.00000  Uiso   1.00
H83    H     0.60372   0.77163   0.05741   0.00000  Uiso   1.00
O84    O     0.68442   0.15815   0.34385   0.00000  Uiso   1.00
O85    O     0.47469   0.13803   0.91301   0.00000  Uiso   1.00
O86    O     0.64431   0.82301   0.96355   0.00000  Uiso   1.00
N87    N     0.67682   0.19003   0.22972   0.00000  Uiso   1.00
N88    N     0.52735   0.17567   0.92270   0.00000  Uiso   1.00
N89    N     0.64822   0.66378   0.95870   0.00000  Uiso   1.00
N90    N     0.64418   0.24987   0.30259   0.00000  Uiso   1.00
N91    N     0.49472   0.23551   0.99557   0.00000  Uiso   1.00
N92    N     0.61558   0.72362   0.03157   0.00000  Uiso   1.00
C93    C     0.12035   0.83791   0.03065   0.00000  Uiso   1.00
C94    C     0.12794   0.81179   0.10332   0.00000  Uiso   1.00
C95    C     0.15250   0.75648   0.12383   0.00000  Uiso   1.00
C96    C     0.15548   0.74073   0.19262   0.00000  Uiso   1.00
C97    C     0.17042   0.69432   0.29838   0.00000  Uiso   1.00
C98    C     0.08675   0.80782   0.01871   0.00000  Uiso   1.00
C99    C     0.07667   0.74918   0.96808   0.00000  Uiso   1.00
C100   C     0.04497   0.73010   0.96564   0.00000  Uiso   1.00
C101   C     0.99596   0.67757   0.94001   0.00000  Uiso   1.00
C102   C     0.12006   0.94234   0.02864   0.00000  Uiso   1.00
C103   C     0.13799   0.99682   0.98634   0.00000  Uiso   1.00
C104   C     0.13433   0.09099   0.99225   0.00000  Uiso   1.00
C105   C     0.13705   0.24733   0.98204   0.00000  Uiso   1.00
C106   C     0.08197   0.90828   0.11634   0.00000  Uiso   1.00
C107   C     0.10709   0.85001   0.14987   0.00000  Uiso   1.00
C108   C     0.11004   0.83434   0.21864   0.00000  Uiso   1.00
C109   C     0.13459   0.77902   0.23925   0.00000  Uiso   1.00
C110   C     0.06590   0.84604   0.06526   0.00000  Uiso   1.00
C111   C     0.03421   0.82704   0.06289   0.00000  Uiso   1.00
C112   C     0.02409   0.76839   0.01227   0.00000  Uiso   1.00
C113   C     0.09921   0.98056   0.07519   0.00000  Uiso   1.00
C114   C     0.09553   0.07467   0.08116   0.00000  Uiso   1.00
C115   C     0.11345   0.12928   0.03888   0.00000  Uiso   1.00
H116   H     0.13658   0.80815   0.99441   0.00000  Uiso   1.00
H117   H     0.16862   0.72691   0.08780   0.00000  Uiso   1.00
H118   H     0.09281   0.71962   0.93206   0.00000  Uiso   1.00
H119   H     0.15412   0.96721   0.95033   0.00000  Uiso   1.00
H120   H     0.19495   0.65367   0.21186   0.00000  Uiso   1.00
H121   H     0.03509   0.63832   0.88347   0.00000  Uiso   1.00
H122   H     0.16437   0.16042   0.92199   0.00000  Uiso   1.00
H123   H     0.06574   0.93804   0.15258   0.00000  Uiso   1.00
H124   H     0.09390   0.86393   0.25465   0.00000  Uiso   1.00
H125   H     0.01808   0.85663   0.09891   0.00000  Uiso   1.00
H126   H     0.07939   0.10423   0.11718   0.00000  Uiso   1.00
H127   H     0.13430   0.76487   0.34728   0.00000  Uiso   1.00
H128   H     0.97444   0.74953   0.01889   0.00000  Uiso   1.00
H129   H     0.10372   0.27163   0.05741   0.00000  Uiso   1.00
O130   O     0.18442   0.65815   0.34385   0.00000  Uiso   1.00
O131   O     0.97469   0.63803   0.91301   0.00000  Uiso   1.00
O132   O     0.14431   0.32301   0.96355   0.00000  Uiso   1.00
N133   N     0.17682   0.69003   0.22972   0.00000  Uiso   1.00
N134   N     0.02735   0.67567   0.92270   0.00000  Uiso   1.00
N135   N     0.14822   0.16378   0.95870   0.00000  Uiso   1.00
N136   N     0.14418   0.74987   0.30259   0.00000  Uiso   1.00
N137   N     0.99472   0.73551   0.99557   0.00000  Uiso   1.00
N138   N     0.11558   0.22362   0.03157   0.00000  Uiso   1.00
C139   C     0.12035   0.33791   0.53065   0.00000  Uiso   1.00
C140   C     0.12794   0.31179   0.60332   0.00000  Uiso   1.00
C141   C     0.15250   0.25648   0.62383   0.00000  Uiso   1.00
C142   C     0.15548   0.24073   0.69262   0.00000  Uiso   1.00
C143   C     0.17042   0.19432   0.79838   0.00000  Uiso   1.00
C144   C     0.08675   0.30782   0.51871   0.00000  Uiso   1.00
C145   C     0.07667   0.24918   0.46808   0.00000  Uiso   1.00
C146   C     0.04497   0.23010   0.46564   0.00000  Uiso   1.00
C147   C     0.99596   0.17757   0.44001   0.00000  Uiso   1.00
C148   C     0.12006   0.44234   0.52864   0.00000  Uiso   1.00
C149   C     0.13799   0.49682   0.48634   0.00000  Uiso   1.00
C150   C     0.13433   0.59099   0.49225   0.00000  Uiso   1.00
C151   C     0.13705   0.74733   0.48204   0.00000  Uiso   1.00
C152   C     0.08197   0.40828   0.61634   0.00000  Uiso   1.00
C153   C     0.10709   0.35001   0.64987   0.00000  Uiso   1.00
C154   C     0.11004   0.33434   0.71864   0.00000  Uiso   1.00
C155   C     0.13459   0.27902   0.73925   0.00000  Uiso   1.00
C156   C     0.06590   0.34604   0.56526   0.00000  Uiso   1.00
C157   C     0.03421   0.32704   0.56289   0.00000  Uiso   1.00
C158   C     0.02409   0.26839   0.51227   0.00000  Uiso   1.00
C159   C     0.09921   0.48056   0.57519   0.00000  Uiso   1.00
C160   C     0.09553   0.57467   0.58116   0.00000  Uiso   1.00
C161   C     0.11345   0.62928   0.53888   0.00000  Uiso   1.00
H162   H     0.13658   0.30815   0.49441   0.00000  Uiso   1.00
H163   H     0.16862   0.22691   0.58780   0.00000  Uiso   1.00
H164   H     0.09281   0.21962   0.43206   0.00000  Uiso   1.00
H165   H     0.15412   0.46721   0.45033   0.00000  Uiso   1.00
H166   H     0.19495   0.15367   0.71186   0.00000  Uiso   1.00
H167   H     0.03509   0.13832   0.38347   0.00000  Uiso   1.00
H168   H     0.16437   0.66042   0.42199   0.00000  Uiso   1.00
H169   H     0.06574   0.43804   0.65258   0.00000  Uiso   1.00
H170   H     0.09390   0.36393   0.75465   0.00000  Uiso   1.00
H171   H     0.01808   0.35663   0.59891   0.00000  Uiso   1.00
H172   H     0.07939   0.60423   0.61718   0.00000  Uiso   1.00
H173   H     0.13430   0.26487   0.84728   0.00000  Uiso   1.00
H174   H     0.97444   0.24953   0.51889   0.00000  Uiso   1.00
H175   H     0.10372   0.77163   0.55741   0.00000  Uiso   1.00
O176   O     0.18442   0.15815   0.84385   0.00000  Uiso   1.00
O177   O     0.97469   0.13803   0.41301   0.00000  Uiso   1.00
O178   O     0.14431   0.82301   0.46355   0.00000  Uiso   1.00
N179   N     0.17682   0.19003   0.72972   0.00000  Uiso   1.00
N180   N     0.02735   0.17567   0.42270   0.00000  Uiso   1.00
N181   N     0.14822   0.66378   0.45870   0.00000  Uiso   1.00
N182   N     0.14418   0.24987   0.80259   0.00000  Uiso   1.00
N183   N     0.99472   0.23551   0.49557   0.00000  Uiso   1.00
N184   N     0.11558   0.72362   0.53157   0.00000  Uiso   1.00
C185   C     0.37965   0.16209   0.53065   0.00000  Uiso   1.00
C186   C     0.37206   0.18821   0.60332   0.00000  Uiso   1.00
C187   C     0.34750   0.24352   0.62383   0.00000  Uiso   1.00
C188   C     0.34452   0.25927   0.69262   0.00000  Uiso   1.00
C189   C     0.32958   0.30568   0.79838   0.00000  Uiso   1.00
C190   C     0.41325   0.19218   0.51871   0.00000  Uiso   1.00
C191   C     0.42333   0.25082   0.46808   0.00000  Uiso   1.00
C192   C     0.45503   0.26990   0.46564   0.00000  Uiso   1.00
C193   C     0.50404   0.32243   0.44001   0.00000  Uiso   1.00
C194   C     0.37994   0.05766   0.52864   0.00000  Uiso   1.00
C195   C     0.36201   0.00318   0.48634   0.00000  Uiso   1.00
C196   C     0.36567   0.90901   0.49225   0.00000  Uiso   1.00
C197   C     0.36295   0.75267   0.48204   0.00000  Uiso   1.00
C198   C     0.41803   0.09172   0.61634   0.00000  Uiso   1.00
C199   C     0.39291   0.14999   0.64987   0.00000  Uiso   1.00
C200   C     0.38996   0.16566   0.71864   0.00000  Uiso   1.00
C201   C     0.36541   0.22098   0.73925   0.00000  Uiso   1.00
C202   C     0.43410   0.15396   0.56526   0.00000  Uiso   1.00
C203   C     0.46579   0.17296   0.56289   0.00000  Uiso   1.00
C204   C     0.47591   0.23161   0.51227   0.00000  Uiso   1.00
C205   C     0.40079   0.01944   0.57519   0.00000  Uiso   1.00
C206   C     0.40447   0.92533   0.58116   0.00000  Uiso   1.00
C207   C     0.38655   0.87072   0.53888   0.00000  Uiso   1.00
H208   H     0.36342   0.19185   0.49441   0.00000  Uiso   1.00
H209   H     0.33138   0.27309   0.58780   0.00000  Uiso   1.00
H210   H     0.40719   0.28038   0.43206   0.00000  Uiso   1.00
H211   H     0.34588   0.03279   0.45033   0.00000  Uiso   1.00
H212   H     0.30505   0.34633   0.71186   0.00000  Uiso   1.00
H213   H     0.46491   0.36168   0.38347   0.00000  Uiso   1.00
H214   H     0.33563   0.83958   0.42199   0.00000  Uiso   1.00
H215   H     0.43426   0.06196   0.65258   0.00000  Uiso   1.00
H216   H     0.40610   0.13607   0.75465   0.00000  Uiso   1.00
H217   H     0.48192   0.14337   0.59891   0.00000  Uiso   1.00
H218   H     0.42061   0.89577   0.61718   0.00000  Uiso   1.00
H219   H     0.36570   0.23513   0.84728   0.00000  Uiso   1.00
H220   H     0.52556   0.25047   0.51889   0.00000  Uiso   1.00
H221   H     0.39628   0.72837   0.55741   0.00000  Uiso   1.00
O222   O     0.31558   0.34185   0.84385   0.00000  Uiso   1.00
O223   O     0.52531   0.36197   0.41301   0.00000  Uiso   1.00
O224   O     0.35569   0.67699   0.46355   0.00000  Uiso   1.00
N225   N     0.32318   0.30997   0.72972   0.00000  Uiso   1.00
N226   N     0.47265   0.32433   0.42270   0.00000  Uiso   1.00
N227   N     0.35178   0.83622   0.45870   0.00000  Uiso   1.00
N228   N     0.35582   0.25013   0.80259   0.00000  Uiso   1.00
N229   N     0.50528   0.26449   0.49557   0.00000  Uiso   1.00
N230   N     0.38442   0.77638   0.53157   0.00000  Uiso   1.00
C231   C     0.37965   0.66209   0.03065   0.00000  Uiso   1.00
C232   C     0.37206   0.68821   0.10332   0.00000  Uiso   1.00
C233   C     0.34750   0.74352   0.12383   0.00000  Uiso   1.00
C234   C     0.34452   0.75927   0.19262   0.00000  Uiso   1.00
C235   C     0.32958   0.80568   0.29838   0.00000  Uiso   1.00
C236   C     0.41325   0.69218   0.01871   0.00000  Uiso   1.00
C237   C     0.42333   0.75082   0.96808   0.00000  Uiso   1.00
C238   C     0.45503   0.76990   0.96564   0.00000  Uiso   1.00
C239   C     0.50404   0.82243   0.94001   0.00000  Uiso   1.00
C240   C     0.37994   0.55766   0.02864   0.00000  Uiso   1.00
C241   C     0.36201   0.50318   0.98634   0.00000  Uiso   1.00
C242   C     0.36567   0.40901   0.99225   0.00000  Uiso   1.00
C243   C     0.36295   0.25267   0.98204   0.00000  Uiso   1.00
C244   C     0.41803   0.59172   0.11634   0.00000  Uiso   1.00
C245   C     0.39291   0.64999   0.14987   0.00000  Uiso   1.00
C246   C     0.38996   0.66566   0.21864   0.00000  Uiso   1.00
C247   C     0.36541   0.72098   0.23925   0.00000  Uiso   1.00
C248   C     0.43410   0.65396   0.06526   0.00000  Uiso   1.00
C249   C     0.46579   0.67296   0.06289   0.00000  Uiso   1.00
C250   C     0.47591   0.73161   0.01227   0.00000  Uiso   1.00
C251   C     0.40079   0.51944   0.07519   0.00000  Uiso   1.00
C252   C     0.40447   0.42533   0.08116   0.00000  Uiso   1.00
C253   C     0.38655   0.37072   0.03888   0.00000  Uiso   1.00
H254   H     0.36342   0.69185   0.99441   0.00000  Uiso   1.00
H255   H     0.33138   0.77309   0.08780   0.00000  Uiso   1.00
H256   H     0.40719   0.78038   0.93206   0.00000  Uiso   1.00
H257   H     0.34588   0.53279   0.95033   0.00000  Uiso   1.00
H258   H     0.30505   0.84633   0.21186   0.00000  Uiso   1.00
H259   H     0.46491   0.86168   0.88347   0.00000  Uiso   1.00
H260   H     0.33563   0.33958   0.92199   0.00000  Uiso   1.00
H261   H     0.43426   0.56196   0.15258   0.00000  Uiso   1.00
H262   H     0.40610   0.63607   0.25465   0.00000  Uiso   1.00
H263   H     0.48192   0.64337   0.09891   0.00000  Uiso   1.00
H264   H     0.42061   0.39577   0.11718   0.00000  Uiso   1.00
H265   H     0.36570   0.73513   0.34728   0.00000  Uiso   1.00
H266   H     0.52556   0.75047   0.01889   0.00000  Uiso   1.00
H267   H     0.39628   0.22837   0.05741   0.00000  Uiso   1.00
O268   O     0.31558   0.84185   0.34385   0.00000  Uiso   1.00
O269   O     0.52531   0.86197   0.91301   0.00000  Uiso   1.00
O270   O     0.35569   0.17699   0.96355   0.00000  Uiso   1.00
N271   N     0.32318   0.80997   0.22972   0.00000  Uiso   1.00
N272   N     0.47265   0.82433   0.92270   0.00000  Uiso   1.00
N273   N     0.35178   0.33622   0.95870   0.00000  Uiso   1.00
N274   N     0.35582   0.75013   0.30259   0.00000  Uiso   1.00
N275   N     0.50528   0.76449   0.99557   0.00000  Uiso   1.00
N276   N     0.38442   0.27638   0.03157   0.00000  Uiso   1.00
C277   C     0.87965   0.16209   0.03065   0.00000  Uiso   1.00
C278   C     0.87206   0.18821   0.10332   0.00000  Uiso   1.00
C279   C     0.84750   0.24352   0.12383   0.00000  Uiso   1.00
C280   C     0.84452   0.25927   0.19262   0.00000  Uiso   1.00
C281   C     0.82958   0.30568   0.29838   0.00000  Uiso   1.00
C282   C     0.91325   0.19218   0.01871   0.00000  Uiso   1.00
C283   C     0.92333   0.25082   0.96808   0.00000  Uiso   1.00
C284   C     0.95503   0.26990   0.96564   0.00000  Uiso   1.00
C285   C     0.00404   0.32243   0.94001   0.00000  Uiso   1.00
C286   C     0.87994   0.05766   0.02864   0.00000  Uiso   1.00
C287   C     0.86201   0.00318   0.98634   0.00000  Uiso   1.00
C288   C     0.86567   0.90901   0.99225   0.00000  Uiso   1.00
C289   C     0.86295   0.75267   0.98204   0.00000  Uiso   1.00
C290   C     0.91803   0.09172   0.11634   0.00000  Uiso   1.00
C291   C     0.89291   0.14999   0.14987   0.00000  Uiso   1.00
C292   C     0.88996   0.16566   0.21864   0.00000  Uiso   1.00
C293   C     0.86541   0.22098   0.23925   0.00000  Uiso   1.00
C294   C     0.93410   0.15396   0.06526   0.00000  Uiso   1.00
C295   C     0.96579   0.17296   0.06289   0.00000  Uiso   1.00
C296   C     0.97591   0.23161   0.01227   0.00000  Uiso   1.00
C297   C     0.90079   0.01944   0.07519   0.00000  Uiso   1.00
C298   C     0.90447   0.92533   0.08116   0.00000  Uiso   1.00
C299   C     0.88655   0.87072   0.03888   0.00000  Uiso   1.00
H300   H     0.86342   0.19185   0.99441   0.00000  Uiso   1.00
H301   H     0.83138   0.27309   0.08780   0.00000  Uiso   1.00
H302   H     0.90719   0.28038   0.93206   0.00000  Uiso   1.00
H303   H     0.84588   0.03279   0.95033   0.00000  Uiso   1.00
H304   H     0.80505   0.34633   0.21186   0.00000  Uiso   1.00
H305   H     0.96491   0.36168   0.88347   0.00000  Uiso   1.00
H306   H     0.83563   0.83958   0.92199   0.00000  Uiso   1.00
H307   H     0.93426   0.06196   0.15258   0.00000  Uiso   1.00
H308   H     0.90610   0.13607   0.25465   0.00000  Uiso   1.00
H309   H     0.98192   0.14337   0.09891   0.00000  Uiso   1.00
H310   H     0.92061   0.89577   0.11718   0.00000  Uiso   1.00
H311   H     0.86570   0.23513   0.34728   0.00000  Uiso   1.00
H312   H     0.02556   0.25047   0.01889   0.00000  Uiso   1.00
H313   H     0.89628   0.72837   0.05741   0.00000  Uiso   1.00
O314   O     0.81558   0.34185   0.34385   0.00000  Uiso   1.00
O315   O     0.02531   0.36197   0.91301   0.00000  Uiso   1.00
O316   O     0.85569   0.67699   0.96355   0.00000  Uiso   1.00
N317   N     0.82318   0.30997   0.22972   0.00000  Uiso   1.00
N318   N     0.97265   0.32433   0.92270   0.00000  Uiso   1.00
N319   N     0.85178   0.83622   0.95870   0.00000  Uiso   1.00
N320   N     0.85582   0.25013   0.30259   0.00000  Uiso   1.00
N321   N     0.00528   0.26449   0.99557   0.00000  Uiso   1.00
N322   N     0.88442   0.77638   0.03157   0.00000  Uiso   1.00
C323   C     0.87965   0.66209   0.53065   0.00000  Uiso   1.00
C324   C     0.87206   0.68821   0.60332   0.00000  Uiso   1.00
C325   C     0.84750   0.74352   0.62383   0.00000  Uiso   1.00
C326   C     0.84452   0.75927   0.69262   0.00000  Uiso   1.00
C327   C     0.82958   0.80568   0.79838   0.00000  Uiso   1.00
C328   C     0.91325   0.69218   0.51871   0.00000  Uiso   1.00
C329   C     0.92333   0.75082   0.46808   0.00000  Uiso   1.00
C330   C     0.95503   0.76990   0.46564   0.00000  Uiso   1.00
C331   C     0.00404   0.82243   0.44001   0.00000  Uiso   1.00
C332   C     0.87994   0.55766   0.52864   0.00000  Uiso   1.00
C333   C     0.86201   0.50318   0.48634   0.00000  Uiso   1.00
C334   C     0.86567   0.40901   0.49225   0.00000  Uiso   1.00
C335   C     0.86295   0.25267   0.48204   0.00000  Uiso   1.00
C336   C     0.91803   0.59172   0.61634   0.00000  Uiso   1.00
C337   C     0.89291   0.64999   0.64987   0.00000  Uiso   1.00
C338   C     0.88996   0.66566   0.71864   0.00000  Uiso   1.00
C339   C     0.86541   0.72098   0.73925   0.00000  Uiso   1.00
C340   C     0.93410   0.65396   0.56526   0.00000  Uiso   1.00
C341   C     0.96579   0.67296   0.56289   0.00000  Uiso   1.00
C342   C     0.97591   0.73161   0.51227   0.00000  Uiso   1.00
C343   C     0.90079   0.51944   0.57519   0.00000  Uiso   1.00
C344   C     0.90447   0.42533   0.58116   0.00000  Uiso   1.00
C345   C     0.88655   0.37072   0.53888   0.00000  Uiso   1.00
H346   H     0.86342   0.69185   0.49441   0.00000  Uiso   1.00
H347   H     0.83138   0.77309   0.58780   0.00000  Uiso   1.00
H348   H     0.90719   0.78038   0.43206   0.00000  Uiso   1.00
H349   H     0.84588   0.53279   0.45033   0.00000  Uiso   1.00
H350   H     0.80505   0.84633   0.71186   0.00000  Uiso   1.00
H351   H     0.96491   0.86168   0.38347   0.00000  Uiso   1.00
H352   H     0.83563   0.33958   0.42199   0.00000  Uiso   1.00
H353   H     0.93426   0.56196   0.65258   0.00000  Uiso   1.00
H354   H     0.90610   0.63607   0.75465   0.00000  Uiso   1.00
H355   H     0.98192   0.64337   0.59891   0.00000  Uiso   1.00
H356   H     0.92061   0.39577   0.61718   0.00000  Uiso   1.00
H357   H     0.86570   0.73513   0.84728   0.00000  Uiso   1.00
H358   H     0.02556   0.75047   0.51889   0.00000  Uiso   1.00
H359   H     0.89628   0.22837   0.55741   0.00000  Uiso   1.00
O360   O     0.81558   0.84185   0.84385   0.00000  Uiso   1.00
O361   O     0.02531   0.86197   0.41301   0.00000  Uiso   1.00
O362   O     0.85569   0.17699   0.46355   0.00000  Uiso   1.00
N363   N     0.82318   0.80997   0.72972   0.00000  Uiso   1.00
N364   N     0.97265   0.82433   0.42270   0.00000  Uiso   1.00
N365   N     0.85178   0.33622   0.45870   0.00000  Uiso   1.00
N366   N     0.85582   0.75013   0.80259   0.00000  Uiso   1.00
N367   N     0.00528   0.76449   0.49557   0.00000  Uiso   1.00
N368   N     0.88442   0.27638   0.53157   0.00000  Uiso   1.00
C369   C     0.87035   0.41209   0.78065   0.00000  Uiso   1.00
C370   C     0.87794   0.43821   0.85332   0.00000  Uiso   1.00
C371   C     0.90250   0.49352   0.87383   0.00000  Uiso   1.00
C372   C     0.90548   0.50927   0.94262   0.00000  Uiso   1.00
C373   C     0.92042   0.55568   0.04838   0.00000  Uiso   1.00
C374   C     0.83675   0.44218   0.76871   0.00000  Uiso   1.00
C375   C     0.82667   0.50082   0.71808   0.00000  Uiso   1.00
C376   C     0.79497   0.51990   0.71564   0.00000  Uiso   1.00
C377   C     0.74596   0.57243   0.69001   0.00000  Uiso   1.00
C378   C     0.87006   0.30766   0.77864   0.00000  Uiso   1.00
C379   C     0.88799   0.25318   0.73634   0.00000  Uiso   1.00
C380   C     0.88433   0.15901   0.74225   0.00000  Uiso   1.00
C381   C     0.88705   0.00267   0.73204   0.00000  Uiso   1.00
C382   C     0.83197   0.34172   0.86634   0.00000  Uiso   1.00
C383   C     0.85709   0.39999   0.89987   0.00000  Uiso   1.00
C384   C     0.86004   0.41566   0.96864   0.00000  Uiso   1.00
C385   C     0.88459   0.47098   0.98925   0.00000  Uiso   1.00
C386   C     0.81590   0.40396   0.81526   0.00000  Uiso   1.00
C387   C     0.78421   0.42296   0.81289   0.00000  Uiso   1.00
C388   C     0.77409   0.48161   0.76227   0.00000  Uiso   1.00
C389   C     0.84921   0.26944   0.82519   0.00000  Uiso   1.00
C390   C     0.84553   0.17533   0.83116   0.00000  Uiso   1.00
C391   C     0.86345   0.12072   0.78888   0.00000  Uiso   1.00
H392   H     0.88658   0.44185   0.74441   0.00000  Uiso   1.00
H393   H     0.91862   0.52309   0.83780   0.00000  Uiso   1.00
H394   H     0.84281   0.53038   0.68206   0.00000  Uiso   1.00
H395   H     0.90412   0.28279   0.70033   0.00000  Uiso   1.00
H396   H     0.94495   0.59633   0.96186   0.00000  Uiso   1.00
H397   H     0.78509   0.61168   0.63347   0.00000  Uiso   1.00
H398   H     0.91437   0.08958   0.67199   0.00000  Uiso   1.00
H399   H     0.81574   0.31196   0.90258   0.00000  Uiso   1.00
H400   H     0.84390   0.38607   0.00465   0.00000  Uiso   1.00
H401   H     0.76808   0.39337   0.84891   0.00000  Uiso   1.00
H402   H     0.82939   0.14577   0.86718   0.00000  Uiso   1.00
H403   H     0.88430   0.48513   0.09728   0.00000  Uiso   1.00
H404   H     0.72444   0.50047   0.76889   0.00000  Uiso   1.00
H405   H     0.85372   0.97837   0.80741   0.00000  Uiso   1.00
O406   O     0.93442   0.59185   0.09385   0.00000  Uiso   1.00
O407   O     0.72469   0.61197   0.66301   0.00000  Uiso   1.00
O408   O     0.89431   0.92699   0.71355   0.00000  Uiso   1.00
N409   N     0.92682   0.55997   0.97972   0.00000  Uiso   1.00
N410   N     0.77735   0.57433   0.67270   0.00000  Uiso   1.00
N411   N     0.89822   0.08622   0.70870   0.00000  Uiso   1.00
N412   N     0.89418   0.50013   0.05259   0.00000  Uiso   1.00
N413   N     0.74472   0.51449   0.74557   0.00000  Uiso   1.00
N414   N     0.86558   0.02638   0.78157   0.00000  Uiso   1.00
C415   C     0.87035   0.91209   0.28065   0.00000  Uiso   1.00
C416   C     0.87794   0.93821   0.35332   0.00000  Uiso   1.00
C417   C     0.90250   0.99352   0.37383   0.00000  Uiso   1.00
C418   C     0.90548   0.00927   0.44262   0.00000  Uiso   1.00
C419   C     0.92042   0.05568   0.54838   0.00000  Uiso   1.00
C420   C     0.83675   0.94218   0.26871   0.00000  Uiso   1.00
C421   C     0.82667   0.00082   0.21808   0.00000  Uiso   1.00
C422   C     0.79497   0.01990   0.21564   0.00000  Uiso   1.00
C423   C     0.74596   0.07243   0.19001   0.00000  Uiso   1.00
C424   C     0.87006   0.80766   0.27864   0.00000  Uiso   1.00
C425   C     0.88799   0.75318   0.23634   0.00000  Uiso   1.00
C426   C     0.88433   0.65901   0.24225   0.00000  Uiso   1.00
C427   C     0.88705   0.50267   0.23204   0.00000  Uiso   1.00
C428   C     0.83197   0.84172   0.36634   0.00000  Uiso   1.00
C429   C     0.85709   0.89999   0.39987   0.00000  Uiso   1.00
C430   C     0.86004   0.91566   0.46864   0.00000  Uiso   1.00
C431   C     0.88459   0.97098   0.48925   0.00000  Uiso   1.00
C432   C     0.81590   0.90396   0.31526   0.00000  Uiso   1.00
C433   C     0.78421   0.92296   0.31289   0.00000  Uiso   1.00
C434   C     0.77409   0.98161   0.26227   0.00000  Uiso   1.00
C435   C     0.84921   0.76944   0.32519   0.00000  Uiso   1.00
C436   C     0.84553   0.67533   0.33116   0.00000  Uiso   1.00
C437   C     0.86345   0.62072   0.28888   0.00000  Uiso   1.00
H438   H     0.88658   0.94185   0.24441   0.00000  Uiso   1.00
H439   H     0.91862   0.02309   0.33780   0.00000  Uiso   1.00
H440   H     0.84281   0.03038   0.18206   0.00000  Uiso   1.00
H441   H     0.90412   0.78279   0.20033   0.00000  Uiso   1.00
H442   H     0.94495   0.09633   0.46186   0.00000  Uiso   1.00
H443   H     0.78509   0.11168   0.13347   0.00000  Uiso   1.00
H444   H     0.91437   0.58958   0.17199   0.00000  Uiso   1.00
H445   H     0.81574   0.81196   0.40258   0.00000  Uiso   1.00
H446   H     0.84390   0.88607   0.50465   0.00000  Uiso   1.00
H447   H     0.76808   0.89337   0.34891   0.00000  Uiso   1.00
H448   H     0.82939   0.64577   0.36718   0.00000  Uiso   1.00
H449   H     0.88430   0.98513   0.59728   0.00000  Uiso   1.00
H450   H     0.72444   0.00047   0.26889   0.00000  Uiso   1.00
H451   H     0.85372   0.47837   0.30741   0.00000  Uiso   1.00
O452   O     0.93442   0.09185   0.59385   0.00000  Uiso   1.00
O453   O     0.72469   0.11197   0.16301   0.00000  Uiso   1.00
O454   O     0.89431   0.42699   0.21355   0.00000  Uiso   1.00
N455   N     0.92682   0.05997   0.47972   0.00000  Uiso   1.00
N456   N     0.77735   0.07433   0.17270   0.00000  Uiso   1.00
N457   N     0.89822   0.58622   0.20870   0.00000  Uiso   1.00
N458   N     0.89418   0.00013   0.55259   0.00000  Uiso   1.00
N459   N     0.74472   0.01449   0.24557   0.00000  Uiso   1.00
N460   N     0.86558   0.52638   0.28157   0.00000  Uiso   1.00
C461   C     0.37035   0.41209   0.28065   0.00000  Uiso   1.00
C462   C     0.37794   0.43821   0.35332   0.00000  Uiso   1.00
C463   C     0.40250   0.49352   0.37383   0.00000  Uiso   1.00
C464   C     0.40548   0.50927   0.44262   0.00000  Uiso   1.00
C465   C     0.42042   0.55568   0.54838   0.00000  Uiso   1.00
C466   C     0.33675   0.44218   0.26871   0.00000  Uiso   1.00
C467   C     0.32667   0.50082   0.21808   0.00000  Uiso   1.00
C468   C     0.29497   0.51990   0.21564   0.00000  Uiso   1.00
C469   C     0.24596   0.57243   0.19001   0.00000  Uiso   1.00
C470   C     0.37006   0.30766   0.27864   0.00000  Uiso   1.00
C471   C     0.38799   0.25318   0.23634   0.00000  Uiso   1.00
C472   C     0.38433   0.15901   0.24225   0.00000  Uiso   1.00
C473   C     0.38705   0.00267   0.23204   0.00000  Uiso   1.00
C474   C     0.33197   0.34172   0.36634   0.00000  Uiso   1.00
C475   C     0.35709   0.39999   0.39987   0.00000  Uiso   1.00
C476   C     0.36004   0.41566   0.46864   0.00000  Uiso   1.00
C477   C     0.38459   0.47098   0.48925   0.00000  Uiso   1.00
C478   C     0.31590   0.40396   0.31526   0.00000  Uiso   1.00
C479   C     0.28421   0.42296   0.31289   0.00000  Uiso   1.00
C480   C     0.27409   0.48161   0.26227   0.00000  Uiso   1.00
C481   C     0.34921   0.26944   0.32519   0.00000  Uiso   1.00
C482   C     0.34553   0.17533   0.33116   0.00000  Uiso   1.00
C483   C     0.36345   0.12072   0.28888   0.00000  Uiso   1.00
H484   H     0.38658   0.44185   0.24441   0.00000  Uiso   1.00
H485   H     0.41862   0.52309   0.33780   0.00000  Uiso   1.00
H486   H     0.34281   0.53038   0.18206   0.00000  Uiso   1.00
H487   H     0.40412   0.28279   0.20033   0.00000  Uiso   1.00
H488   H     0.44495   0.59633   0.46186   0.00000  Uiso   1.00
H489   H     0.28509   0.61168   0.13347   0.00000  Uiso   1.00
H490   H     0.41437   0.08958   0.17199   0.00000  Uiso   1.00
H491   H     0.31574   0.31196   0.40258   0.00000  Uiso   1.00
H492   H     0.34390   0.38607   0.50465   0.00000  Uiso   1.00
H493   H     0.26808   0.39337   0.34891   0.00000  Uiso   1.00
H494   H     0.32939   0.14577   0.36718   0.00000  Uiso   1.00
H495   H     0.38430   0.48513   0.59728   0.00000  Uiso   1.00
H496   H     0.22444   0.50047   0.26889   0.00000  Uiso   1.00
H497   H     0.35372   0.97837   0.30741   0.00000  Uiso   1.00
O498   O     0.43442   0.59185   0.59385   0.00000  Uiso   1.00
O499   O     0.22469   0.61197   0.16301   0.00000  Uiso   1.00
O500   O     0.39431   0.92699   0.21355   0.00000  Uiso   1.00
N501   N     0.42682   0.55997   0.47972   0.00000  Uiso   1.00
N502   N     0.27735   0.57433   0.17270   0.00000  Uiso   1.00
N503   N     0.39822   0.08622   0.20870   0.00000  Uiso   1.00
N504   N     0.39418   0.50013   0.55259   0.00000  Uiso   1.00
N505   N     0.24472   0.51449   0.24557   0.00000  Uiso   1.00
N506   N     0.36558   0.02638   0.28157   0.00000  Uiso   1.00
C507   C     0.37035   0.91209   0.78065   0.00000  Uiso   1.00
C508   C     0.37794   0.93821   0.85332   0.00000  Uiso   1.00
C509   C     0.40250   0.99352   0.87383   0.00000  Uiso   1.00
C510   C     0.40548   0.00927   0.94262   0.00000  Uiso   1.00
C511   C     0.42042   0.05568   0.04838   0.00000  Uiso   1.00
C512   C     0.33675   0.94218   0.76871   0.00000  Uiso   1.00
C513   C     0.32667   0.00082   0.71808   0.00000  Uiso   1.00
C514   C     0.29497   0.01990   0.71564   0.00000  Uiso   1.00
C515   C     0.24596   0.07243   0.69001   0.00000  Uiso   1.00
C516   C     0.37006   0.80766   0.77864   0.00000  Uiso   1.00
C517   C     0.38799   0.75318   0.73634   0.00000  Uiso   1.00
C518   C     0.38433   0.65901   0.74225   0.00000  Uiso   1.00
C519   C     0.38705   0.50267   0.73204   0.00000  Uiso   1.00
C520   C     0.33197   0.84172   0.86634   0.00000  Uiso   1.00
C521   C     0.35709   0.89999   0.89987   0.00000  Uiso   1.00
C522   C     0.36004   0.91566   0.96864   0.00000  Uiso   1.00
C523   C     0.38459   0.97098   0.98925   0.00000  Uiso   1.00
C524   C     0.31590   0.90396   0.81526   0.00000  Uiso   1.00
C525   C     0.28421   0.92296   0.81289   0.00000  Uiso   1.00
C526   C     0.27409   0.98161   0.76227   0.00000  Uiso   1.00
C527   C     0.34921   0.76944   0.82519   0.00000  Uiso   1.00
C528   C     0.34553   0.67533   0.83116   0.00000  Uiso   1.00
C529   C     0.36345   0.62072   0.78888   0.00000  Uiso   1.00
H530   H     0.38658   0.94185   0.74441   0.00000  Uiso   1.00
H531   H     0.41862   0.02309   0.83780   0.00000  Uiso   1.00
H532   H     0.34281   0.03038   0.68206   0.00000  Uiso   1.00
H533   H     0.40412   0.78279   0.70033   0.00000  Uiso   1.00
H534   H     0.44495   0.09633   0.96186   0.00000  Uiso   1.00
H535   H     0.28509   0.11168   0.63347   0.00000  Uiso   1.00
H536   H     0.41437   0.58958   0.67199   0.00000  Uiso   1.00
H537   H     0.31574   0.81196   0.90258   0.00000  Uiso   1.00
H538   H     0.34390   0.88607   0.00465   0.00000  Uiso   1.00
H539   H     0.26808   0.89337   0.84891   0.00000  Uiso   1.00
H540   H     0.32939   0.64577   0.86718   0.00000  Uiso   1.00
H541   H     0.38430   0.98513   0.09728   0.00000  Uiso   1.00
H542   H     0.22444   0.00047   0.76889   0.00000  Uiso   1.00
H543   H     0.35372   0.47837   0.80741   0.00000  Uiso   1.00
O544   O     0.43442   0.09185   0.09385   0.00000  Uiso   1.00
O545   O     0.22469   0.11197   0.66301   0.00000  Uiso   1.00
O546   O     0.39431   0.42699   0.71355   0.00000  Uiso   1.00
N547   N     0.42682   0.05997   0.97972   0.00000  Uiso   1.00
N548   N     0.27735   0.07433   0.67270   0.00000  Uiso   1.00
N549   N     0.39822   0.58622   0.70870   0.00000  Uiso   1.00
N550   N     0.39418   0.00013   0.05259   0.00000  Uiso   1.00
N551   N     0.24472   0.01449   0.74557   0.00000  Uiso   1.00
N552   N     0.36558   0.52638   0.78157   0.00000  Uiso   1.00
C553   C     0.62965   0.08791   0.78065   0.00000  Uiso   1.00
C554   C     0.62206   0.06179   0.85332   0.00000  Uiso   1.00
C555   C     0.59750   0.00648   0.87383   0.00000  Uiso   1.00
C556   C     0.59452   0.99073   0.94262   0.00000  Uiso   1.00
C557   C     0.57958   0.94432   0.04838   0.00000  Uiso   1.00
C558   C     0.66325   0.05782   0.76871   0.00000  Uiso   1.00
C559   C     0.67333   0.99918   0.71808   0.00000  Uiso   1.00
C560   C     0.70503   0.98010   0.71564   0.00000  Uiso   1.00
C561   C     0.75404   0.92757   0.69001   0.00000  Uiso   1.00
C562   C     0.62994   0.19234   0.77864   0.00000  Uiso   1.00
C563   C     0.61201   0.24682   0.73634   0.00000  Uiso   1.00
C564   C     0.61567   0.34099   0.74225   0.00000  Uiso   1.00
C565   C     0.61295   0.49733   0.73204   0.00000  Uiso   1.00
C566   C     0.66803   0.15828   0.86634   0.00000  Uiso   1.00
C567   C     0.64291   0.10001   0.89987   0.00000  Uiso   1.00
C568   C     0.63996   0.08434   0.96864   0.00000  Uiso   1.00
C569   C     0.61541   0.02902   0.98925   0.00000  Uiso   1.00
C570   C     0.68410   0.09604   0.81526   0.00000  Uiso   1.00
C571   C     0.71579   0.07704   0.81289   0.00000  Uiso   1.00
C572   C     0.72591   0.01839   0.76227   0.00000  Uiso   1.00
C573   C     0.65079   0.23056   0.82519   0.00000  Uiso   1.00
C574   C     0.65447   0.32467   0.83116   0.00000  Uiso   1.00
C575   C     0.63655   0.37928   0.78888   0.00000  Uiso   1.00
H576   H     0.61342   0.05815   0.74441   0.00000  Uiso   1.00
H577   H     0.58138   0.97691   0.83780   0.00000  Uiso   1.00
H578   H     0.65719   0.96962   0.68206   0.00000  Uiso   1.00
H579   H     0.59588   0.21721   0.70033   0.00000  Uiso   1.00
H580   H     0.55505   0.90367   0.96186   0.00000  Uiso   1.00
H581   H     0.71491   0.88832   0.63347   0.00000  Uiso   1.00
H582   H     0.58563   0.41042   0.67199   0.00000  Uiso   1.00
H583   H     0.68426   0.18804   0.90258   0.00000  Uiso   1.00
H584   H     0.65610   0.11393   0.00465   0.00000  Uiso   1.00
H585   H     0.73192   0.10663   0.84891   0.00000  Uiso   1.00
H586   H     0.67061   0.35423   0.86718   0.00000  Uiso   1.00
H587   H     0.61570   0.01487   0.09728   0.00000  Uiso   1.00
H588   H     0.77556   0.99953   0.76889   0.00000  Uiso   1.00
H589   H     0.64628   0.52163   0.80741   0.00000  Uiso   1.00
O590   O     0.56558   0.90815   0.09385   0.00000  Uiso   1.00
O591   O     0.77531   0.88803   0.66301   0.00000  Uiso   1.00
O592   O     0.60569   0.57301   0.71355   0.00000  Uiso   1.00
N593   N     0.57318   0.94003   0.97972   0.00000  Uiso   1.00
N594   N     0.72265   0.92567   0.67270   0.00000  Uiso   1.00
N595   N     0.60178   0.41378   0.70870   0.00000  Uiso   1.00
N596   N     0.60582   0.99987   0.05259   0.00000  Uiso   1.00
N597   N     0.75528   0.98551   0.74557   0.00000  Uiso   1.00
N598   N     0.63442   0.47362   0.78157   0.00000  Uiso   1.00
C599   C     0.62965   0.58791   0.28065   0.00000  Uiso   1.00
C600   C     0.62206   0.56179   0.35332   0.00000  Uiso   1.00
C601   C     0.59750   0.50648   0.37383   0.00000  Uiso   1.00
C602   C     0.59452   0.49073   0.44262   0.00000  Uiso   1.00
C603   C     0.57958   0.44432   0.54838   0.00000  Uiso   1.00
C604   C     0.66325   0.55782   0.26871   0.00000  Uiso   1.00
C605   C     0.67333   0.49918   0.21808   0.00000  Uiso   1.00
C606   C     0.70503   0.48010   0.21564   0.00000  Uiso   1.00
C607   C     0.75404   0.42757   0.19001   0.00000  Uiso   1.00
C608   C     0.62994   0.69234   0.27864   0.00000  Uiso   1.00
C609   C     0.61201   0.74682   0.23634   0.00000  Uiso   1.00
C610   C     0.61567   0.84099   0.24225   0.00000  Uiso   1.00
C611   C     0.61295   0.99733   0.23204   0.00000  Uiso   1.00
C612   C     0.66803   0.65828   0.36634   0.00000  Uiso   1.00
C613   C     0.64291   0.60001   0.39987   0.00000  Uiso   1.00
C614   C     0.63996   0.58434   0.46864   0.00000  Uiso   1.00
C615   C     0.61541   0.52902   0.48925   0.00000  Uiso   1.00
C616   C     0.68410   0.59604   0.31526   0.00000  Uiso   1.00
C617   C     0.71579   0.57704   0.31289   0.00000  Uiso   1.00
C618   C     0.72591   0.51839   0.26227   0.00000  Uiso   1.00
C619   C     0.65079   0.73056   0.32519   0.00000  Uiso   1.00
C620   C     0.65447   0.82467   0.33116   0.00000  Uiso   1.00
C621   C     0.63655   0.87928   0.28888   0.00000  Uiso   1.00
H622   H     0.61342   0.55815   0.24441   0.00000  Uiso   1.00
H623   H     0.58138   0.47691   0.33780   0.00000  Uiso   1.00
H624   H     0.65719   0.46962   0.18206   0.00000  Uiso   1.00
H625   H     0.59588   0.71721   0.20033   0.00000  Uiso   1.00
H626   H     0.55505   0.40367   0.46186   0.00000  Uiso   1.00
H627   H     0.71491   0.38832   0.13347   0.00000  Uiso   1.00
H628   H     0.58563   0.91042   0.17199   0.00000  Uiso   1.00
H629   H     0.68426   0.68804   0.40258   0.00000  Uiso   1.00
H630   H     0.65610   0.61393   0.50465   0.00000  Uiso   1.00
H631   H     0.73192   0.60663   0.34891   0.00000  Uiso   1.00
H632   H     0.67061   0.85423   0.36718   0.00000  Uiso   1.00
H633   H     0.61570   0.51487   0.59728   0.00000  Uiso   1.00
H634   H     0.77556   0.49953   0.26889   0.00000  Uiso   1.00
H635   H     0.64628   0.02163   0.30741   0.00000  Uiso   1.00
O636   O     0.56558   0.40815   0.59385   0.00000  Uiso   1.00
O637   O     0.77531   0.38803   0.16301   0.00000  Uiso   1.00
O638   O     0.60569   0.07301   0.21355   0.00000  Uiso   1.00
N639   N     0.57318   0.44003   0.47972   0.00000  Uiso   1.00
N640   N     0.72265   0.42567   0.17270   0.00000  Uiso   1.00
N641   N     0.60178   0.91378   0.20870   0.00000  Uiso   1.00
N642   N     0.60582   0.49987   0.55259   0.00000  Uiso   1.00
N643   N     0.75528   0.48551   0.24557   0.00000  Uiso   1.00
N644   N     0.63442   0.97362   0.28157   0.00000  Uiso   1.00
C645   C     0.12965   0.08791   0.28065   0.00000  Uiso   1.00
C646   C     0.12206   0.06179   0.35332   0.00000  Uiso   1.00
C647   C     0.09750   0.00648   0.37383   0.00000  Uiso   1.00
C648   C     0.09452   0.99073   0.44262   0.00000  Uiso   1.00
C649   C     0.07958   0.94432   0.54838   0.00000  Uiso   1.00
C650   C     0.16325   0.05782   0.26871   0.00000  Uiso   1.00
C651   C     0.17333   0.99918   0.21808   0.00000  Uiso   1.00
C652   C     0.20503   0.98010   0.21564   0.00000  Uiso   1.00
C653   C     0.25404   0.92757   0.19001   0.00000  Uiso   1.00
C654   C     0.12994   0.19234   0.27864   0.00000  Uiso   1.00
C655   C     0.11201   0.24682   0.23634   0.00000  Uiso   1.00
C656   C     0.11567   0.34099   0.24225   0.00000  Uiso   1.00
C657   C     0.11295   0.49733   0.23204   0.00000  Uiso   1.00
C658   C     0.16803   0.15828   0.36634   0.00000  Uiso   1.00
C659   C     0.14291   0.10001   0.39987   0.00000  Uiso   1.00
C660   C     0.13996   0.08434   0.46864   0.00000  Uiso   1.00
C661   C     0.11541   0.02902   0.48925   0.00000  Uiso   1.00
C662   C     0.18410   0.09604   0.31526   0.00000  Uiso   1.00
C663   C     0.21579   0.07704   0.31289   0.00000  Uiso   1.00
C664   C     0.22591   0.01839   0.26227   0.00000  Uiso   1.00
C665   C     0.15079   0.23056   0.32519   0.00000  Uiso   1.00
C666   C     0.15447   0.32467   0.33116   0.00000  Uiso   1.00
C667   C     0.13655   0.37928   0.28888   0.00000  Uiso   1.00
H668   H     0.11342   0.05815   0.24441   0.00000  Uiso   1.00
H669   H     0.08138   0.97691   0.33780   0.00000  Uiso   1.00
H670   H     0.15719   0.96962   0.18206   0.00000  Uiso   1.00
H671   H     0.09588   0.21721   0.20033   0.00000  Uiso   1.00
H672   H     0.05505   0.90367   0.46186   0.00000  Uiso   1.00
H673   H     0.21491   0.88832   0.13347   0.00000  Uiso   1.00
H674   H     0.08563   0.41042   0.17199   0.00000  Uiso   1.00
H675   H     0.18426   0.18804   0.40258   0.00000  Uiso   1.00
H676   H     0.15610   0.11393   0.50465   0.00000  Uiso   1.00
H677   H     0.23192   0.10663   0.34891   0.00000  Uiso   1.00
H678   H     0.17061   0.35423   0.36718   0.00000  Uiso   1.00
H679   H     0.11570   0.01487   0.59728   0.00000  Uiso   1.00
H680   H     0.27556   0.99953   0.26889   0.00000  Uiso   1.00
H681   H     0.14628   0.52163   0.30741   0.00000  Uiso   1.00
O682   O     0.06558   0.90815   0.59385   0.00000  Uiso   1.00
O683   O     0.27531   0.88803   0.16301   0.00000  Uiso   1.00
O684   O     0.10569   0.57301   0.21355   0.00000  Uiso   1.00
N685   N     0.07318   0.94003   0.47972   0.00000  Uiso   1.00
N686   N     0.22265   0.92567   0.17270   0.00000  Uiso   1.00
N687   N     0.10178   0.41378   0.20870   0.00000  Uiso   1.00
N688   N     0.10582   0.99987   0.55259   0.00000  Uiso   1.00
N689   N     0.25528   0.98551   0.24557   0.00000  Uiso   1.00
N690   N     0.13442   0.47362   0.28157   0.00000  Uiso   1.00
C691   C     0.12965   0.58791   0.78065   0.00000  Uiso   1.00
C692   C     0.12206   0.56179   0.85332   0.00000  Uiso   1.00
C693   C     0.09750   0.50648   0.87383   0.00000  Uiso   1.00
C694   C     0.09452   0.49073   0.94262   0.00000  Uiso   1.00
C695   C     0.07958   0.44432   0.04838   0.00000  Uiso   1.00
C696   C     0.16325   0.55782   0.76871   0.00000  Uiso   1.00
C697   C     0.17333   0.49918   0.71808   0.00000  Uiso   1.00
C698   C     0.20503   0.48010   0.71564   0.00000  Uiso   1.00
C699   C     0.25404   0.42757   0.69001   0.00000  Uiso   1.00
C700   C     0.12994   0.69234   0.77864   0.00000  Uiso   1.00
C701   C     0.11201   0.74682   0.73634   0.00000  Uiso   1.00
C702   C     0.11567   0.84099   0.74225   0.00000  Uiso   1.00
C703   C     0.11295   0.99733   0.73204   0.00000  Uiso   1.00
C704   C     0.16803   0.65828   0.86634   0.00000  Uiso   1.00
C705   C     0.14291   0.60001   0.89987   0.00000  Uiso   1.00
C706   C     0.13996   0.58434   0.96864   0.00000  Uiso   1.00
C707   C     0.11541   0.52902   0.98925   0.00000  Uiso   1.00
C708   C     0.18410   0.59604   0.81526   0.00000  Uiso   1.00
C709   C     0.21579   0.57704   0.81289   0.00000  Uiso   1.00
C710   C     0.22591   0.51839   0.76227   0.00000  Uiso   1.00
C711   C     0.15079   0.73056   0.82519   0.00000  Uiso   1.00
C712   C     0.15447   0.82467   0.83116   0.00000  Uiso   1.00
C713   C     0.13655   0.87928   0.78888   0.00000  Uiso   1.00
H714   H     0.11342   0.55815   0.74441   0.00000  Uiso   1.00
H715   H     0.08138   0.47691   0.83780   0.00000  Uiso   1.00
H716   H     0.15719   0.46962   0.68206   0.00000  Uiso   1.00
H717   H     0.09588   0.71721   0.70033   0.00000  Uiso   1.00
H718   H     0.05505   0.40367   0.96186   0.00000  Uiso   1.00
H719   H     0.21491   0.38832   0.63347   0.00000  Uiso   1.00
H720   H     0.08563   0.91042   0.67199   0.00000  Uiso   1.00
H721   H     0.18426   0.68804   0.90258   0.00000  Uiso   1.00
H722   H     0.15610   0.61393   0.00465   0.00000  Uiso   1.00
H723   H     0.23192   0.60663   0.84891   0.00000  Uiso   1.00
H724   H     0.17061   0.85423   0.86718   0.00000  Uiso   1.00
H725   H     0.11570   0.51487   0.09728   0.00000  Uiso   1.00
H726   H     0.27556   0.49953   0.76889   0.00000  Uiso   1.00
H727   H     0.14628   0.02163   0.80741   0.00000  Uiso   1.00
O728   O     0.06558   0.40815   0.09385   0.00000  Uiso   1.00
O729   O     0.27531   0.38803   0.66301   0.00000  Uiso   1.00
O730   O     0.10569   0.07301   0.71355   0.00000  Uiso   1.00
N731   N     0.07318   0.44003   0.97972   0.00000  Uiso   1.00
N732   N     0.22265   0.42567   0.67270   0.00000  Uiso   1.00
N733   N     0.10178   0.91378   0.70870   0.00000  Uiso   1.00
N734   N     0.10582   0.49987   0.05259   0.00000  Uiso   1.00
N735   N     0.25528   0.48551   0.74557   0.00000  Uiso   1.00
N736   N     0.13442   0.97362   0.78157   0.00000  Uiso   1.00
