data_job_01413
_audit_creation_date              2018-12-19
_audit_creation_method            'Materials Studio'
_symmetry_space_group_name_H-M    'P1'
_symmetry_Int_Tables_number       1
_symmetry_cell_setting            triclinic
loop_
_symmetry_equiv_pos_as_xyz
  x,y,z
_cell_length_a                    30.1490
_cell_length_b                    30.1490
_cell_length_c                    13.3065
_cell_angle_alpha                 90.0000
_cell_angle_beta                  90.0000
_cell_angle_gamma                 90.0000
loop_
_atom_site_label
_atom_site_type_symbol
_atom_site_fract_x
_atom_site_fract_y
_atom_site_fract_z
_atom_site_U_iso_or_equiv
_atom_site_adp_type
_atom_site_occupancy
C1     C     0.38414   0.71253   0.08466   0.00000  Uiso   1.00
C2     C     0.40056   0.74951   0.15343   0.00000  Uiso   1.00
C3     C     0.43158   0.74485   0.22975   0.00000  Uiso   1.00
C4     C     0.44218   0.78268   0.28419   0.00000  Uiso   1.00
C5     C     0.47067   0.83386   0.39423   0.00000  Uiso   1.00
C6     C     0.33382   0.71160   0.09618   0.00000  Uiso   1.00
C7     C     0.30873   0.67507   0.12436   0.00000  Uiso   1.00
C8     C     0.26314   0.68099   0.13059   0.00000  Uiso   1.00
C9     C     0.18801   0.67330   0.15168   0.00000  Uiso   1.00
C10    C     0.39311   0.72821   0.97762   0.00000  Uiso   1.00
C11    C     0.41787   0.70563   0.90610   0.00000  Uiso   1.00
C12    C     0.42219   0.72552   0.81250   0.00000  Uiso   1.00
C13    C     0.43913   0.74361   0.64951   0.00000  Uiso   1.00
C14    C     0.34779   0.78800   0.04562   0.00000  Uiso   1.00
C15    C     0.38082   0.79050   0.13222   0.00000  Uiso   1.00
C16    C     0.39137   0.82835   0.18656   0.00000  Uiso   1.00
C17    C     0.42241   0.82375   0.26295   0.00000  Uiso   1.00
C18    C     0.31408   0.75259   0.07498   0.00000  Uiso   1.00
C19    C     0.26852   0.75857   0.08116   0.00000  Uiso   1.00
C20    C     0.24336   0.72205   0.10935   0.00000  Uiso   1.00
C21    C     0.37337   0.76920   0.95641   0.00000  Uiso   1.00
C22    C     0.37766   0.78913   0.86290   0.00000  Uiso   1.00
C23    C     0.40241   0.76659   0.79125   0.00000  Uiso   1.00
H24    H     0.39950   0.68062   0.10117   0.00000  Uiso   1.00
H25    H     0.44685   0.71312   0.24615   0.00000  Uiso   1.00
H26    H     0.32401   0.64335   0.14076   0.00000  Uiso   1.00
H27    H     0.43314   0.67391   0.92254   0.00000  Uiso   1.00
H28    H     0.49063   0.76723   0.39755   0.00000  Uiso   1.00
H29    H     0.23162   0.62011   0.17530   0.00000  Uiso   1.00
H30    H     0.46172   0.68454   0.71513   0.00000  Uiso   1.00
H31    H     0.33242   0.81992   0.02910   0.00000  Uiso   1.00
H32    H     0.37609   0.86007   0.17013   0.00000  Uiso   1.00
H33    H     0.25325   0.79029   0.06474   0.00000  Uiso   1.00
H34    H     0.36238   0.82085   0.84652   0.00000  Uiso   1.00
H35    H     0.43320   0.88650   0.33586   0.00000  Uiso   1.00
H36    H     0.17418   0.73937   0.11360   0.00000  Uiso   1.00
H37    H     0.40429   0.80381   0.65343   0.00000  Uiso   1.00
O38    O     0.49184   0.85076   0.46080   0.00000  Uiso   1.00
O39    O     0.15203   0.65773   0.16919   0.00000  Uiso   1.00
O40    O     0.45392   0.74227   0.56546   0.00000  Uiso   1.00
N41    N     0.47113   0.78979   0.36367   0.00000  Uiso   1.00
N42    N     0.22897   0.65224   0.15589   0.00000  Uiso   1.00
N43    N     0.44409   0.71248   0.72566   0.00000  Uiso   1.00
N44    N     0.44022   0.85397   0.33047   0.00000  Uiso   1.00
N45    N     0.19806   0.71642   0.12269   0.00000  Uiso   1.00
N46    N     0.41318   0.77665   0.69246   0.00000  Uiso   1.00
C47    C     0.88414   0.21253   0.58466   0.00000  Uiso   1.00
C48    C     0.90056   0.24951   0.65343   0.00000  Uiso   1.00
C49    C     0.93158   0.24485   0.72975   0.00000  Uiso   1.00
C50    C     0.94218   0.28268   0.78419   0.00000  Uiso   1.00
C51    C     0.97067   0.33386   0.89423   0.00000  Uiso   1.00
C52    C     0.83382   0.21160   0.59618   0.00000  Uiso   1.00
C53    C     0.80873   0.17507   0.62436   0.00000  Uiso   1.00
C54    C     0.76314   0.18099   0.63059   0.00000  Uiso   1.00
C55    C     0.68801   0.17330   0.65168   0.00000  Uiso   1.00
C56    C     0.89311   0.22821   0.47762   0.00000  Uiso   1.00
C57    C     0.91787   0.20563   0.40610   0.00000  Uiso   1.00
C58    C     0.92219   0.22552   0.31250   0.00000  Uiso   1.00
C59    C     0.93913   0.24361   0.14951   0.00000  Uiso   1.00
C60    C     0.84779   0.28800   0.54562   0.00000  Uiso   1.00
C61    C     0.88082   0.29050   0.63222   0.00000  Uiso   1.00
C62    C     0.89137   0.32835   0.68656   0.00000  Uiso   1.00
C63    C     0.92241   0.32375   0.76295   0.00000  Uiso   1.00
C64    C     0.81408   0.25259   0.57498   0.00000  Uiso   1.00
C65    C     0.76852   0.25857   0.58116   0.00000  Uiso   1.00
C66    C     0.74336   0.22205   0.60935   0.00000  Uiso   1.00
C67    C     0.87337   0.26920   0.45641   0.00000  Uiso   1.00
C68    C     0.87766   0.28913   0.36290   0.00000  Uiso   1.00
C69    C     0.90241   0.26659   0.29125   0.00000  Uiso   1.00
H70    H     0.89950   0.18062   0.60117   0.00000  Uiso   1.00
H71    H     0.94685   0.21312   0.74615   0.00000  Uiso   1.00
H72    H     0.82401   0.14335   0.64076   0.00000  Uiso   1.00
H73    H     0.93314   0.17391   0.42254   0.00000  Uiso   1.00
H74    H     0.99063   0.26723   0.89755   0.00000  Uiso   1.00
H75    H     0.73162   0.12011   0.67530   0.00000  Uiso   1.00
H76    H     0.96172   0.18454   0.21513   0.00000  Uiso   1.00
H77    H     0.83242   0.31992   0.52910   0.00000  Uiso   1.00
H78    H     0.87609   0.36007   0.67013   0.00000  Uiso   1.00
H79    H     0.75325   0.29029   0.56474   0.00000  Uiso   1.00
H80    H     0.86238   0.32085   0.34652   0.00000  Uiso   1.00
H81    H     0.93320   0.38650   0.83586   0.00000  Uiso   1.00
H82    H     0.67418   0.23937   0.61360   0.00000  Uiso   1.00
H83    H     0.90429   0.30381   0.15343   0.00000  Uiso   1.00
O84    O     0.99184   0.35076   0.96080   0.00000  Uiso   1.00
O85    O     0.65203   0.15773   0.66919   0.00000  Uiso   1.00
O86    O     0.95392   0.24227   0.06546   0.00000  Uiso   1.00
N87    N     0.97113   0.28979   0.86367   0.00000  Uiso   1.00
N88    N     0.72897   0.15224   0.65589   0.00000  Uiso   1.00
N89    N     0.94409   0.21248   0.22566   0.00000  Uiso   1.00
N90    N     0.94022   0.35397   0.83047   0.00000  Uiso   1.00
N91    N     0.69806   0.21642   0.62269   0.00000  Uiso   1.00
N92    N     0.91318   0.27665   0.19246   0.00000  Uiso   1.00
C93    C     0.11586   0.78747   0.58466   0.00000  Uiso   1.00
C94    C     0.09944   0.75049   0.65343   0.00000  Uiso   1.00
C95    C     0.06842   0.75515   0.72975   0.00000  Uiso   1.00
C96    C     0.05782   0.71732   0.78419   0.00000  Uiso   1.00
C97    C     0.02933   0.66614   0.89423   0.00000  Uiso   1.00
C98    C     0.16618   0.78840   0.59618   0.00000  Uiso   1.00
C99    C     0.19127   0.82493   0.62436   0.00000  Uiso   1.00
C100   C     0.23686   0.81901   0.63059   0.00000  Uiso   1.00
C101   C     0.31199   0.82670   0.65168   0.00000  Uiso   1.00
C102   C     0.10689   0.77179   0.47762   0.00000  Uiso   1.00
C103   C     0.08213   0.79437   0.40610   0.00000  Uiso   1.00
C104   C     0.07781   0.77448   0.31250   0.00000  Uiso   1.00
C105   C     0.06087   0.75639   0.14951   0.00000  Uiso   1.00
C106   C     0.15221   0.71200   0.54562   0.00000  Uiso   1.00
C107   C     0.11918   0.70950   0.63222   0.00000  Uiso   1.00
C108   C     0.10863   0.67165   0.68656   0.00000  Uiso   1.00
C109   C     0.07759   0.67625   0.76295   0.00000  Uiso   1.00
C110   C     0.18592   0.74741   0.57498   0.00000  Uiso   1.00
C111   C     0.23148   0.74143   0.58116   0.00000  Uiso   1.00
C112   C     0.25664   0.77795   0.60935   0.00000  Uiso   1.00
C113   C     0.12663   0.73080   0.45641   0.00000  Uiso   1.00
C114   C     0.12234   0.71087   0.36290   0.00000  Uiso   1.00
C115   C     0.09759   0.73341   0.29125   0.00000  Uiso   1.00
H116   H     0.10050   0.81938   0.60117   0.00000  Uiso   1.00
H117   H     0.05315   0.78688   0.74615   0.00000  Uiso   1.00
H118   H     0.17599   0.85665   0.64076   0.00000  Uiso   1.00
H119   H     0.06686   0.82609   0.42254   0.00000  Uiso   1.00
H120   H     0.00937   0.73277   0.89755   0.00000  Uiso   1.00
H121   H     0.26838   0.87989   0.67530   0.00000  Uiso   1.00
H122   H     0.03828   0.81546   0.21513   0.00000  Uiso   1.00
H123   H     0.16758   0.68008   0.52910   0.00000  Uiso   1.00
H124   H     0.12391   0.63993   0.67013   0.00000  Uiso   1.00
H125   H     0.24675   0.70971   0.56474   0.00000  Uiso   1.00
H126   H     0.13762   0.67915   0.34652   0.00000  Uiso   1.00
H127   H     0.06680   0.61350   0.83586   0.00000  Uiso   1.00
H128   H     0.32582   0.76063   0.61360   0.00000  Uiso   1.00
H129   H     0.09571   0.69619   0.15343   0.00000  Uiso   1.00
O130   O     0.00816   0.64924   0.96080   0.00000  Uiso   1.00
O131   O     0.34797   0.84227   0.66919   0.00000  Uiso   1.00
O132   O     0.04608   0.75773   0.06546   0.00000  Uiso   1.00
N133   N     0.02887   0.71021   0.86367   0.00000  Uiso   1.00
N134   N     0.27103   0.84776   0.65589   0.00000  Uiso   1.00
N135   N     0.05591   0.78752   0.22566   0.00000  Uiso   1.00
N136   N     0.05978   0.64603   0.83047   0.00000  Uiso   1.00
N137   N     0.30194   0.78358   0.62269   0.00000  Uiso   1.00
N138   N     0.08682   0.72335   0.19246   0.00000  Uiso   1.00
C139   C     0.61586   0.28747   0.08466   0.00000  Uiso   1.00
C140   C     0.59944   0.25049   0.15343   0.00000  Uiso   1.00
C141   C     0.56842   0.25515   0.22975   0.00000  Uiso   1.00
C142   C     0.55782   0.21732   0.28419   0.00000  Uiso   1.00
C143   C     0.52933   0.16614   0.39423   0.00000  Uiso   1.00
C144   C     0.66618   0.28840   0.09618   0.00000  Uiso   1.00
C145   C     0.69127   0.32493   0.12436   0.00000  Uiso   1.00
C146   C     0.73686   0.31901   0.13059   0.00000  Uiso   1.00
C147   C     0.81199   0.32670   0.15168   0.00000  Uiso   1.00
C148   C     0.60689   0.27179   0.97762   0.00000  Uiso   1.00
C149   C     0.58213   0.29437   0.90610   0.00000  Uiso   1.00
C150   C     0.57781   0.27448   0.81250   0.00000  Uiso   1.00
C151   C     0.56087   0.25639   0.64951   0.00000  Uiso   1.00
C152   C     0.65221   0.21200   0.04562   0.00000  Uiso   1.00
C153   C     0.61918   0.20950   0.13222   0.00000  Uiso   1.00
C154   C     0.60863   0.17165   0.18656   0.00000  Uiso   1.00
C155   C     0.57759   0.17625   0.26295   0.00000  Uiso   1.00
C156   C     0.68592   0.24741   0.07498   0.00000  Uiso   1.00
C157   C     0.73148   0.24143   0.08116   0.00000  Uiso   1.00
C158   C     0.75664   0.27795   0.10935   0.00000  Uiso   1.00
C159   C     0.62663   0.23080   0.95641   0.00000  Uiso   1.00
C160   C     0.62234   0.21087   0.86290   0.00000  Uiso   1.00
C161   C     0.59759   0.23341   0.79125   0.00000  Uiso   1.00
H162   H     0.60050   0.31938   0.10117   0.00000  Uiso   1.00
H163   H     0.55315   0.28688   0.24615   0.00000  Uiso   1.00
H164   H     0.67599   0.35665   0.14076   0.00000  Uiso   1.00
H165   H     0.56686   0.32609   0.92254   0.00000  Uiso   1.00
H166   H     0.50937   0.23277   0.39755   0.00000  Uiso   1.00
H167   H     0.76838   0.37989   0.17530   0.00000  Uiso   1.00
H168   H     0.53828   0.31546   0.71513   0.00000  Uiso   1.00
H169   H     0.66758   0.18008   0.02910   0.00000  Uiso   1.00
H170   H     0.62391   0.13993   0.17013   0.00000  Uiso   1.00
H171   H     0.74675   0.20971   0.06474   0.00000  Uiso   1.00
H172   H     0.63762   0.17915   0.84652   0.00000  Uiso   1.00
H173   H     0.56680   0.11350   0.33586   0.00000  Uiso   1.00
H174   H     0.82582   0.26063   0.11360   0.00000  Uiso   1.00
H175   H     0.59571   0.19619   0.65343   0.00000  Uiso   1.00
O176   O     0.50816   0.14924   0.46080   0.00000  Uiso   1.00
O177   O     0.84797   0.34227   0.16919   0.00000  Uiso   1.00
O178   O     0.54608   0.25773   0.56546   0.00000  Uiso   1.00
N179   N     0.52887   0.21021   0.36367   0.00000  Uiso   1.00
N180   N     0.77103   0.34776   0.15589   0.00000  Uiso   1.00
N181   N     0.55591   0.28752   0.72566   0.00000  Uiso   1.00
N182   N     0.55978   0.14603   0.33047   0.00000  Uiso   1.00
N183   N     0.80194   0.28358   0.12269   0.00000  Uiso   1.00
N184   N     0.58682   0.22335   0.69246   0.00000  Uiso   1.00
C185   C     0.28747   0.88414   0.33466   0.00000  Uiso   1.00
C186   C     0.25049   0.90056   0.40343   0.00000  Uiso   1.00
C187   C     0.25515   0.93158   0.47975   0.00000  Uiso   1.00
C188   C     0.21732   0.94218   0.53419   0.00000  Uiso   1.00
C189   C     0.16614   0.97067   0.64423   0.00000  Uiso   1.00
C190   C     0.28840   0.83382   0.34618   0.00000  Uiso   1.00
C191   C     0.32493   0.80873   0.37436   0.00000  Uiso   1.00
C192   C     0.31901   0.76314   0.38059   0.00000  Uiso   1.00
C193   C     0.32670   0.68801   0.40168   0.00000  Uiso   1.00
C194   C     0.27179   0.89311   0.22762   0.00000  Uiso   1.00
C195   C     0.29437   0.91787   0.15610   0.00000  Uiso   1.00
C196   C     0.27448   0.92219   0.06250   0.00000  Uiso   1.00
C197   C     0.25639   0.93913   0.89951   0.00000  Uiso   1.00
C198   C     0.21200   0.84779   0.29562   0.00000  Uiso   1.00
C199   C     0.20950   0.88082   0.38222   0.00000  Uiso   1.00
C200   C     0.17165   0.89137   0.43656   0.00000  Uiso   1.00
C201   C     0.17625   0.92241   0.51295   0.00000  Uiso   1.00
C202   C     0.24741   0.81408   0.32498   0.00000  Uiso   1.00
C203   C     0.24143   0.76852   0.33116   0.00000  Uiso   1.00
C204   C     0.27795   0.74336   0.35935   0.00000  Uiso   1.00
C205   C     0.23080   0.87337   0.20641   0.00000  Uiso   1.00
C206   C     0.21087   0.87766   0.11290   0.00000  Uiso   1.00
C207   C     0.23341   0.90241   0.04125   0.00000  Uiso   1.00
H208   H     0.31938   0.89950   0.35117   0.00000  Uiso   1.00
H209   H     0.28688   0.94685   0.49615   0.00000  Uiso   1.00
H210   H     0.35665   0.82401   0.39076   0.00000  Uiso   1.00
H211   H     0.32609   0.93314   0.17254   0.00000  Uiso   1.00
H212   H     0.23277   0.99063   0.64755   0.00000  Uiso   1.00
H213   H     0.37989   0.73162   0.42530   0.00000  Uiso   1.00
H214   H     0.31546   0.96172   0.96513   0.00000  Uiso   1.00
H215   H     0.18008   0.83242   0.27910   0.00000  Uiso   1.00
H216   H     0.13993   0.87609   0.42013   0.00000  Uiso   1.00
H217   H     0.20971   0.75325   0.31474   0.00000  Uiso   1.00
H218   H     0.17915   0.86238   0.09652   0.00000  Uiso   1.00
H219   H     0.11350   0.93320   0.58586   0.00000  Uiso   1.00
H220   H     0.26063   0.67418   0.36360   0.00000  Uiso   1.00
H221   H     0.19619   0.90429   0.90343   0.00000  Uiso   1.00
O222   O     0.14924   0.99184   0.71080   0.00000  Uiso   1.00
O223   O     0.34227   0.65203   0.41919   0.00000  Uiso   1.00
O224   O     0.25773   0.95392   0.81546   0.00000  Uiso   1.00
N225   N     0.21021   0.97113   0.61367   0.00000  Uiso   1.00
N226   N     0.34776   0.72897   0.40589   0.00000  Uiso   1.00
N227   N     0.28752   0.94409   0.97566   0.00000  Uiso   1.00
N228   N     0.14603   0.94022   0.58047   0.00000  Uiso   1.00
N229   N     0.28358   0.69806   0.37269   0.00000  Uiso   1.00
N230   N     0.22335   0.91318   0.94246   0.00000  Uiso   1.00
C231   C     0.78747   0.38414   0.83466   0.00000  Uiso   1.00
C232   C     0.75049   0.40056   0.90343   0.00000  Uiso   1.00
C233   C     0.75515   0.43158   0.97975   0.00000  Uiso   1.00
C234   C     0.71732   0.44218   0.03419   0.00000  Uiso   1.00
C235   C     0.66614   0.47067   0.14423   0.00000  Uiso   1.00
C236   C     0.78840   0.33382   0.84618   0.00000  Uiso   1.00
C237   C     0.82493   0.30873   0.87436   0.00000  Uiso   1.00
C238   C     0.81901   0.26314   0.88059   0.00000  Uiso   1.00
C239   C     0.82670   0.18801   0.90168   0.00000  Uiso   1.00
C240   C     0.77179   0.39311   0.72762   0.00000  Uiso   1.00
C241   C     0.79437   0.41787   0.65610   0.00000  Uiso   1.00
C242   C     0.77448   0.42219   0.56250   0.00000  Uiso   1.00
C243   C     0.75639   0.43913   0.39951   0.00000  Uiso   1.00
C244   C     0.71200   0.34779   0.79562   0.00000  Uiso   1.00
C245   C     0.70950   0.38082   0.88222   0.00000  Uiso   1.00
C246   C     0.67165   0.39137   0.93656   0.00000  Uiso   1.00
C247   C     0.67625   0.42241   0.01295   0.00000  Uiso   1.00
C248   C     0.74741   0.31408   0.82498   0.00000  Uiso   1.00
C249   C     0.74143   0.26852   0.83116   0.00000  Uiso   1.00
C250   C     0.77795   0.24336   0.85935   0.00000  Uiso   1.00
C251   C     0.73080   0.37337   0.70641   0.00000  Uiso   1.00
C252   C     0.71087   0.37766   0.61290   0.00000  Uiso   1.00
C253   C     0.73341   0.40241   0.54125   0.00000  Uiso   1.00
H254   H     0.81938   0.39950   0.85117   0.00000  Uiso   1.00
H255   H     0.78688   0.44685   0.99615   0.00000  Uiso   1.00
H256   H     0.85665   0.32401   0.89076   0.00000  Uiso   1.00
H257   H     0.82609   0.43314   0.67254   0.00000  Uiso   1.00
H258   H     0.73277   0.49063   0.14755   0.00000  Uiso   1.00
H259   H     0.87989   0.23162   0.92530   0.00000  Uiso   1.00
H260   H     0.81546   0.46172   0.46513   0.00000  Uiso   1.00
H261   H     0.68008   0.33242   0.77910   0.00000  Uiso   1.00
H262   H     0.63993   0.37609   0.92013   0.00000  Uiso   1.00
H263   H     0.70971   0.25325   0.81474   0.00000  Uiso   1.00
H264   H     0.67915   0.36238   0.59652   0.00000  Uiso   1.00
H265   H     0.61350   0.43320   0.08586   0.00000  Uiso   1.00
H266   H     0.76063   0.17418   0.86360   0.00000  Uiso   1.00
H267   H     0.69619   0.40429   0.40343   0.00000  Uiso   1.00
O268   O     0.64924   0.49184   0.21080   0.00000  Uiso   1.00
O269   O     0.84227   0.15203   0.91919   0.00000  Uiso   1.00
O270   O     0.75773   0.45392   0.31546   0.00000  Uiso   1.00
N271   N     0.71021   0.47113   0.11367   0.00000  Uiso   1.00
N272   N     0.84776   0.22897   0.90589   0.00000  Uiso   1.00
N273   N     0.78752   0.44409   0.47566   0.00000  Uiso   1.00
N274   N     0.64603   0.44022   0.08047   0.00000  Uiso   1.00
N275   N     0.78358   0.19806   0.87269   0.00000  Uiso   1.00
N276   N     0.72335   0.41318   0.44246   0.00000  Uiso   1.00
C277   C     0.21253   0.61586   0.83466   0.00000  Uiso   1.00
C278   C     0.24951   0.59944   0.90343   0.00000  Uiso   1.00
C279   C     0.24485   0.56842   0.97975   0.00000  Uiso   1.00
C280   C     0.28268   0.55782   0.03419   0.00000  Uiso   1.00
C281   C     0.33386   0.52933   0.14423   0.00000  Uiso   1.00
C282   C     0.21160   0.66618   0.84618   0.00000  Uiso   1.00
C283   C     0.17507   0.69127   0.87436   0.00000  Uiso   1.00
C284   C     0.18099   0.73686   0.88059   0.00000  Uiso   1.00
C285   C     0.17330   0.81199   0.90168   0.00000  Uiso   1.00
C286   C     0.22821   0.60689   0.72762   0.00000  Uiso   1.00
C287   C     0.20563   0.58213   0.65610   0.00000  Uiso   1.00
C288   C     0.22552   0.57781   0.56250   0.00000  Uiso   1.00
C289   C     0.24361   0.56087   0.39951   0.00000  Uiso   1.00
C290   C     0.28800   0.65221   0.79562   0.00000  Uiso   1.00
C291   C     0.29050   0.61918   0.88222   0.00000  Uiso   1.00
C292   C     0.32835   0.60863   0.93656   0.00000  Uiso   1.00
C293   C     0.32375   0.57759   0.01295   0.00000  Uiso   1.00
C294   C     0.25259   0.68592   0.82498   0.00000  Uiso   1.00
C295   C     0.25857   0.73148   0.83116   0.00000  Uiso   1.00
C296   C     0.22205   0.75664   0.85935   0.00000  Uiso   1.00
C297   C     0.26920   0.62663   0.70641   0.00000  Uiso   1.00
C298   C     0.28913   0.62234   0.61290   0.00000  Uiso   1.00
C299   C     0.26659   0.59759   0.54125   0.00000  Uiso   1.00
H300   H     0.18062   0.60050   0.85117   0.00000  Uiso   1.00
H301   H     0.21312   0.55315   0.99615   0.00000  Uiso   1.00
H302   H     0.14335   0.67599   0.89076   0.00000  Uiso   1.00
H303   H     0.17391   0.56686   0.67254   0.00000  Uiso   1.00
H304   H     0.26723   0.50937   0.14755   0.00000  Uiso   1.00
H305   H     0.12011   0.76838   0.92530   0.00000  Uiso   1.00
H306   H     0.18454   0.53828   0.46513   0.00000  Uiso   1.00
H307   H     0.31992   0.66758   0.77910   0.00000  Uiso   1.00
H308   H     0.36007   0.62391   0.92013   0.00000  Uiso   1.00
H309   H     0.29029   0.74675   0.81474   0.00000  Uiso   1.00
H310   H     0.32085   0.63762   0.59652   0.00000  Uiso   1.00
H311   H     0.38650   0.56680   0.08586   0.00000  Uiso   1.00
H312   H     0.23937   0.82582   0.86360   0.00000  Uiso   1.00
H313   H     0.30381   0.59571   0.40343   0.00000  Uiso   1.00
O314   O     0.35076   0.50816   0.21080   0.00000  Uiso   1.00
O315   O     0.15773   0.84797   0.91919   0.00000  Uiso   1.00
O316   O     0.24227   0.54608   0.31546   0.00000  Uiso   1.00
N317   N     0.28979   0.52887   0.11367   0.00000  Uiso   1.00
N318   N     0.15224   0.77103   0.90589   0.00000  Uiso   1.00
N319   N     0.21248   0.55591   0.47566   0.00000  Uiso   1.00
N320   N     0.35397   0.55978   0.08047   0.00000  Uiso   1.00
N321   N     0.21642   0.80194   0.87269   0.00000  Uiso   1.00
N322   N     0.27665   0.58682   0.44246   0.00000  Uiso   1.00
C323   C     0.71253   0.11586   0.33466   0.00000  Uiso   1.00
C324   C     0.74951   0.09944   0.40343   0.00000  Uiso   1.00
C325   C     0.74485   0.06842   0.47975   0.00000  Uiso   1.00
C326   C     0.78268   0.05782   0.53419   0.00000  Uiso   1.00
C327   C     0.83386   0.02933   0.64423   0.00000  Uiso   1.00
C328   C     0.71160   0.16618   0.34618   0.00000  Uiso   1.00
C329   C     0.67507   0.19127   0.37436   0.00000  Uiso   1.00
C330   C     0.68099   0.23686   0.38059   0.00000  Uiso   1.00
C331   C     0.67330   0.31199   0.40168   0.00000  Uiso   1.00
C332   C     0.72821   0.10689   0.22762   0.00000  Uiso   1.00
C333   C     0.70563   0.08213   0.15610   0.00000  Uiso   1.00
C334   C     0.72552   0.07781   0.06250   0.00000  Uiso   1.00
C335   C     0.74361   0.06087   0.89951   0.00000  Uiso   1.00
C336   C     0.78800   0.15221   0.29562   0.00000  Uiso   1.00
C337   C     0.79050   0.11918   0.38222   0.00000  Uiso   1.00
C338   C     0.82835   0.10863   0.43656   0.00000  Uiso   1.00
C339   C     0.82375   0.07759   0.51295   0.00000  Uiso   1.00
C340   C     0.75259   0.18592   0.32498   0.00000  Uiso   1.00
C341   C     0.75857   0.23148   0.33116   0.00000  Uiso   1.00
C342   C     0.72205   0.25664   0.35935   0.00000  Uiso   1.00
C343   C     0.76920   0.12663   0.20641   0.00000  Uiso   1.00
C344   C     0.78913   0.12234   0.11290   0.00000  Uiso   1.00
C345   C     0.76659   0.09759   0.04125   0.00000  Uiso   1.00
H346   H     0.68062   0.10050   0.35117   0.00000  Uiso   1.00
H347   H     0.71312   0.05315   0.49615   0.00000  Uiso   1.00
H348   H     0.64335   0.17599   0.39076   0.00000  Uiso   1.00
H349   H     0.67391   0.06686   0.17254   0.00000  Uiso   1.00
H350   H     0.76723   0.00937   0.64755   0.00000  Uiso   1.00
H351   H     0.62011   0.26838   0.42530   0.00000  Uiso   1.00
H352   H     0.68454   0.03828   0.96513   0.00000  Uiso   1.00
H353   H     0.81992   0.16758   0.27910   0.00000  Uiso   1.00
H354   H     0.86007   0.12391   0.42013   0.00000  Uiso   1.00
H355   H     0.79029   0.24675   0.31474   0.00000  Uiso   1.00
H356   H     0.82085   0.13762   0.09652   0.00000  Uiso   1.00
H357   H     0.88650   0.06680   0.58586   0.00000  Uiso   1.00
H358   H     0.73937   0.32582   0.36360   0.00000  Uiso   1.00
H359   H     0.80381   0.09571   0.90343   0.00000  Uiso   1.00
O360   O     0.85076   0.00816   0.71080   0.00000  Uiso   1.00
O361   O     0.65773   0.34797   0.41919   0.00000  Uiso   1.00
O362   O     0.74227   0.04608   0.81546   0.00000  Uiso   1.00
N363   N     0.78979   0.02887   0.61367   0.00000  Uiso   1.00
N364   N     0.65224   0.27103   0.40589   0.00000  Uiso   1.00
N365   N     0.71248   0.05591   0.97566   0.00000  Uiso   1.00
N366   N     0.85397   0.05978   0.58047   0.00000  Uiso   1.00
N367   N     0.71642   0.30194   0.37269   0.00000  Uiso   1.00
N368   N     0.77665   0.08682   0.94246   0.00000  Uiso   1.00
C369   C     0.61586   0.78747   0.16534   0.00000  Uiso   1.00
C370   C     0.59944   0.75049   0.09657   0.00000  Uiso   1.00
C371   C     0.56842   0.75515   0.02025   0.00000  Uiso   1.00
C372   C     0.55782   0.71732   0.96581   0.00000  Uiso   1.00
C373   C     0.52933   0.66614   0.85577   0.00000  Uiso   1.00
C374   C     0.66618   0.78840   0.15382   0.00000  Uiso   1.00
C375   C     0.69127   0.82493   0.12564   0.00000  Uiso   1.00
C376   C     0.73686   0.81901   0.11941   0.00000  Uiso   1.00
C377   C     0.81199   0.82670   0.09832   0.00000  Uiso   1.00
C378   C     0.60689   0.77179   0.27238   0.00000  Uiso   1.00
C379   C     0.58213   0.79437   0.34390   0.00000  Uiso   1.00
C380   C     0.57781   0.77448   0.43750   0.00000  Uiso   1.00
C381   C     0.56087   0.75639   0.60049   0.00000  Uiso   1.00
C382   C     0.65221   0.71200   0.20438   0.00000  Uiso   1.00
C383   C     0.61918   0.70950   0.11778   0.00000  Uiso   1.00
C384   C     0.60863   0.67165   0.06344   0.00000  Uiso   1.00
C385   C     0.57759   0.67625   0.98705   0.00000  Uiso   1.00
C386   C     0.68592   0.74741   0.17502   0.00000  Uiso   1.00
C387   C     0.73148   0.74143   0.16884   0.00000  Uiso   1.00
C388   C     0.75664   0.77795   0.14065   0.00000  Uiso   1.00
C389   C     0.62663   0.73080   0.29359   0.00000  Uiso   1.00
C390   C     0.62234   0.71087   0.38710   0.00000  Uiso   1.00
C391   C     0.59759   0.73341   0.45875   0.00000  Uiso   1.00
H392   H     0.60050   0.81938   0.14883   0.00000  Uiso   1.00
H393   H     0.55315   0.78688   0.00385   0.00000  Uiso   1.00
H394   H     0.67599   0.85665   0.10924   0.00000  Uiso   1.00
H395   H     0.56686   0.82609   0.32746   0.00000  Uiso   1.00
H396   H     0.50937   0.73277   0.85245   0.00000  Uiso   1.00
H397   H     0.76838   0.87989   0.07470   0.00000  Uiso   1.00
H398   H     0.53828   0.81546   0.53487   0.00000  Uiso   1.00
H399   H     0.66758   0.68008   0.22090   0.00000  Uiso   1.00
H400   H     0.62391   0.63993   0.07987   0.00000  Uiso   1.00
H401   H     0.74675   0.70971   0.18526   0.00000  Uiso   1.00
H402   H     0.63762   0.67915   0.40348   0.00000  Uiso   1.00
H403   H     0.56680   0.61350   0.91414   0.00000  Uiso   1.00
H404   H     0.82582   0.76063   0.13640   0.00000  Uiso   1.00
H405   H     0.59571   0.69619   0.59657   0.00000  Uiso   1.00
O406   O     0.50816   0.64924   0.78920   0.00000  Uiso   1.00
O407   O     0.84797   0.84227   0.08081   0.00000  Uiso   1.00
O408   O     0.54608   0.75773   0.68454   0.00000  Uiso   1.00
N409   N     0.52887   0.71021   0.88633   0.00000  Uiso   1.00
N410   N     0.77103   0.84776   0.09411   0.00000  Uiso   1.00
N411   N     0.55591   0.78752   0.52434   0.00000  Uiso   1.00
N412   N     0.55978   0.64603   0.91953   0.00000  Uiso   1.00
N413   N     0.80194   0.78358   0.12731   0.00000  Uiso   1.00
N414   N     0.58682   0.72335   0.55754   0.00000  Uiso   1.00
C415   C     0.11586   0.28747   0.66534   0.00000  Uiso   1.00
C416   C     0.09944   0.25049   0.59657   0.00000  Uiso   1.00
C417   C     0.06842   0.25515   0.52025   0.00000  Uiso   1.00
C418   C     0.05782   0.21732   0.46581   0.00000  Uiso   1.00
C419   C     0.02933   0.16614   0.35577   0.00000  Uiso   1.00
C420   C     0.16618   0.28840   0.65382   0.00000  Uiso   1.00
C421   C     0.19127   0.32493   0.62564   0.00000  Uiso   1.00
C422   C     0.23686   0.31901   0.61941   0.00000  Uiso   1.00
C423   C     0.31199   0.32670   0.59832   0.00000  Uiso   1.00
C424   C     0.10689   0.27179   0.77238   0.00000  Uiso   1.00
C425   C     0.08213   0.29437   0.84390   0.00000  Uiso   1.00
C426   C     0.07781   0.27448   0.93750   0.00000  Uiso   1.00
C427   C     0.06087   0.25639   0.10049   0.00000  Uiso   1.00
C428   C     0.15221   0.21200   0.70438   0.00000  Uiso   1.00
C429   C     0.11918   0.20950   0.61778   0.00000  Uiso   1.00
C430   C     0.10863   0.17165   0.56344   0.00000  Uiso   1.00
C431   C     0.07759   0.17625   0.48705   0.00000  Uiso   1.00
C432   C     0.18592   0.24741   0.67502   0.00000  Uiso   1.00
C433   C     0.23148   0.24143   0.66884   0.00000  Uiso   1.00
C434   C     0.25664   0.27795   0.64065   0.00000  Uiso   1.00
C435   C     0.12663   0.23080   0.79359   0.00000  Uiso   1.00
C436   C     0.12234   0.21087   0.88710   0.00000  Uiso   1.00
C437   C     0.09759   0.23341   0.95875   0.00000  Uiso   1.00
H438   H     0.10050   0.31938   0.64883   0.00000  Uiso   1.00
H439   H     0.05315   0.28688   0.50385   0.00000  Uiso   1.00
H440   H     0.17599   0.35665   0.60924   0.00000  Uiso   1.00
H441   H     0.06686   0.32609   0.82746   0.00000  Uiso   1.00
H442   H     0.00937   0.23277   0.35245   0.00000  Uiso   1.00
H443   H     0.26838   0.37989   0.57470   0.00000  Uiso   1.00
H444   H     0.03828   0.31546   0.03487   0.00000  Uiso   1.00
H445   H     0.16758   0.18008   0.72090   0.00000  Uiso   1.00
H446   H     0.12391   0.13993   0.57987   0.00000  Uiso   1.00
H447   H     0.24675   0.20971   0.68526   0.00000  Uiso   1.00
H448   H     0.13762   0.17915   0.90348   0.00000  Uiso   1.00
H449   H     0.06680   0.11350   0.41414   0.00000  Uiso   1.00
H450   H     0.32582   0.26063   0.63640   0.00000  Uiso   1.00
H451   H     0.09571   0.19619   0.09657   0.00000  Uiso   1.00
O452   O     0.00816   0.14924   0.28920   0.00000  Uiso   1.00
O453   O     0.34797   0.34227   0.58081   0.00000  Uiso   1.00
O454   O     0.04608   0.25773   0.18454   0.00000  Uiso   1.00
N455   N     0.02887   0.21021   0.38633   0.00000  Uiso   1.00
N456   N     0.27103   0.34776   0.59411   0.00000  Uiso   1.00
N457   N     0.05591   0.28752   0.02434   0.00000  Uiso   1.00
N458   N     0.05978   0.14603   0.41953   0.00000  Uiso   1.00
N459   N     0.30194   0.28358   0.62731   0.00000  Uiso   1.00
N460   N     0.08682   0.22335   0.05754   0.00000  Uiso   1.00
C461   C     0.88414   0.71253   0.66534   0.00000  Uiso   1.00
C462   C     0.90056   0.74951   0.59657   0.00000  Uiso   1.00
C463   C     0.93158   0.74485   0.52025   0.00000  Uiso   1.00
C464   C     0.94218   0.78268   0.46581   0.00000  Uiso   1.00
C465   C     0.97067   0.83386   0.35577   0.00000  Uiso   1.00
C466   C     0.83382   0.71160   0.65382   0.00000  Uiso   1.00
C467   C     0.80873   0.67507   0.62564   0.00000  Uiso   1.00
C468   C     0.76314   0.68099   0.61941   0.00000  Uiso   1.00
C469   C     0.68801   0.67330   0.59832   0.00000  Uiso   1.00
C470   C     0.89311   0.72821   0.77238   0.00000  Uiso   1.00
C471   C     0.91787   0.70563   0.84390   0.00000  Uiso   1.00
C472   C     0.92219   0.72552   0.93750   0.00000  Uiso   1.00
C473   C     0.93913   0.74361   0.10049   0.00000  Uiso   1.00
C474   C     0.84779   0.78800   0.70438   0.00000  Uiso   1.00
C475   C     0.88082   0.79050   0.61778   0.00000  Uiso   1.00
C476   C     0.89137   0.82835   0.56344   0.00000  Uiso   1.00
C477   C     0.92241   0.82375   0.48705   0.00000  Uiso   1.00
C478   C     0.81408   0.75259   0.67502   0.00000  Uiso   1.00
C479   C     0.76852   0.75857   0.66884   0.00000  Uiso   1.00
C480   C     0.74336   0.72205   0.64065   0.00000  Uiso   1.00
C481   C     0.87337   0.76920   0.79359   0.00000  Uiso   1.00
C482   C     0.87766   0.78913   0.88710   0.00000  Uiso   1.00
C483   C     0.90241   0.76659   0.95875   0.00000  Uiso   1.00
H484   H     0.89950   0.68062   0.64883   0.00000  Uiso   1.00
H485   H     0.94685   0.71312   0.50385   0.00000  Uiso   1.00
H486   H     0.82401   0.64335   0.60924   0.00000  Uiso   1.00
H487   H     0.93314   0.67391   0.82746   0.00000  Uiso   1.00
H488   H     0.99063   0.76723   0.35245   0.00000  Uiso   1.00
H489   H     0.73162   0.62011   0.57470   0.00000  Uiso   1.00
H490   H     0.96172   0.68454   0.03487   0.00000  Uiso   1.00
H491   H     0.83242   0.81992   0.72090   0.00000  Uiso   1.00
H492   H     0.87609   0.86007   0.57987   0.00000  Uiso   1.00
H493   H     0.75325   0.79029   0.68526   0.00000  Uiso   1.00
H494   H     0.86238   0.82085   0.90348   0.00000  Uiso   1.00
H495   H     0.93320   0.88650   0.41414   0.00000  Uiso   1.00
H496   H     0.67418   0.73937   0.63640   0.00000  Uiso   1.00
H497   H     0.90429   0.80381   0.09657   0.00000  Uiso   1.00
O498   O     0.99184   0.85076   0.28920   0.00000  Uiso   1.00
O499   O     0.65203   0.65773   0.58081   0.00000  Uiso   1.00
O500   O     0.95392   0.74227   0.18454   0.00000  Uiso   1.00
N501   N     0.97113   0.78979   0.38633   0.00000  Uiso   1.00
N502   N     0.72897   0.65224   0.59411   0.00000  Uiso   1.00
N503   N     0.94409   0.71248   0.02434   0.00000  Uiso   1.00
N504   N     0.94022   0.85397   0.41953   0.00000  Uiso   1.00
N505   N     0.69806   0.71642   0.62731   0.00000  Uiso   1.00
N506   N     0.91318   0.77665   0.05754   0.00000  Uiso   1.00
C507   C     0.38414   0.21253   0.16534   0.00000  Uiso   1.00
C508   C     0.40056   0.24951   0.09657   0.00000  Uiso   1.00
C509   C     0.43158   0.24485   0.02025   0.00000  Uiso   1.00
C510   C     0.44218   0.28268   0.96581   0.00000  Uiso   1.00
C511   C     0.47067   0.33386   0.85577   0.00000  Uiso   1.00
C512   C     0.33382   0.21160   0.15382   0.00000  Uiso   1.00
C513   C     0.30873   0.17507   0.12564   0.00000  Uiso   1.00
C514   C     0.26314   0.18099   0.11941   0.00000  Uiso   1.00
C515   C     0.18801   0.17330   0.09832   0.00000  Uiso   1.00
C516   C     0.39311   0.22821   0.27238   0.00000  Uiso   1.00
C517   C     0.41787   0.20563   0.34390   0.00000  Uiso   1.00
C518   C     0.42219   0.22552   0.43750   0.00000  Uiso   1.00
C519   C     0.43913   0.24361   0.60049   0.00000  Uiso   1.00
C520   C     0.34779   0.28800   0.20438   0.00000  Uiso   1.00
C521   C     0.38082   0.29050   0.11778   0.00000  Uiso   1.00
C522   C     0.39137   0.32835   0.06344   0.00000  Uiso   1.00
C523   C     0.42241   0.32375   0.98705   0.00000  Uiso   1.00
C524   C     0.31408   0.25259   0.17502   0.00000  Uiso   1.00
C525   C     0.26852   0.25857   0.16884   0.00000  Uiso   1.00
C526   C     0.24336   0.22205   0.14065   0.00000  Uiso   1.00
C527   C     0.37337   0.26920   0.29359   0.00000  Uiso   1.00
C528   C     0.37766   0.28913   0.38710   0.00000  Uiso   1.00
C529   C     0.40241   0.26659   0.45875   0.00000  Uiso   1.00
H530   H     0.39950   0.18062   0.14883   0.00000  Uiso   1.00
H531   H     0.44685   0.21312   0.00385   0.00000  Uiso   1.00
H532   H     0.32401   0.14335   0.10924   0.00000  Uiso   1.00
H533   H     0.43314   0.17391   0.32746   0.00000  Uiso   1.00
H534   H     0.49063   0.26723   0.85245   0.00000  Uiso   1.00
H535   H     0.23162   0.12011   0.07470   0.00000  Uiso   1.00
H536   H     0.46172   0.18454   0.53487   0.00000  Uiso   1.00
H537   H     0.33242   0.31992   0.22090   0.00000  Uiso   1.00
H538   H     0.37609   0.36007   0.07987   0.00000  Uiso   1.00
H539   H     0.25325   0.29029   0.18526   0.00000  Uiso   1.00
H540   H     0.36238   0.32085   0.40348   0.00000  Uiso   1.00
H541   H     0.43320   0.38650   0.91414   0.00000  Uiso   1.00
H542   H     0.17418   0.23937   0.13640   0.00000  Uiso   1.00
H543   H     0.40429   0.30381   0.59657   0.00000  Uiso   1.00
O544   O     0.49184   0.35076   0.78920   0.00000  Uiso   1.00
O545   O     0.15203   0.15773   0.08081   0.00000  Uiso   1.00
O546   O     0.45392   0.24227   0.68454   0.00000  Uiso   1.00
N547   N     0.47113   0.28979   0.88633   0.00000  Uiso   1.00
N548   N     0.22897   0.15224   0.09411   0.00000  Uiso   1.00
N549   N     0.44409   0.21248   0.52434   0.00000  Uiso   1.00
N550   N     0.44022   0.35397   0.91953   0.00000  Uiso   1.00
N551   N     0.19806   0.21642   0.12731   0.00000  Uiso   1.00
N552   N     0.41318   0.27665   0.55754   0.00000  Uiso   1.00
C553   C     0.71253   0.61586   0.91534   0.00000  Uiso   1.00
C554   C     0.74951   0.59944   0.84657   0.00000  Uiso   1.00
C555   C     0.74485   0.56842   0.77025   0.00000  Uiso   1.00
C556   C     0.78268   0.55782   0.71581   0.00000  Uiso   1.00
C557   C     0.83386   0.52933   0.60577   0.00000  Uiso   1.00
C558   C     0.71160   0.66618   0.90382   0.00000  Uiso   1.00
C559   C     0.67507   0.69127   0.87564   0.00000  Uiso   1.00
C560   C     0.68099   0.73686   0.86941   0.00000  Uiso   1.00
C561   C     0.67330   0.81199   0.84832   0.00000  Uiso   1.00
C562   C     0.72821   0.60689   0.02238   0.00000  Uiso   1.00
C563   C     0.70563   0.58213   0.09390   0.00000  Uiso   1.00
C564   C     0.72552   0.57781   0.18750   0.00000  Uiso   1.00
C565   C     0.74361   0.56087   0.35049   0.00000  Uiso   1.00
C566   C     0.78800   0.65221   0.95438   0.00000  Uiso   1.00
C567   C     0.79050   0.61918   0.86778   0.00000  Uiso   1.00
C568   C     0.82835   0.60863   0.81344   0.00000  Uiso   1.00
C569   C     0.82375   0.57759   0.73705   0.00000  Uiso   1.00
C570   C     0.75259   0.68592   0.92502   0.00000  Uiso   1.00
C571   C     0.75857   0.73148   0.91884   0.00000  Uiso   1.00
C572   C     0.72205   0.75664   0.89065   0.00000  Uiso   1.00
C573   C     0.76920   0.62663   0.04359   0.00000  Uiso   1.00
C574   C     0.78913   0.62234   0.13710   0.00000  Uiso   1.00
C575   C     0.76659   0.59759   0.20875   0.00000  Uiso   1.00
H576   H     0.68062   0.60050   0.89883   0.00000  Uiso   1.00
H577   H     0.71312   0.55315   0.75385   0.00000  Uiso   1.00
H578   H     0.64335   0.67599   0.85924   0.00000  Uiso   1.00
H579   H     0.67391   0.56686   0.07746   0.00000  Uiso   1.00
H580   H     0.76723   0.50937   0.60245   0.00000  Uiso   1.00
H581   H     0.62011   0.76838   0.82470   0.00000  Uiso   1.00
H582   H     0.68454   0.53828   0.28487   0.00000  Uiso   1.00
H583   H     0.81992   0.66758   0.97090   0.00000  Uiso   1.00
H584   H     0.86007   0.62391   0.82987   0.00000  Uiso   1.00
H585   H     0.79029   0.74675   0.93526   0.00000  Uiso   1.00
H586   H     0.82085   0.63762   0.15348   0.00000  Uiso   1.00
H587   H     0.88650   0.56680   0.66414   0.00000  Uiso   1.00
H588   H     0.73937   0.82582   0.88640   0.00000  Uiso   1.00
H589   H     0.80381   0.59571   0.34657   0.00000  Uiso   1.00
O590   O     0.85076   0.50816   0.53920   0.00000  Uiso   1.00
O591   O     0.65773   0.84797   0.83081   0.00000  Uiso   1.00
O592   O     0.74227   0.54608   0.43454   0.00000  Uiso   1.00
N593   N     0.78979   0.52887   0.63633   0.00000  Uiso   1.00
N594   N     0.65224   0.77103   0.84411   0.00000  Uiso   1.00
N595   N     0.71248   0.55591   0.27434   0.00000  Uiso   1.00
N596   N     0.85397   0.55978   0.66953   0.00000  Uiso   1.00
N597   N     0.71642   0.80194   0.87731   0.00000  Uiso   1.00
N598   N     0.77665   0.58682   0.30754   0.00000  Uiso   1.00
C599   C     0.21253   0.11586   0.41534   0.00000  Uiso   1.00
C600   C     0.24951   0.09944   0.34657   0.00000  Uiso   1.00
C601   C     0.24485   0.06842   0.27025   0.00000  Uiso   1.00
C602   C     0.28268   0.05782   0.21581   0.00000  Uiso   1.00
C603   C     0.33386   0.02933   0.10577   0.00000  Uiso   1.00
C604   C     0.21160   0.16618   0.40382   0.00000  Uiso   1.00
C605   C     0.17507   0.19127   0.37564   0.00000  Uiso   1.00
C606   C     0.18099   0.23686   0.36941   0.00000  Uiso   1.00
C607   C     0.17330   0.31199   0.34832   0.00000  Uiso   1.00
C608   C     0.22821   0.10689   0.52238   0.00000  Uiso   1.00
C609   C     0.20563   0.08213   0.59390   0.00000  Uiso   1.00
C610   C     0.22552   0.07781   0.68750   0.00000  Uiso   1.00
C611   C     0.24361   0.06087   0.85049   0.00000  Uiso   1.00
C612   C     0.28800   0.15221   0.45438   0.00000  Uiso   1.00
C613   C     0.29050   0.11918   0.36778   0.00000  Uiso   1.00
C614   C     0.32835   0.10863   0.31344   0.00000  Uiso   1.00
C615   C     0.32375   0.07759   0.23705   0.00000  Uiso   1.00
C616   C     0.25259   0.18592   0.42502   0.00000  Uiso   1.00
C617   C     0.25857   0.23148   0.41884   0.00000  Uiso   1.00
C618   C     0.22205   0.25664   0.39065   0.00000  Uiso   1.00
C619   C     0.26920   0.12663   0.54359   0.00000  Uiso   1.00
C620   C     0.28913   0.12234   0.63710   0.00000  Uiso   1.00
C621   C     0.26659   0.09759   0.70875   0.00000  Uiso   1.00
H622   H     0.18062   0.10050   0.39883   0.00000  Uiso   1.00
H623   H     0.21312   0.05315   0.25385   0.00000  Uiso   1.00
H624   H     0.14335   0.17599   0.35924   0.00000  Uiso   1.00
H625   H     0.17391   0.06686   0.57746   0.00000  Uiso   1.00
H626   H     0.26723   0.00937   0.10245   0.00000  Uiso   1.00
H627   H     0.12011   0.26838   0.32470   0.00000  Uiso   1.00
H628   H     0.18454   0.03828   0.78487   0.00000  Uiso   1.00
H629   H     0.31992   0.16758   0.47090   0.00000  Uiso   1.00
H630   H     0.36007   0.12391   0.32987   0.00000  Uiso   1.00
H631   H     0.29029   0.24675   0.43526   0.00000  Uiso   1.00
H632   H     0.32085   0.13762   0.65348   0.00000  Uiso   1.00
H633   H     0.38650   0.06680   0.16414   0.00000  Uiso   1.00
H634   H     0.23937   0.32582   0.38640   0.00000  Uiso   1.00
H635   H     0.30381   0.09571   0.84657   0.00000  Uiso   1.00
O636   O     0.35076   0.00816   0.03920   0.00000  Uiso   1.00
O637   O     0.15773   0.34797   0.33081   0.00000  Uiso   1.00
O638   O     0.24227   0.04608   0.93454   0.00000  Uiso   1.00
N639   N     0.28979   0.02887   0.13633   0.00000  Uiso   1.00
N640   N     0.15224   0.27103   0.34411   0.00000  Uiso   1.00
N641   N     0.21248   0.05591   0.77434   0.00000  Uiso   1.00
N642   N     0.35397   0.05978   0.16953   0.00000  Uiso   1.00
N643   N     0.21642   0.30194   0.37731   0.00000  Uiso   1.00
N644   N     0.27665   0.08682   0.80754   0.00000  Uiso   1.00
C645   C     0.78747   0.88414   0.41534   0.00000  Uiso   1.00
C646   C     0.75049   0.90056   0.34657   0.00000  Uiso   1.00
C647   C     0.75515   0.93158   0.27025   0.00000  Uiso   1.00
C648   C     0.71732   0.94218   0.21581   0.00000  Uiso   1.00
C649   C     0.66614   0.97067   0.10577   0.00000  Uiso   1.00
C650   C     0.78840   0.83382   0.40382   0.00000  Uiso   1.00
C651   C     0.82493   0.80873   0.37564   0.00000  Uiso   1.00
C652   C     0.81901   0.76314   0.36941   0.00000  Uiso   1.00
C653   C     0.82670   0.68801   0.34832   0.00000  Uiso   1.00
C654   C     0.77179   0.89311   0.52238   0.00000  Uiso   1.00
C655   C     0.79437   0.91787   0.59390   0.00000  Uiso   1.00
C656   C     0.77448   0.92219   0.68750   0.00000  Uiso   1.00
C657   C     0.75639   0.93913   0.85049   0.00000  Uiso   1.00
C658   C     0.71200   0.84779   0.45438   0.00000  Uiso   1.00
C659   C     0.70950   0.88082   0.36778   0.00000  Uiso   1.00
C660   C     0.67165   0.89137   0.31344   0.00000  Uiso   1.00
C661   C     0.67625   0.92241   0.23705   0.00000  Uiso   1.00
C662   C     0.74741   0.81408   0.42502   0.00000  Uiso   1.00
C663   C     0.74143   0.76852   0.41884   0.00000  Uiso   1.00
C664   C     0.77795   0.74336   0.39065   0.00000  Uiso   1.00
C665   C     0.73080   0.87337   0.54359   0.00000  Uiso   1.00
C666   C     0.71087   0.87766   0.63710   0.00000  Uiso   1.00
C667   C     0.73341   0.90241   0.70875   0.00000  Uiso   1.00
H668   H     0.81938   0.89950   0.39883   0.00000  Uiso   1.00
H669   H     0.78688   0.94685   0.25385   0.00000  Uiso   1.00
H670   H     0.85665   0.82401   0.35924   0.00000  Uiso   1.00
H671   H     0.82609   0.93314   0.57746   0.00000  Uiso   1.00
H672   H     0.73277   0.99063   0.10245   0.00000  Uiso   1.00
H673   H     0.87989   0.73162   0.32470   0.00000  Uiso   1.00
H674   H     0.81546   0.96172   0.78487   0.00000  Uiso   1.00
H675   H     0.68008   0.83242   0.47090   0.00000  Uiso   1.00
H676   H     0.63993   0.87609   0.32987   0.00000  Uiso   1.00
H677   H     0.70971   0.75325   0.43526   0.00000  Uiso   1.00
H678   H     0.67915   0.86238   0.65348   0.00000  Uiso   1.00
H679   H     0.61350   0.93320   0.16414   0.00000  Uiso   1.00
H680   H     0.76063   0.67418   0.38640   0.00000  Uiso   1.00
H681   H     0.69619   0.90429   0.84657   0.00000  Uiso   1.00
O682   O     0.64924   0.99184   0.03920   0.00000  Uiso   1.00
O683   O     0.84227   0.65203   0.33081   0.00000  Uiso   1.00
O684   O     0.75773   0.95392   0.93454   0.00000  Uiso   1.00
N685   N     0.71021   0.97113   0.13633   0.00000  Uiso   1.00
N686   N     0.84776   0.72897   0.34411   0.00000  Uiso   1.00
N687   N     0.78752   0.94409   0.77434   0.00000  Uiso   1.00
N688   N     0.64603   0.94022   0.16953   0.00000  Uiso   1.00
N689   N     0.78358   0.69806   0.37731   0.00000  Uiso   1.00
N690   N     0.72335   0.91318   0.80754   0.00000  Uiso   1.00
C691   C     0.28747   0.38414   0.91534   0.00000  Uiso   1.00
C692   C     0.25049   0.40056   0.84657   0.00000  Uiso   1.00
C693   C     0.25515   0.43158   0.77025   0.00000  Uiso   1.00
C694   C     0.21732   0.44218   0.71581   0.00000  Uiso   1.00
C695   C     0.16614   0.47067   0.60577   0.00000  Uiso   1.00
C696   C     0.28840   0.33382   0.90382   0.00000  Uiso   1.00
C697   C     0.32493   0.30873   0.87564   0.00000  Uiso   1.00
C698   C     0.31901   0.26314   0.86941   0.00000  Uiso   1.00
C699   C     0.32670   0.18801   0.84832   0.00000  Uiso   1.00
C700   C     0.27179   0.39311   0.02238   0.00000  Uiso   1.00
C701   C     0.29437   0.41787   0.09390   0.00000  Uiso   1.00
C702   C     0.27448   0.42219   0.18750   0.00000  Uiso   1.00
C703   C     0.25639   0.43913   0.35049   0.00000  Uiso   1.00
C704   C     0.21200   0.34779   0.95438   0.00000  Uiso   1.00
C705   C     0.20950   0.38082   0.86778   0.00000  Uiso   1.00
C706   C     0.17165   0.39137   0.81344   0.00000  Uiso   1.00
C707   C     0.17625   0.42241   0.73705   0.00000  Uiso   1.00
C708   C     0.24741   0.31408   0.92502   0.00000  Uiso   1.00
C709   C     0.24143   0.26852   0.91884   0.00000  Uiso   1.00
C710   C     0.27795   0.24336   0.89065   0.00000  Uiso   1.00
C711   C     0.23080   0.37337   0.04359   0.00000  Uiso   1.00
C712   C     0.21087   0.37766   0.13710   0.00000  Uiso   1.00
C713   C     0.23341   0.40241   0.20875   0.00000  Uiso   1.00
H714   H     0.31938   0.39950   0.89883   0.00000  Uiso   1.00
H715   H     0.28688   0.44685   0.75385   0.00000  Uiso   1.00
H716   H     0.35665   0.32401   0.85924   0.00000  Uiso   1.00
H717   H     0.32609   0.43314   0.07746   0.00000  Uiso   1.00
H718   H     0.23277   0.49063   0.60245   0.00000  Uiso   1.00
H719   H     0.37989   0.23162   0.82470   0.00000  Uiso   1.00
H720   H     0.31546   0.46172   0.28487   0.00000  Uiso   1.00
H721   H     0.18008   0.33242   0.97090   0.00000  Uiso   1.00
H722   H     0.13993   0.37609   0.82987   0.00000  Uiso   1.00
H723   H     0.20971   0.25325   0.93526   0.00000  Uiso   1.00
H724   H     0.17915   0.36238   0.15348   0.00000  Uiso   1.00
H725   H     0.11350   0.43320   0.66414   0.00000  Uiso   1.00
H726   H     0.26063   0.17418   0.88640   0.00000  Uiso   1.00
H727   H     0.19619   0.40429   0.34657   0.00000  Uiso   1.00
O728   O     0.14924   0.49184   0.53920   0.00000  Uiso   1.00
O729   O     0.34227   0.15203   0.83081   0.00000  Uiso   1.00
O730   O     0.25773   0.45392   0.43454   0.00000  Uiso   1.00
N731   N     0.21021   0.47113   0.63633   0.00000  Uiso   1.00
N732   N     0.34776   0.22897   0.84411   0.00000  Uiso   1.00
N733   N     0.28752   0.44409   0.27434   0.00000  Uiso   1.00
N734   N     0.14603   0.44022   0.66953   0.00000  Uiso   1.00
N735   N     0.28358   0.19806   0.87731   0.00000  Uiso   1.00
N736   N     0.22335   0.41318   0.30754   0.00000  Uiso   1.00
