data_job_02560
_audit_creation_date              2018-12-19
_audit_creation_method            'Materials Studio'
_symmetry_space_group_name_H-M    'P1'
_symmetry_Int_Tables_number       1
_symmetry_cell_setting            triclinic
loop_
_symmetry_equiv_pos_as_xyz
  x,y,z
_cell_length_a                    16.4689
_cell_length_b                    16.4689
_cell_length_c                    36.9717
_cell_angle_alpha                 90.0000
_cell_angle_beta                  90.0000
_cell_angle_gamma                 90.0000
loop_
_atom_site_label
_atom_site_type_symbol
_atom_site_fract_x
_atom_site_fract_y
_atom_site_fract_z
_atom_site_U_iso_or_equiv
_atom_site_adp_type
_atom_site_occupancy
C1     C     0.71578   0.29927   0.56264   0.00000  Uiso   1.00
C2     C     0.80201   0.26779   0.56805   0.00000  Uiso   1.00
C3     C     0.82358   0.18756   0.57433   0.00000  Uiso   1.00
C4     C     0.90572   0.17114   0.57856   0.00000  Uiso   1.00
C5     C     0.03073   0.11288   0.58728   0.00000  Uiso   1.00
C6     C     0.70332   0.36503   0.59115   0.00000  Uiso   1.00
C7     C     0.64191   0.36656   0.61684   0.00000  Uiso   1.00
C8     C     0.64097   0.43200   0.64052   0.00000  Uiso   1.00
C9     C     0.61272   0.52474   0.68507   0.00000  Uiso   1.00
C10    C     0.71569   0.34277   0.52624   0.00000  Uiso   1.00
C11    C     0.66467   0.32561   0.49736   0.00000  Uiso   1.00
C12    C     0.67413   0.37233   0.46638   0.00000  Uiso   1.00
C13    C     0.66509   0.43052   0.41015   0.00000  Uiso   1.00
C14    C     0.82330   0.41277   0.55899   0.00000  Uiso   1.00
C15    C     0.86041   0.32944   0.56607   0.00000  Uiso   1.00
C16    C     0.94254   0.31313   0.57029   0.00000  Uiso   1.00
C17    C     0.96423   0.23289   0.57657   0.00000  Uiso   1.00
C18    C     0.76172   0.42667   0.58916   0.00000  Uiso   1.00
C19    C     0.76087   0.49213   0.61280   0.00000  Uiso   1.00
C20    C     0.69947   0.49376   0.63853   0.00000  Uiso   1.00
C21    C     0.77409   0.40442   0.52425   0.00000  Uiso   1.00
C22    C     0.78363   0.45118   0.49331   0.00000  Uiso   1.00
C23    C     0.73263   0.43409   0.46439   0.00000  Uiso   1.00
H24    H     0.67031   0.25128   0.56419   0.00000  Uiso   1.00
H25    H     0.77837   0.13987   0.57587   0.00000  Uiso   1.00
H26    H     0.59672   0.31885   0.61837   0.00000  Uiso   1.00
H27    H     0.61948   0.27790   0.49890   0.00000  Uiso   1.00
H28    H     0.92392   0.04354   0.58795   0.00000  Uiso   1.00
H29    H     0.54089   0.42094   0.67756   0.00000  Uiso   1.00
H30    H     0.58888   0.33460   0.42564   0.00000  Uiso   1.00
H31    H     0.86877   0.46077   0.55745   0.00000  Uiso   1.00
H32    H     0.98772   0.36085   0.56875   0.00000  Uiso   1.00
H33    H     0.80607   0.53983   0.61126   0.00000  Uiso   1.00
H34    H     0.82883   0.49889   0.49179   0.00000  Uiso   1.00
H35    H     0.09384   0.22291   0.58218   0.00000  Uiso   1.00
H36    H     0.71080   0.60031   0.67179   0.00000  Uiso   1.00
H37    H     0.75879   0.51396   0.41987   0.00000  Uiso   1.00
O38    O     0.08355   0.06372   0.59263   0.00000  Uiso   1.00
O39    O     0.58101   0.55886   0.71020   0.00000  Uiso   1.00
O40    O     0.64398   0.44558   0.37968   0.00000  Uiso   1.00
N41    N     0.94759   0.09947   0.58503   0.00000  Uiso   1.00
N42    N     0.58948   0.45230   0.66882   0.00000  Uiso   1.00
N43    N     0.63433   0.37160   0.43330   0.00000  Uiso   1.00
N44    N     0.03902   0.19598   0.58193   0.00000  Uiso   1.00
N45    N     0.68091   0.54882   0.66571   0.00000  Uiso   1.00
N46    N     0.72576   0.46811   0.43019   0.00000  Uiso   1.00
C47    C     0.21578   0.79927   0.06264   0.00000  Uiso   1.00
C48    C     0.30201   0.76779   0.06805   0.00000  Uiso   1.00
C49    C     0.32358   0.68756   0.07433   0.00000  Uiso   1.00
C50    C     0.40572   0.67114   0.07856   0.00000  Uiso   1.00
C51    C     0.53073   0.61288   0.08728   0.00000  Uiso   1.00
C52    C     0.20332   0.86503   0.09115   0.00000  Uiso   1.00
C53    C     0.14191   0.86656   0.11684   0.00000  Uiso   1.00
C54    C     0.14097   0.93200   0.14052   0.00000  Uiso   1.00
C55    C     0.11272   0.02474   0.18507   0.00000  Uiso   1.00
C56    C     0.21569   0.84277   0.02624   0.00000  Uiso   1.00
C57    C     0.16467   0.82561   0.99736   0.00000  Uiso   1.00
C58    C     0.17413   0.87233   0.96638   0.00000  Uiso   1.00
C59    C     0.16509   0.93052   0.91015   0.00000  Uiso   1.00
C60    C     0.32330   0.91277   0.05899   0.00000  Uiso   1.00
C61    C     0.36041   0.82944   0.06607   0.00000  Uiso   1.00
C62    C     0.44254   0.81313   0.07029   0.00000  Uiso   1.00
C63    C     0.46423   0.73289   0.07657   0.00000  Uiso   1.00
C64    C     0.26172   0.92667   0.08916   0.00000  Uiso   1.00
C65    C     0.26087   0.99213   0.11280   0.00000  Uiso   1.00
C66    C     0.19947   0.99376   0.13853   0.00000  Uiso   1.00
C67    C     0.27409   0.90442   0.02425   0.00000  Uiso   1.00
C68    C     0.28363   0.95118   0.99331   0.00000  Uiso   1.00
C69    C     0.23263   0.93409   0.96439   0.00000  Uiso   1.00
H70    H     0.17031   0.75128   0.06419   0.00000  Uiso   1.00
H71    H     0.27837   0.63987   0.07587   0.00000  Uiso   1.00
H72    H     0.09672   0.81885   0.11837   0.00000  Uiso   1.00
H73    H     0.11948   0.77790   0.99890   0.00000  Uiso   1.00
H74    H     0.42392   0.54354   0.08795   0.00000  Uiso   1.00
H75    H     0.04089   0.92094   0.17756   0.00000  Uiso   1.00
H76    H     0.08888   0.83460   0.92564   0.00000  Uiso   1.00
H77    H     0.36877   0.96077   0.05745   0.00000  Uiso   1.00
H78    H     0.48772   0.86085   0.06875   0.00000  Uiso   1.00
H79    H     0.30607   0.03983   0.11126   0.00000  Uiso   1.00
H80    H     0.32883   0.99889   0.99179   0.00000  Uiso   1.00
H81    H     0.59384   0.72291   0.08218   0.00000  Uiso   1.00
H82    H     0.21080   0.10031   0.17179   0.00000  Uiso   1.00
H83    H     0.25879   0.01396   0.91987   0.00000  Uiso   1.00
O84    O     0.58355   0.56372   0.09263   0.00000  Uiso   1.00
O85    O     0.08101   0.05886   0.21020   0.00000  Uiso   1.00
O86    O     0.14398   0.94558   0.87968   0.00000  Uiso   1.00
N87    N     0.44759   0.59947   0.08503   0.00000  Uiso   1.00
N88    N     0.08948   0.95230   0.16882   0.00000  Uiso   1.00
N89    N     0.13433   0.87160   0.93330   0.00000  Uiso   1.00
N90    N     0.53902   0.69598   0.08193   0.00000  Uiso   1.00
N91    N     0.18091   0.04882   0.16571   0.00000  Uiso   1.00
N92    N     0.22576   0.96811   0.93019   0.00000  Uiso   1.00
C93    C     0.28422   0.70073   0.56264   0.00000  Uiso   1.00
C94    C     0.19799   0.73221   0.56805   0.00000  Uiso   1.00
C95    C     0.17642   0.81244   0.57433   0.00000  Uiso   1.00
C96    C     0.09428   0.82886   0.57856   0.00000  Uiso   1.00
C97    C     0.96927   0.88712   0.58728   0.00000  Uiso   1.00
C98    C     0.29668   0.63497   0.59115   0.00000  Uiso   1.00
C99    C     0.35809   0.63344   0.61684   0.00000  Uiso   1.00
C100   C     0.35903   0.56800   0.64052   0.00000  Uiso   1.00
C101   C     0.38728   0.47526   0.68507   0.00000  Uiso   1.00
C102   C     0.28431   0.65723   0.52624   0.00000  Uiso   1.00
C103   C     0.33533   0.67439   0.49736   0.00000  Uiso   1.00
C104   C     0.32587   0.62767   0.46638   0.00000  Uiso   1.00
C105   C     0.33491   0.56948   0.41015   0.00000  Uiso   1.00
C106   C     0.17670   0.58723   0.55899   0.00000  Uiso   1.00
C107   C     0.13959   0.67056   0.56607   0.00000  Uiso   1.00
C108   C     0.05746   0.68687   0.57029   0.00000  Uiso   1.00
C109   C     0.03577   0.76711   0.57657   0.00000  Uiso   1.00
C110   C     0.23828   0.57333   0.58916   0.00000  Uiso   1.00
C111   C     0.23913   0.50787   0.61280   0.00000  Uiso   1.00
C112   C     0.30053   0.50624   0.63853   0.00000  Uiso   1.00
C113   C     0.22591   0.59558   0.52425   0.00000  Uiso   1.00
C114   C     0.21637   0.54882   0.49331   0.00000  Uiso   1.00
C115   C     0.26737   0.56591   0.46439   0.00000  Uiso   1.00
H116   H     0.32969   0.74872   0.56419   0.00000  Uiso   1.00
H117   H     0.22163   0.86013   0.57587   0.00000  Uiso   1.00
H118   H     0.40328   0.68115   0.61837   0.00000  Uiso   1.00
H119   H     0.38052   0.72210   0.49890   0.00000  Uiso   1.00
H120   H     0.07608   0.95646   0.58795   0.00000  Uiso   1.00
H121   H     0.45911   0.57906   0.67756   0.00000  Uiso   1.00
H122   H     0.41112   0.66540   0.42564   0.00000  Uiso   1.00
H123   H     0.13123   0.53923   0.55745   0.00000  Uiso   1.00
H124   H     0.01228   0.63915   0.56875   0.00000  Uiso   1.00
H125   H     0.19393   0.46017   0.61126   0.00000  Uiso   1.00
H126   H     0.17117   0.50111   0.49179   0.00000  Uiso   1.00
H127   H     0.90616   0.77709   0.58218   0.00000  Uiso   1.00
H128   H     0.28920   0.39969   0.67179   0.00000  Uiso   1.00
H129   H     0.24121   0.48604   0.41987   0.00000  Uiso   1.00
O130   O     0.91645   0.93628   0.59263   0.00000  Uiso   1.00
O131   O     0.41899   0.44114   0.71020   0.00000  Uiso   1.00
O132   O     0.35602   0.55442   0.37968   0.00000  Uiso   1.00
N133   N     0.05241   0.90053   0.58503   0.00000  Uiso   1.00
N134   N     0.41052   0.54770   0.66882   0.00000  Uiso   1.00
N135   N     0.36567   0.62840   0.43330   0.00000  Uiso   1.00
N136   N     0.96098   0.80402   0.58193   0.00000  Uiso   1.00
N137   N     0.31909   0.45118   0.66571   0.00000  Uiso   1.00
N138   N     0.27424   0.53189   0.43019   0.00000  Uiso   1.00
C139   C     0.78422   0.20073   0.06264   0.00000  Uiso   1.00
C140   C     0.69799   0.23221   0.06805   0.00000  Uiso   1.00
C141   C     0.67642   0.31244   0.07433   0.00000  Uiso   1.00
C142   C     0.59428   0.32886   0.07856   0.00000  Uiso   1.00
C143   C     0.46927   0.38712   0.08728   0.00000  Uiso   1.00
C144   C     0.79668   0.13497   0.09115   0.00000  Uiso   1.00
C145   C     0.85809   0.13344   0.11684   0.00000  Uiso   1.00
C146   C     0.85903   0.06800   0.14052   0.00000  Uiso   1.00
C147   C     0.88728   0.97526   0.18507   0.00000  Uiso   1.00
C148   C     0.78431   0.15723   0.02624   0.00000  Uiso   1.00
C149   C     0.83533   0.17439   0.99736   0.00000  Uiso   1.00
C150   C     0.82587   0.12767   0.96638   0.00000  Uiso   1.00
C151   C     0.83491   0.06948   0.91015   0.00000  Uiso   1.00
C152   C     0.67670   0.08723   0.05899   0.00000  Uiso   1.00
C153   C     0.63959   0.17056   0.06607   0.00000  Uiso   1.00
C154   C     0.55746   0.18687   0.07029   0.00000  Uiso   1.00
C155   C     0.53577   0.26711   0.07657   0.00000  Uiso   1.00
C156   C     0.73828   0.07333   0.08916   0.00000  Uiso   1.00
C157   C     0.73913   0.00787   0.11280   0.00000  Uiso   1.00
C158   C     0.80053   0.00624   0.13853   0.00000  Uiso   1.00
C159   C     0.72591   0.09558   0.02425   0.00000  Uiso   1.00
C160   C     0.71637   0.04882   0.99331   0.00000  Uiso   1.00
C161   C     0.76737   0.06591   0.96439   0.00000  Uiso   1.00
H162   H     0.82969   0.24872   0.06419   0.00000  Uiso   1.00
H163   H     0.72163   0.36013   0.07587   0.00000  Uiso   1.00
H164   H     0.90328   0.18115   0.11837   0.00000  Uiso   1.00
H165   H     0.88052   0.22210   0.99890   0.00000  Uiso   1.00
H166   H     0.57608   0.45646   0.08795   0.00000  Uiso   1.00
H167   H     0.95911   0.07906   0.17756   0.00000  Uiso   1.00
H168   H     0.91112   0.16540   0.92564   0.00000  Uiso   1.00
H169   H     0.63123   0.03923   0.05745   0.00000  Uiso   1.00
H170   H     0.51228   0.13915   0.06875   0.00000  Uiso   1.00
H171   H     0.69393   0.96017   0.11126   0.00000  Uiso   1.00
H172   H     0.67117   0.00111   0.99179   0.00000  Uiso   1.00
H173   H     0.40616   0.27709   0.08218   0.00000  Uiso   1.00
H174   H     0.78920   0.89969   0.17179   0.00000  Uiso   1.00
H175   H     0.74121   0.98604   0.91987   0.00000  Uiso   1.00
O176   O     0.41645   0.43628   0.09263   0.00000  Uiso   1.00
O177   O     0.91899   0.94114   0.21020   0.00000  Uiso   1.00
O178   O     0.85602   0.05442   0.87968   0.00000  Uiso   1.00
N179   N     0.55241   0.40053   0.08503   0.00000  Uiso   1.00
N180   N     0.91052   0.04770   0.16882   0.00000  Uiso   1.00
N181   N     0.86567   0.12840   0.93330   0.00000  Uiso   1.00
N182   N     0.46098   0.30402   0.08193   0.00000  Uiso   1.00
N183   N     0.81909   0.95118   0.16571   0.00000  Uiso   1.00
N184   N     0.77424   0.03189   0.93019   0.00000  Uiso   1.00
C185   C     0.29927   0.28422   0.43736   0.00000  Uiso   1.00
C186   C     0.26779   0.19799   0.43195   0.00000  Uiso   1.00
C187   C     0.18756   0.17642   0.42567   0.00000  Uiso   1.00
C188   C     0.17114   0.09428   0.42144   0.00000  Uiso   1.00
C189   C     0.11288   0.96927   0.41272   0.00000  Uiso   1.00
C190   C     0.36503   0.29668   0.40885   0.00000  Uiso   1.00
C191   C     0.36656   0.35809   0.38316   0.00000  Uiso   1.00
C192   C     0.43200   0.35903   0.35948   0.00000  Uiso   1.00
C193   C     0.52474   0.38728   0.31493   0.00000  Uiso   1.00
C194   C     0.34277   0.28431   0.47376   0.00000  Uiso   1.00
C195   C     0.32561   0.33533   0.50264   0.00000  Uiso   1.00
C196   C     0.37233   0.32587   0.53362   0.00000  Uiso   1.00
C197   C     0.43052   0.33491   0.58985   0.00000  Uiso   1.00
C198   C     0.41277   0.17670   0.44101   0.00000  Uiso   1.00
C199   C     0.32944   0.13959   0.43393   0.00000  Uiso   1.00
C200   C     0.31313   0.05746   0.42971   0.00000  Uiso   1.00
C201   C     0.23289   0.03577   0.42343   0.00000  Uiso   1.00
C202   C     0.42667   0.23828   0.41084   0.00000  Uiso   1.00
C203   C     0.49213   0.23913   0.38720   0.00000  Uiso   1.00
C204   C     0.49376   0.30053   0.36147   0.00000  Uiso   1.00
C205   C     0.40442   0.22591   0.47575   0.00000  Uiso   1.00
C206   C     0.45118   0.21637   0.50669   0.00000  Uiso   1.00
C207   C     0.43409   0.26737   0.53561   0.00000  Uiso   1.00
H208   H     0.25128   0.32969   0.43581   0.00000  Uiso   1.00
H209   H     0.13987   0.22163   0.42413   0.00000  Uiso   1.00
H210   H     0.31885   0.40328   0.38163   0.00000  Uiso   1.00
H211   H     0.27790   0.38052   0.50110   0.00000  Uiso   1.00
H212   H     0.04354   0.07608   0.41205   0.00000  Uiso   1.00
H213   H     0.42094   0.45911   0.32244   0.00000  Uiso   1.00
H214   H     0.33460   0.41112   0.57436   0.00000  Uiso   1.00
H215   H     0.46077   0.13123   0.44255   0.00000  Uiso   1.00
H216   H     0.36085   0.01228   0.43125   0.00000  Uiso   1.00
H217   H     0.53983   0.19393   0.38874   0.00000  Uiso   1.00
H218   H     0.49889   0.17117   0.50821   0.00000  Uiso   1.00
H219   H     0.22291   0.90616   0.41782   0.00000  Uiso   1.00
H220   H     0.60031   0.28920   0.32821   0.00000  Uiso   1.00
H221   H     0.51396   0.24121   0.58013   0.00000  Uiso   1.00
O222   O     0.06372   0.91645   0.40737   0.00000  Uiso   1.00
O223   O     0.55886   0.41899   0.28980   0.00000  Uiso   1.00
O224   O     0.44558   0.35602   0.62032   0.00000  Uiso   1.00
N225   N     0.09947   0.05241   0.41497   0.00000  Uiso   1.00
N226   N     0.45230   0.41052   0.33118   0.00000  Uiso   1.00
N227   N     0.37160   0.36567   0.56670   0.00000  Uiso   1.00
N228   N     0.19598   0.96098   0.41807   0.00000  Uiso   1.00
N229   N     0.54882   0.31909   0.33429   0.00000  Uiso   1.00
N230   N     0.46811   0.27424   0.56981   0.00000  Uiso   1.00
C231   C     0.79927   0.78422   0.93736   0.00000  Uiso   1.00
C232   C     0.76779   0.69799   0.93195   0.00000  Uiso   1.00
C233   C     0.68756   0.67642   0.92567   0.00000  Uiso   1.00
C234   C     0.67114   0.59428   0.92144   0.00000  Uiso   1.00
C235   C     0.61288   0.46927   0.91272   0.00000  Uiso   1.00
C236   C     0.86503   0.79668   0.90885   0.00000  Uiso   1.00
C237   C     0.86656   0.85809   0.88316   0.00000  Uiso   1.00
C238   C     0.93200   0.85903   0.85948   0.00000  Uiso   1.00
C239   C     0.02474   0.88728   0.81493   0.00000  Uiso   1.00
C240   C     0.84277   0.78431   0.97376   0.00000  Uiso   1.00
C241   C     0.82561   0.83533   0.00264   0.00000  Uiso   1.00
C242   C     0.87233   0.82587   0.03362   0.00000  Uiso   1.00
C243   C     0.93052   0.83491   0.08985   0.00000  Uiso   1.00
C244   C     0.91277   0.67670   0.94101   0.00000  Uiso   1.00
C245   C     0.82944   0.63959   0.93393   0.00000  Uiso   1.00
C246   C     0.81313   0.55746   0.92971   0.00000  Uiso   1.00
C247   C     0.73289   0.53577   0.92343   0.00000  Uiso   1.00
C248   C     0.92667   0.73828   0.91084   0.00000  Uiso   1.00
C249   C     0.99213   0.73913   0.88720   0.00000  Uiso   1.00
C250   C     0.99376   0.80053   0.86147   0.00000  Uiso   1.00
C251   C     0.90442   0.72591   0.97575   0.00000  Uiso   1.00
C252   C     0.95118   0.71637   0.00669   0.00000  Uiso   1.00
C253   C     0.93409   0.76737   0.03561   0.00000  Uiso   1.00
H254   H     0.75128   0.82969   0.93581   0.00000  Uiso   1.00
H255   H     0.63987   0.72163   0.92413   0.00000  Uiso   1.00
H256   H     0.81885   0.90328   0.88163   0.00000  Uiso   1.00
H257   H     0.77790   0.88052   0.00110   0.00000  Uiso   1.00
H258   H     0.54354   0.57608   0.91205   0.00000  Uiso   1.00
H259   H     0.92094   0.95911   0.82244   0.00000  Uiso   1.00
H260   H     0.83460   0.91112   0.07436   0.00000  Uiso   1.00
H261   H     0.96077   0.63123   0.94255   0.00000  Uiso   1.00
H262   H     0.86085   0.51228   0.93125   0.00000  Uiso   1.00
H263   H     0.03983   0.69393   0.88874   0.00000  Uiso   1.00
H264   H     0.99889   0.67117   0.00821   0.00000  Uiso   1.00
H265   H     0.72291   0.40616   0.91782   0.00000  Uiso   1.00
H266   H     0.10031   0.78920   0.82821   0.00000  Uiso   1.00
H267   H     0.01396   0.74121   0.08013   0.00000  Uiso   1.00
O268   O     0.56372   0.41645   0.90737   0.00000  Uiso   1.00
O269   O     0.05886   0.91899   0.78980   0.00000  Uiso   1.00
O270   O     0.94558   0.85602   0.12032   0.00000  Uiso   1.00
N271   N     0.59947   0.55241   0.91497   0.00000  Uiso   1.00
N272   N     0.95230   0.91052   0.83118   0.00000  Uiso   1.00
N273   N     0.87160   0.86567   0.06670   0.00000  Uiso   1.00
N274   N     0.69598   0.46098   0.91807   0.00000  Uiso   1.00
N275   N     0.04882   0.81909   0.83429   0.00000  Uiso   1.00
N276   N     0.96811   0.77424   0.06981   0.00000  Uiso   1.00
C277   C     0.70073   0.71578   0.43736   0.00000  Uiso   1.00
C278   C     0.73221   0.80201   0.43195   0.00000  Uiso   1.00
C279   C     0.81244   0.82358   0.42567   0.00000  Uiso   1.00
C280   C     0.82886   0.90572   0.42144   0.00000  Uiso   1.00
C281   C     0.88712   0.03073   0.41272   0.00000  Uiso   1.00
C282   C     0.63497   0.70332   0.40885   0.00000  Uiso   1.00
C283   C     0.63344   0.64191   0.38316   0.00000  Uiso   1.00
C284   C     0.56800   0.64097   0.35948   0.00000  Uiso   1.00
C285   C     0.47526   0.61272   0.31493   0.00000  Uiso   1.00
C286   C     0.65723   0.71569   0.47376   0.00000  Uiso   1.00
C287   C     0.67439   0.66467   0.50264   0.00000  Uiso   1.00
C288   C     0.62767   0.67413   0.53362   0.00000  Uiso   1.00
C289   C     0.56948   0.66509   0.58985   0.00000  Uiso   1.00
C290   C     0.58723   0.82330   0.44101   0.00000  Uiso   1.00
C291   C     0.67056   0.86041   0.43393   0.00000  Uiso   1.00
C292   C     0.68687   0.94254   0.42971   0.00000  Uiso   1.00
C293   C     0.76711   0.96423   0.42343   0.00000  Uiso   1.00
C294   C     0.57333   0.76172   0.41084   0.00000  Uiso   1.00
C295   C     0.50787   0.76087   0.38720   0.00000  Uiso   1.00
C296   C     0.50624   0.69947   0.36147   0.00000  Uiso   1.00
C297   C     0.59558   0.77409   0.47575   0.00000  Uiso   1.00
C298   C     0.54882   0.78363   0.50669   0.00000  Uiso   1.00
C299   C     0.56591   0.73263   0.53561   0.00000  Uiso   1.00
H300   H     0.74872   0.67031   0.43581   0.00000  Uiso   1.00
H301   H     0.86013   0.77837   0.42413   0.00000  Uiso   1.00
H302   H     0.68115   0.59672   0.38163   0.00000  Uiso   1.00
H303   H     0.72210   0.61948   0.50110   0.00000  Uiso   1.00
H304   H     0.95646   0.92392   0.41205   0.00000  Uiso   1.00
H305   H     0.57906   0.54089   0.32244   0.00000  Uiso   1.00
H306   H     0.66540   0.58888   0.57436   0.00000  Uiso   1.00
H307   H     0.53923   0.86877   0.44255   0.00000  Uiso   1.00
H308   H     0.63915   0.98772   0.43125   0.00000  Uiso   1.00
H309   H     0.46017   0.80607   0.38874   0.00000  Uiso   1.00
H310   H     0.50111   0.82883   0.50821   0.00000  Uiso   1.00
H311   H     0.77709   0.09384   0.41782   0.00000  Uiso   1.00
H312   H     0.39969   0.71080   0.32821   0.00000  Uiso   1.00
H313   H     0.48604   0.75879   0.58013   0.00000  Uiso   1.00
O314   O     0.93628   0.08355   0.40737   0.00000  Uiso   1.00
O315   O     0.44114   0.58101   0.28980   0.00000  Uiso   1.00
O316   O     0.55442   0.64398   0.62032   0.00000  Uiso   1.00
N317   N     0.90053   0.94759   0.41497   0.00000  Uiso   1.00
N318   N     0.54770   0.58948   0.33118   0.00000  Uiso   1.00
N319   N     0.62840   0.63433   0.56670   0.00000  Uiso   1.00
N320   N     0.80402   0.03902   0.41807   0.00000  Uiso   1.00
N321   N     0.45118   0.68091   0.33429   0.00000  Uiso   1.00
N322   N     0.53189   0.72576   0.56981   0.00000  Uiso   1.00
C323   C     0.20073   0.21578   0.93736   0.00000  Uiso   1.00
C324   C     0.23221   0.30201   0.93195   0.00000  Uiso   1.00
C325   C     0.31244   0.32358   0.92567   0.00000  Uiso   1.00
C326   C     0.32886   0.40572   0.92144   0.00000  Uiso   1.00
C327   C     0.38712   0.53073   0.91272   0.00000  Uiso   1.00
C328   C     0.13497   0.20332   0.90885   0.00000  Uiso   1.00
C329   C     0.13344   0.14191   0.88316   0.00000  Uiso   1.00
C330   C     0.06800   0.14097   0.85948   0.00000  Uiso   1.00
C331   C     0.97526   0.11272   0.81493   0.00000  Uiso   1.00
C332   C     0.15723   0.21569   0.97376   0.00000  Uiso   1.00
C333   C     0.17439   0.16467   0.00264   0.00000  Uiso   1.00
C334   C     0.12767   0.17413   0.03362   0.00000  Uiso   1.00
C335   C     0.06948   0.16509   0.08985   0.00000  Uiso   1.00
C336   C     0.08723   0.32330   0.94101   0.00000  Uiso   1.00
C337   C     0.17056   0.36041   0.93393   0.00000  Uiso   1.00
C338   C     0.18687   0.44254   0.92971   0.00000  Uiso   1.00
C339   C     0.26711   0.46423   0.92343   0.00000  Uiso   1.00
C340   C     0.07333   0.26172   0.91084   0.00000  Uiso   1.00
C341   C     0.00787   0.26087   0.88720   0.00000  Uiso   1.00
C342   C     0.00624   0.19947   0.86147   0.00000  Uiso   1.00
C343   C     0.09558   0.27409   0.97575   0.00000  Uiso   1.00
C344   C     0.04882   0.28363   0.00669   0.00000  Uiso   1.00
C345   C     0.06591   0.23263   0.03561   0.00000  Uiso   1.00
H346   H     0.24872   0.17031   0.93581   0.00000  Uiso   1.00
H347   H     0.36013   0.27837   0.92413   0.00000  Uiso   1.00
H348   H     0.18115   0.09672   0.88163   0.00000  Uiso   1.00
H349   H     0.22210   0.11948   0.00110   0.00000  Uiso   1.00
H350   H     0.45646   0.42392   0.91205   0.00000  Uiso   1.00
H351   H     0.07906   0.04089   0.82244   0.00000  Uiso   1.00
H352   H     0.16540   0.08888   0.07436   0.00000  Uiso   1.00
H353   H     0.03923   0.36877   0.94255   0.00000  Uiso   1.00
H354   H     0.13915   0.48772   0.93125   0.00000  Uiso   1.00
H355   H     0.96017   0.30607   0.88874   0.00000  Uiso   1.00
H356   H     0.00111   0.32883   0.00821   0.00000  Uiso   1.00
H357   H     0.27709   0.59384   0.91782   0.00000  Uiso   1.00
H358   H     0.89969   0.21080   0.82821   0.00000  Uiso   1.00
H359   H     0.98604   0.25879   0.08013   0.00000  Uiso   1.00
O360   O     0.43628   0.58355   0.90737   0.00000  Uiso   1.00
O361   O     0.94114   0.08101   0.78980   0.00000  Uiso   1.00
O362   O     0.05442   0.14398   0.12032   0.00000  Uiso   1.00
N363   N     0.40053   0.44759   0.91497   0.00000  Uiso   1.00
N364   N     0.04770   0.08948   0.83118   0.00000  Uiso   1.00
N365   N     0.12840   0.13433   0.06670   0.00000  Uiso   1.00
N366   N     0.30402   0.53902   0.91807   0.00000  Uiso   1.00
N367   N     0.95118   0.18091   0.83429   0.00000  Uiso   1.00
N368   N     0.03189   0.22576   0.06981   0.00000  Uiso   1.00
C369   C     0.78422   0.29927   0.18736   0.00000  Uiso   1.00
C370   C     0.69799   0.26779   0.18195   0.00000  Uiso   1.00
C371   C     0.67642   0.18756   0.17567   0.00000  Uiso   1.00
C372   C     0.59428   0.17114   0.17144   0.00000  Uiso   1.00
C373   C     0.46927   0.11288   0.16272   0.00000  Uiso   1.00
C374   C     0.79668   0.36503   0.15885   0.00000  Uiso   1.00
C375   C     0.85809   0.36656   0.13316   0.00000  Uiso   1.00
C376   C     0.85903   0.43200   0.10948   0.00000  Uiso   1.00
C377   C     0.88728   0.52474   0.06493   0.00000  Uiso   1.00
C378   C     0.78431   0.34277   0.22376   0.00000  Uiso   1.00
C379   C     0.83533   0.32561   0.25264   0.00000  Uiso   1.00
C380   C     0.82587   0.37233   0.28362   0.00000  Uiso   1.00
C381   C     0.83491   0.43052   0.33985   0.00000  Uiso   1.00
C382   C     0.67670   0.41277   0.19101   0.00000  Uiso   1.00
C383   C     0.63959   0.32944   0.18393   0.00000  Uiso   1.00
C384   C     0.55746   0.31313   0.17971   0.00000  Uiso   1.00
C385   C     0.53577   0.23289   0.17343   0.00000  Uiso   1.00
C386   C     0.73828   0.42667   0.16084   0.00000  Uiso   1.00
C387   C     0.73913   0.49213   0.13720   0.00000  Uiso   1.00
C388   C     0.80053   0.49376   0.11147   0.00000  Uiso   1.00
C389   C     0.72591   0.40442   0.22575   0.00000  Uiso   1.00
C390   C     0.71637   0.45118   0.25669   0.00000  Uiso   1.00
C391   C     0.76737   0.43409   0.28561   0.00000  Uiso   1.00
H392   H     0.82969   0.25128   0.18581   0.00000  Uiso   1.00
H393   H     0.72163   0.13987   0.17413   0.00000  Uiso   1.00
H394   H     0.90328   0.31885   0.13163   0.00000  Uiso   1.00
H395   H     0.88052   0.27790   0.25110   0.00000  Uiso   1.00
H396   H     0.57608   0.04354   0.16205   0.00000  Uiso   1.00
H397   H     0.95911   0.42094   0.07244   0.00000  Uiso   1.00
H398   H     0.91112   0.33460   0.32436   0.00000  Uiso   1.00
H399   H     0.63123   0.46077   0.19255   0.00000  Uiso   1.00
H400   H     0.51228   0.36085   0.18125   0.00000  Uiso   1.00
H401   H     0.69393   0.53983   0.13874   0.00000  Uiso   1.00
H402   H     0.67117   0.49889   0.25821   0.00000  Uiso   1.00
H403   H     0.40616   0.22291   0.16782   0.00000  Uiso   1.00
H404   H     0.78920   0.60031   0.07821   0.00000  Uiso   1.00
H405   H     0.74121   0.51396   0.33013   0.00000  Uiso   1.00
O406   O     0.41645   0.06372   0.15737   0.00000  Uiso   1.00
O407   O     0.91899   0.55886   0.03980   0.00000  Uiso   1.00
O408   O     0.85602   0.44558   0.37032   0.00000  Uiso   1.00
N409   N     0.55241   0.09947   0.16497   0.00000  Uiso   1.00
N410   N     0.91052   0.45230   0.08118   0.00000  Uiso   1.00
N411   N     0.86567   0.37160   0.31670   0.00000  Uiso   1.00
N412   N     0.46098   0.19598   0.16807   0.00000  Uiso   1.00
N413   N     0.81909   0.54882   0.08429   0.00000  Uiso   1.00
N414   N     0.77424   0.46811   0.31981   0.00000  Uiso   1.00
C415   C     0.28422   0.79927   0.68736   0.00000  Uiso   1.00
C416   C     0.19799   0.76779   0.68195   0.00000  Uiso   1.00
C417   C     0.17642   0.68756   0.67567   0.00000  Uiso   1.00
C418   C     0.09428   0.67114   0.67144   0.00000  Uiso   1.00
C419   C     0.96927   0.61288   0.66272   0.00000  Uiso   1.00
C420   C     0.29668   0.86503   0.65885   0.00000  Uiso   1.00
C421   C     0.35809   0.86656   0.63316   0.00000  Uiso   1.00
C422   C     0.35903   0.93200   0.60948   0.00000  Uiso   1.00
C423   C     0.38728   0.02474   0.56493   0.00000  Uiso   1.00
C424   C     0.28431   0.84277   0.72376   0.00000  Uiso   1.00
C425   C     0.33533   0.82561   0.75264   0.00000  Uiso   1.00
C426   C     0.32587   0.87233   0.78362   0.00000  Uiso   1.00
C427   C     0.33491   0.93052   0.83985   0.00000  Uiso   1.00
C428   C     0.17670   0.91277   0.69101   0.00000  Uiso   1.00
C429   C     0.13959   0.82944   0.68393   0.00000  Uiso   1.00
C430   C     0.05746   0.81313   0.67971   0.00000  Uiso   1.00
C431   C     0.03577   0.73289   0.67343   0.00000  Uiso   1.00
C432   C     0.23828   0.92667   0.66084   0.00000  Uiso   1.00
C433   C     0.23913   0.99213   0.63720   0.00000  Uiso   1.00
C434   C     0.30053   0.99376   0.61147   0.00000  Uiso   1.00
C435   C     0.22591   0.90442   0.72575   0.00000  Uiso   1.00
C436   C     0.21637   0.95118   0.75669   0.00000  Uiso   1.00
C437   C     0.26737   0.93409   0.78561   0.00000  Uiso   1.00
H438   H     0.32969   0.75128   0.68581   0.00000  Uiso   1.00
H439   H     0.22163   0.63987   0.67413   0.00000  Uiso   1.00
H440   H     0.40328   0.81885   0.63163   0.00000  Uiso   1.00
H441   H     0.38052   0.77790   0.75110   0.00000  Uiso   1.00
H442   H     0.07608   0.54354   0.66205   0.00000  Uiso   1.00
H443   H     0.45911   0.92094   0.57244   0.00000  Uiso   1.00
H444   H     0.41112   0.83460   0.82436   0.00000  Uiso   1.00
H445   H     0.13123   0.96077   0.69255   0.00000  Uiso   1.00
H446   H     0.01228   0.86085   0.68125   0.00000  Uiso   1.00
H447   H     0.19393   0.03983   0.63874   0.00000  Uiso   1.00
H448   H     0.17117   0.99889   0.75821   0.00000  Uiso   1.00
H449   H     0.90616   0.72291   0.66782   0.00000  Uiso   1.00
H450   H     0.28920   0.10031   0.57821   0.00000  Uiso   1.00
H451   H     0.24121   0.01396   0.83013   0.00000  Uiso   1.00
O452   O     0.91645   0.56372   0.65737   0.00000  Uiso   1.00
O453   O     0.41899   0.05886   0.53980   0.00000  Uiso   1.00
O454   O     0.35602   0.94558   0.87032   0.00000  Uiso   1.00
N455   N     0.05241   0.59947   0.66497   0.00000  Uiso   1.00
N456   N     0.41052   0.95230   0.58118   0.00000  Uiso   1.00
N457   N     0.36567   0.87160   0.81670   0.00000  Uiso   1.00
N458   N     0.96098   0.69598   0.66807   0.00000  Uiso   1.00
N459   N     0.31909   0.04882   0.58429   0.00000  Uiso   1.00
N460   N     0.27424   0.96811   0.81981   0.00000  Uiso   1.00
C461   C     0.21578   0.70073   0.18736   0.00000  Uiso   1.00
C462   C     0.30201   0.73221   0.18195   0.00000  Uiso   1.00
C463   C     0.32358   0.81244   0.17567   0.00000  Uiso   1.00
C464   C     0.40572   0.82886   0.17144   0.00000  Uiso   1.00
C465   C     0.53073   0.88712   0.16272   0.00000  Uiso   1.00
C466   C     0.20332   0.63497   0.15885   0.00000  Uiso   1.00
C467   C     0.14191   0.63344   0.13316   0.00000  Uiso   1.00
C468   C     0.14097   0.56800   0.10948   0.00000  Uiso   1.00
C469   C     0.11272   0.47526   0.06493   0.00000  Uiso   1.00
C470   C     0.21569   0.65723   0.22376   0.00000  Uiso   1.00
C471   C     0.16467   0.67439   0.25264   0.00000  Uiso   1.00
C472   C     0.17413   0.62767   0.28362   0.00000  Uiso   1.00
C473   C     0.16509   0.56948   0.33985   0.00000  Uiso   1.00
C474   C     0.32330   0.58723   0.19101   0.00000  Uiso   1.00
C475   C     0.36041   0.67056   0.18393   0.00000  Uiso   1.00
C476   C     0.44254   0.68687   0.17971   0.00000  Uiso   1.00
C477   C     0.46423   0.76711   0.17343   0.00000  Uiso   1.00
C478   C     0.26172   0.57333   0.16084   0.00000  Uiso   1.00
C479   C     0.26087   0.50787   0.13720   0.00000  Uiso   1.00
C480   C     0.19947   0.50624   0.11147   0.00000  Uiso   1.00
C481   C     0.27409   0.59558   0.22575   0.00000  Uiso   1.00
C482   C     0.28363   0.54882   0.25669   0.00000  Uiso   1.00
C483   C     0.23263   0.56591   0.28561   0.00000  Uiso   1.00
H484   H     0.17031   0.74872   0.18581   0.00000  Uiso   1.00
H485   H     0.27837   0.86013   0.17413   0.00000  Uiso   1.00
H486   H     0.09672   0.68115   0.13163   0.00000  Uiso   1.00
H487   H     0.11948   0.72210   0.25110   0.00000  Uiso   1.00
H488   H     0.42392   0.95646   0.16205   0.00000  Uiso   1.00
H489   H     0.04089   0.57906   0.07244   0.00000  Uiso   1.00
H490   H     0.08888   0.66540   0.32436   0.00000  Uiso   1.00
H491   H     0.36877   0.53923   0.19255   0.00000  Uiso   1.00
H492   H     0.48772   0.63915   0.18125   0.00000  Uiso   1.00
H493   H     0.30607   0.46017   0.13874   0.00000  Uiso   1.00
H494   H     0.32883   0.50111   0.25821   0.00000  Uiso   1.00
H495   H     0.59384   0.77709   0.16782   0.00000  Uiso   1.00
H496   H     0.21080   0.39969   0.07821   0.00000  Uiso   1.00
H497   H     0.25879   0.48604   0.33013   0.00000  Uiso   1.00
O498   O     0.58355   0.93628   0.15737   0.00000  Uiso   1.00
O499   O     0.08101   0.44114   0.03980   0.00000  Uiso   1.00
O500   O     0.14398   0.55442   0.37032   0.00000  Uiso   1.00
N501   N     0.44759   0.90053   0.16497   0.00000  Uiso   1.00
N502   N     0.08948   0.54770   0.08118   0.00000  Uiso   1.00
N503   N     0.13433   0.62840   0.31670   0.00000  Uiso   1.00
N504   N     0.53902   0.80402   0.16807   0.00000  Uiso   1.00
N505   N     0.18091   0.45118   0.08429   0.00000  Uiso   1.00
N506   N     0.22576   0.53189   0.31981   0.00000  Uiso   1.00
C507   C     0.71578   0.20073   0.68736   0.00000  Uiso   1.00
C508   C     0.80201   0.23221   0.68195   0.00000  Uiso   1.00
C509   C     0.82358   0.31244   0.67567   0.00000  Uiso   1.00
C510   C     0.90572   0.32886   0.67144   0.00000  Uiso   1.00
C511   C     0.03073   0.38712   0.66272   0.00000  Uiso   1.00
C512   C     0.70332   0.13497   0.65885   0.00000  Uiso   1.00
C513   C     0.64191   0.13344   0.63316   0.00000  Uiso   1.00
C514   C     0.64097   0.06800   0.60948   0.00000  Uiso   1.00
C515   C     0.61272   0.97526   0.56493   0.00000  Uiso   1.00
C516   C     0.71569   0.15723   0.72376   0.00000  Uiso   1.00
C517   C     0.66467   0.17439   0.75264   0.00000  Uiso   1.00
C518   C     0.67413   0.12767   0.78362   0.00000  Uiso   1.00
C519   C     0.66509   0.06948   0.83985   0.00000  Uiso   1.00
C520   C     0.82330   0.08723   0.69101   0.00000  Uiso   1.00
C521   C     0.86041   0.17056   0.68393   0.00000  Uiso   1.00
C522   C     0.94254   0.18687   0.67971   0.00000  Uiso   1.00
C523   C     0.96423   0.26711   0.67343   0.00000  Uiso   1.00
C524   C     0.76172   0.07333   0.66084   0.00000  Uiso   1.00
C525   C     0.76087   0.00787   0.63720   0.00000  Uiso   1.00
C526   C     0.69947   0.00624   0.61147   0.00000  Uiso   1.00
C527   C     0.77409   0.09558   0.72575   0.00000  Uiso   1.00
C528   C     0.78363   0.04882   0.75669   0.00000  Uiso   1.00
C529   C     0.73263   0.06591   0.78561   0.00000  Uiso   1.00
H530   H     0.67031   0.24872   0.68581   0.00000  Uiso   1.00
H531   H     0.77837   0.36013   0.67413   0.00000  Uiso   1.00
H532   H     0.59672   0.18115   0.63163   0.00000  Uiso   1.00
H533   H     0.61948   0.22210   0.75110   0.00000  Uiso   1.00
H534   H     0.92392   0.45646   0.66205   0.00000  Uiso   1.00
H535   H     0.54089   0.07906   0.57244   0.00000  Uiso   1.00
H536   H     0.58888   0.16540   0.82436   0.00000  Uiso   1.00
H537   H     0.86877   0.03923   0.69255   0.00000  Uiso   1.00
H538   H     0.98772   0.13915   0.68125   0.00000  Uiso   1.00
H539   H     0.80607   0.96017   0.63874   0.00000  Uiso   1.00
H540   H     0.82883   0.00111   0.75821   0.00000  Uiso   1.00
H541   H     0.09384   0.27709   0.66782   0.00000  Uiso   1.00
H542   H     0.71080   0.89969   0.57821   0.00000  Uiso   1.00
H543   H     0.75879   0.98604   0.83013   0.00000  Uiso   1.00
O544   O     0.08355   0.43628   0.65737   0.00000  Uiso   1.00
O545   O     0.58101   0.94114   0.53980   0.00000  Uiso   1.00
O546   O     0.64398   0.05442   0.87032   0.00000  Uiso   1.00
N547   N     0.94759   0.40053   0.66497   0.00000  Uiso   1.00
N548   N     0.58948   0.04770   0.58118   0.00000  Uiso   1.00
N549   N     0.63433   0.12840   0.81670   0.00000  Uiso   1.00
N550   N     0.03902   0.30402   0.66807   0.00000  Uiso   1.00
N551   N     0.68091   0.95118   0.58429   0.00000  Uiso   1.00
N552   N     0.72576   0.03189   0.81981   0.00000  Uiso   1.00
C553   C     0.20073   0.28422   0.31264   0.00000  Uiso   1.00
C554   C     0.23221   0.19799   0.31805   0.00000  Uiso   1.00
C555   C     0.31244   0.17642   0.32433   0.00000  Uiso   1.00
C556   C     0.32886   0.09428   0.32856   0.00000  Uiso   1.00
C557   C     0.38712   0.96927   0.33728   0.00000  Uiso   1.00
C558   C     0.13497   0.29668   0.34115   0.00000  Uiso   1.00
C559   C     0.13344   0.35809   0.36684   0.00000  Uiso   1.00
C560   C     0.06800   0.35903   0.39052   0.00000  Uiso   1.00
C561   C     0.97526   0.38728   0.43507   0.00000  Uiso   1.00
C562   C     0.15723   0.28431   0.27624   0.00000  Uiso   1.00
C563   C     0.17439   0.33533   0.24736   0.00000  Uiso   1.00
C564   C     0.12767   0.32587   0.21638   0.00000  Uiso   1.00
C565   C     0.06948   0.33491   0.16015   0.00000  Uiso   1.00
C566   C     0.08723   0.17670   0.30899   0.00000  Uiso   1.00
C567   C     0.17056   0.13959   0.31607   0.00000  Uiso   1.00
C568   C     0.18687   0.05746   0.32029   0.00000  Uiso   1.00
C569   C     0.26711   0.03577   0.32657   0.00000  Uiso   1.00
C570   C     0.07333   0.23828   0.33916   0.00000  Uiso   1.00
C571   C     0.00787   0.23913   0.36280   0.00000  Uiso   1.00
C572   C     0.00624   0.30053   0.38853   0.00000  Uiso   1.00
C573   C     0.09558   0.22591   0.27425   0.00000  Uiso   1.00
C574   C     0.04882   0.21637   0.24331   0.00000  Uiso   1.00
C575   C     0.06591   0.26737   0.21439   0.00000  Uiso   1.00
H576   H     0.24872   0.32969   0.31419   0.00000  Uiso   1.00
H577   H     0.36013   0.22163   0.32587   0.00000  Uiso   1.00
H578   H     0.18115   0.40328   0.36837   0.00000  Uiso   1.00
H579   H     0.22210   0.38052   0.24890   0.00000  Uiso   1.00
H580   H     0.45646   0.07608   0.33795   0.00000  Uiso   1.00
H581   H     0.07906   0.45911   0.42756   0.00000  Uiso   1.00
H582   H     0.16540   0.41112   0.17564   0.00000  Uiso   1.00
H583   H     0.03923   0.13123   0.30745   0.00000  Uiso   1.00
H584   H     0.13915   0.01228   0.31875   0.00000  Uiso   1.00
H585   H     0.96017   0.19393   0.36126   0.00000  Uiso   1.00
H586   H     0.00111   0.17117   0.24179   0.00000  Uiso   1.00
H587   H     0.27709   0.90616   0.33218   0.00000  Uiso   1.00
H588   H     0.89969   0.28920   0.42179   0.00000  Uiso   1.00
H589   H     0.98604   0.24121   0.16987   0.00000  Uiso   1.00
O590   O     0.43628   0.91645   0.34263   0.00000  Uiso   1.00
O591   O     0.94114   0.41899   0.46020   0.00000  Uiso   1.00
O592   O     0.05442   0.35602   0.12968   0.00000  Uiso   1.00
N593   N     0.40053   0.05241   0.33503   0.00000  Uiso   1.00
N594   N     0.04770   0.41052   0.41882   0.00000  Uiso   1.00
N595   N     0.12840   0.36567   0.18330   0.00000  Uiso   1.00
N596   N     0.30402   0.96098   0.33193   0.00000  Uiso   1.00
N597   N     0.95118   0.31909   0.41571   0.00000  Uiso   1.00
N598   N     0.03189   0.27424   0.18019   0.00000  Uiso   1.00
C599   C     0.70073   0.78422   0.81264   0.00000  Uiso   1.00
C600   C     0.73221   0.69799   0.81805   0.00000  Uiso   1.00
C601   C     0.81244   0.67642   0.82433   0.00000  Uiso   1.00
C602   C     0.82886   0.59428   0.82856   0.00000  Uiso   1.00
C603   C     0.88712   0.46927   0.83728   0.00000  Uiso   1.00
C604   C     0.63497   0.79668   0.84115   0.00000  Uiso   1.00
C605   C     0.63344   0.85809   0.86684   0.00000  Uiso   1.00
C606   C     0.56800   0.85903   0.89052   0.00000  Uiso   1.00
C607   C     0.47526   0.88728   0.93507   0.00000  Uiso   1.00
C608   C     0.65723   0.78431   0.77624   0.00000  Uiso   1.00
C609   C     0.67439   0.83533   0.74736   0.00000  Uiso   1.00
C610   C     0.62767   0.82587   0.71638   0.00000  Uiso   1.00
C611   C     0.56948   0.83491   0.66015   0.00000  Uiso   1.00
C612   C     0.58723   0.67670   0.80899   0.00000  Uiso   1.00
C613   C     0.67056   0.63959   0.81607   0.00000  Uiso   1.00
C614   C     0.68687   0.55746   0.82029   0.00000  Uiso   1.00
C615   C     0.76711   0.53577   0.82657   0.00000  Uiso   1.00
C616   C     0.57333   0.73828   0.83916   0.00000  Uiso   1.00
C617   C     0.50787   0.73913   0.86280   0.00000  Uiso   1.00
C618   C     0.50624   0.80053   0.88853   0.00000  Uiso   1.00
C619   C     0.59558   0.72591   0.77425   0.00000  Uiso   1.00
C620   C     0.54882   0.71637   0.74331   0.00000  Uiso   1.00
C621   C     0.56591   0.76737   0.71439   0.00000  Uiso   1.00
H622   H     0.74872   0.82969   0.81419   0.00000  Uiso   1.00
H623   H     0.86013   0.72163   0.82587   0.00000  Uiso   1.00
H624   H     0.68115   0.90328   0.86837   0.00000  Uiso   1.00
H625   H     0.72210   0.88052   0.74890   0.00000  Uiso   1.00
H626   H     0.95646   0.57608   0.83795   0.00000  Uiso   1.00
H627   H     0.57906   0.95911   0.92756   0.00000  Uiso   1.00
H628   H     0.66540   0.91112   0.67564   0.00000  Uiso   1.00
H629   H     0.53923   0.63123   0.80745   0.00000  Uiso   1.00
H630   H     0.63915   0.51228   0.81875   0.00000  Uiso   1.00
H631   H     0.46017   0.69393   0.86126   0.00000  Uiso   1.00
H632   H     0.50111   0.67117   0.74179   0.00000  Uiso   1.00
H633   H     0.77709   0.40616   0.83218   0.00000  Uiso   1.00
H634   H     0.39969   0.78920   0.92179   0.00000  Uiso   1.00
H635   H     0.48604   0.74121   0.66987   0.00000  Uiso   1.00
O636   O     0.93628   0.41645   0.84263   0.00000  Uiso   1.00
O637   O     0.44114   0.91899   0.96020   0.00000  Uiso   1.00
O638   O     0.55442   0.85602   0.62968   0.00000  Uiso   1.00
N639   N     0.90053   0.55241   0.83503   0.00000  Uiso   1.00
N640   N     0.54770   0.91052   0.91882   0.00000  Uiso   1.00
N641   N     0.62840   0.86567   0.68330   0.00000  Uiso   1.00
N642   N     0.80402   0.46098   0.83193   0.00000  Uiso   1.00
N643   N     0.45118   0.81909   0.91571   0.00000  Uiso   1.00
N644   N     0.53189   0.77424   0.68019   0.00000  Uiso   1.00
C645   C     0.79927   0.71578   0.31264   0.00000  Uiso   1.00
C646   C     0.76779   0.80201   0.31805   0.00000  Uiso   1.00
C647   C     0.68756   0.82358   0.32433   0.00000  Uiso   1.00
C648   C     0.67114   0.90572   0.32856   0.00000  Uiso   1.00
C649   C     0.61288   0.03073   0.33728   0.00000  Uiso   1.00
C650   C     0.86503   0.70332   0.34115   0.00000  Uiso   1.00
C651   C     0.86656   0.64191   0.36684   0.00000  Uiso   1.00
C652   C     0.93200   0.64097   0.39052   0.00000  Uiso   1.00
C653   C     0.02474   0.61272   0.43507   0.00000  Uiso   1.00
C654   C     0.84277   0.71569   0.27624   0.00000  Uiso   1.00
C655   C     0.82561   0.66467   0.24736   0.00000  Uiso   1.00
C656   C     0.87233   0.67413   0.21638   0.00000  Uiso   1.00
C657   C     0.93052   0.66509   0.16015   0.00000  Uiso   1.00
C658   C     0.91277   0.82330   0.30899   0.00000  Uiso   1.00
C659   C     0.82944   0.86041   0.31607   0.00000  Uiso   1.00
C660   C     0.81313   0.94254   0.32029   0.00000  Uiso   1.00
C661   C     0.73289   0.96423   0.32657   0.00000  Uiso   1.00
C662   C     0.92667   0.76172   0.33916   0.00000  Uiso   1.00
C663   C     0.99213   0.76087   0.36280   0.00000  Uiso   1.00
C664   C     0.99376   0.69947   0.38853   0.00000  Uiso   1.00
C665   C     0.90442   0.77409   0.27425   0.00000  Uiso   1.00
C666   C     0.95118   0.78363   0.24331   0.00000  Uiso   1.00
C667   C     0.93409   0.73263   0.21439   0.00000  Uiso   1.00
H668   H     0.75128   0.67031   0.31419   0.00000  Uiso   1.00
H669   H     0.63987   0.77837   0.32587   0.00000  Uiso   1.00
H670   H     0.81885   0.59672   0.36837   0.00000  Uiso   1.00
H671   H     0.77790   0.61948   0.24890   0.00000  Uiso   1.00
H672   H     0.54354   0.92392   0.33795   0.00000  Uiso   1.00
H673   H     0.92094   0.54089   0.42756   0.00000  Uiso   1.00
H674   H     0.83460   0.58888   0.17564   0.00000  Uiso   1.00
H675   H     0.96077   0.86877   0.30745   0.00000  Uiso   1.00
H676   H     0.86085   0.98772   0.31875   0.00000  Uiso   1.00
H677   H     0.03983   0.80607   0.36126   0.00000  Uiso   1.00
H678   H     0.99889   0.82883   0.24179   0.00000  Uiso   1.00
H679   H     0.72291   0.09384   0.33218   0.00000  Uiso   1.00
H680   H     0.10031   0.71080   0.42179   0.00000  Uiso   1.00
H681   H     0.01396   0.75879   0.16987   0.00000  Uiso   1.00
O682   O     0.56372   0.08355   0.34263   0.00000  Uiso   1.00
O683   O     0.05886   0.58101   0.46020   0.00000  Uiso   1.00
O684   O     0.94558   0.64398   0.12968   0.00000  Uiso   1.00
N685   N     0.59947   0.94759   0.33503   0.00000  Uiso   1.00
N686   N     0.95230   0.58948   0.41882   0.00000  Uiso   1.00
N687   N     0.87160   0.63433   0.18330   0.00000  Uiso   1.00
N688   N     0.69598   0.03902   0.33193   0.00000  Uiso   1.00
N689   N     0.04882   0.68091   0.41571   0.00000  Uiso   1.00
N690   N     0.96811   0.72576   0.18019   0.00000  Uiso   1.00
C691   C     0.29927   0.21578   0.81264   0.00000  Uiso   1.00
C692   C     0.26779   0.30201   0.81805   0.00000  Uiso   1.00
C693   C     0.18756   0.32358   0.82433   0.00000  Uiso   1.00
C694   C     0.17114   0.40572   0.82856   0.00000  Uiso   1.00
C695   C     0.11288   0.53073   0.83728   0.00000  Uiso   1.00
C696   C     0.36503   0.20332   0.84115   0.00000  Uiso   1.00
C697   C     0.36656   0.14191   0.86684   0.00000  Uiso   1.00
C698   C     0.43200   0.14097   0.89052   0.00000  Uiso   1.00
C699   C     0.52474   0.11272   0.93507   0.00000  Uiso   1.00
C700   C     0.34277   0.21569   0.77624   0.00000  Uiso   1.00
C701   C     0.32561   0.16467   0.74736   0.00000  Uiso   1.00
C702   C     0.37233   0.17413   0.71638   0.00000  Uiso   1.00
C703   C     0.43052   0.16509   0.66015   0.00000  Uiso   1.00
C704   C     0.41277   0.32330   0.80899   0.00000  Uiso   1.00
C705   C     0.32944   0.36041   0.81607   0.00000  Uiso   1.00
C706   C     0.31313   0.44254   0.82029   0.00000  Uiso   1.00
C707   C     0.23289   0.46423   0.82657   0.00000  Uiso   1.00
C708   C     0.42667   0.26172   0.83916   0.00000  Uiso   1.00
C709   C     0.49213   0.26087   0.86280   0.00000  Uiso   1.00
C710   C     0.49376   0.19947   0.88853   0.00000  Uiso   1.00
C711   C     0.40442   0.27409   0.77425   0.00000  Uiso   1.00
C712   C     0.45118   0.28363   0.74331   0.00000  Uiso   1.00
C713   C     0.43409   0.23263   0.71439   0.00000  Uiso   1.00
H714   H     0.25128   0.17031   0.81419   0.00000  Uiso   1.00
H715   H     0.13987   0.27837   0.82587   0.00000  Uiso   1.00
H716   H     0.31885   0.09672   0.86837   0.00000  Uiso   1.00
H717   H     0.27790   0.11948   0.74890   0.00000  Uiso   1.00
H718   H     0.04354   0.42392   0.83795   0.00000  Uiso   1.00
H719   H     0.42094   0.04089   0.92756   0.00000  Uiso   1.00
H720   H     0.33460   0.08888   0.67564   0.00000  Uiso   1.00
H721   H     0.46077   0.36877   0.80745   0.00000  Uiso   1.00
H722   H     0.36085   0.48772   0.81875   0.00000  Uiso   1.00
H723   H     0.53983   0.30607   0.86126   0.00000  Uiso   1.00
H724   H     0.49889   0.32883   0.74179   0.00000  Uiso   1.00
H725   H     0.22291   0.59384   0.83218   0.00000  Uiso   1.00
H726   H     0.60031   0.21080   0.92179   0.00000  Uiso   1.00
H727   H     0.51396   0.25879   0.66987   0.00000  Uiso   1.00
O728   O     0.06372   0.58355   0.84263   0.00000  Uiso   1.00
O729   O     0.55886   0.08101   0.96020   0.00000  Uiso   1.00
O730   O     0.44558   0.14398   0.62968   0.00000  Uiso   1.00
N731   N     0.09947   0.44759   0.83503   0.00000  Uiso   1.00
N732   N     0.45230   0.08948   0.91882   0.00000  Uiso   1.00
N733   N     0.37160   0.13433   0.68330   0.00000  Uiso   1.00
N734   N     0.19598   0.53902   0.83193   0.00000  Uiso   1.00
N735   N     0.54882   0.18091   0.91571   0.00000  Uiso   1.00
N736   N     0.46811   0.22576   0.68019   0.00000  Uiso   1.00
