data_job_02552
_audit_creation_date              2018-12-19
_audit_creation_method            'Materials Studio'
_symmetry_space_group_name_H-M    'P1'
_symmetry_Int_Tables_number       1
_symmetry_cell_setting            triclinic
loop_
_symmetry_equiv_pos_as_xyz
  x,y,z
_cell_length_a                    31.4332
_cell_length_b                    31.4332
_cell_length_c                    10.8526
_cell_angle_alpha                 90.0000
_cell_angle_beta                  90.0000
_cell_angle_gamma                 90.0000
loop_
_atom_site_label
_atom_site_type_symbol
_atom_site_fract_x
_atom_site_fract_y
_atom_site_fract_z
_atom_site_U_iso_or_equiv
_atom_site_adp_type
_atom_site_occupancy
C1     C     0.09952   0.58968   0.17906   0.00000  Uiso   1.00
C2     C     0.09133   0.59076   0.31753   0.00000  Uiso   1.00
C3     C     0.07543   0.55743   0.38760   0.00000  Uiso   1.00
C4     C     0.07022   0.56476   0.51285   0.00000  Uiso   1.00
C5     C     0.05591   0.56046   0.71976   0.00000  Uiso   1.00
C6     C     0.07402   0.62643   0.12463   0.00000  Uiso   1.00
C7     C     0.04358   0.62309   0.03251   0.00000  Uiso   1.00
C8     C     0.02381   0.66045   0.99538   0.00000  Uiso   1.00
C9     C     0.98266   0.71154   0.90274   0.00000  Uiso   1.00
C10    C     0.14623   0.60140   0.16207   0.00000  Uiso   1.00
C11    C     0.17649   0.57701   0.10140   0.00000  Uiso   1.00
C12    C     0.21750   0.59330   0.09575   0.00000  Uiso   1.00
C13    C     0.28846   0.60552   0.06125   0.00000  Uiso   1.00
C14    C     0.11853   0.66197   0.27689   0.00000  Uiso   1.00
C15    C     0.10166   0.63003   0.37065   0.00000  Uiso   1.00
C16    C     0.09647   0.63741   0.49584   0.00000  Uiso   1.00
C17    C     0.08057   0.60409   0.56609   0.00000  Uiso   1.00
C18    C     0.08435   0.66569   0.17776   0.00000  Uiso   1.00
C19    C     0.06462   0.70307   0.14074   0.00000  Uiso   1.00
C20    C     0.03415   0.69978   0.04860   0.00000  Uiso   1.00
C21    C     0.15656   0.64066   0.21520   0.00000  Uiso   1.00
C22    C     0.19753   0.65699   0.20964   0.00000  Uiso   1.00
C23    C     0.22785   0.63263   0.14898   0.00000  Uiso   1.00
H24    H     0.09147   0.55911   0.13769   0.00000  Uiso   1.00
H25    H     0.06744   0.52705   0.34645   0.00000  Uiso   1.00
H26    H     0.03560   0.59270   0.99140   0.00000  Uiso   1.00
H27    H     0.16849   0.54663   0.06029   0.00000  Uiso   1.00
H28    H     0.04533   0.50881   0.60132   0.00000  Uiso   1.00
H29    H     0.97820   0.64725   0.85266   0.00000  Uiso   1.00
H30    H     0.25842   0.55010   0.99791   0.00000  Uiso   1.00
H31    H     0.12658   0.69254   0.31825   0.00000  Uiso   1.00
H32    H     0.10447   0.66779   0.53693   0.00000  Uiso   1.00
H33    H     0.07262   0.73345   0.18188   0.00000  Uiso   1.00
H34    H     0.20551   0.68737   0.25077   0.00000  Uiso   1.00
H35    H     0.07538   0.62305   0.75592   0.00000  Uiso   1.00
H36    H     0.00825   0.76148   0.00725   0.00000  Uiso   1.00
H37    H     0.28848   0.66433   0.15251   0.00000  Uiso   1.00
O38    O     0.04516   0.54725   0.81920   0.00000  Uiso   1.00
O39    O     0.95710   0.72887   0.83698   0.00000  Uiso   1.00
O40    O     0.32474   0.60141   0.02755   0.00000  Uiso   1.00
N41    N     0.05544   0.53909   0.60770   0.00000  Uiso   1.00
N42    N     0.99268   0.66852   0.90776   0.00000  Uiso   1.00
N43    N     0.25466   0.57770   0.04353   0.00000  Uiso   1.00
N44    N     0.07162   0.60056   0.69089   0.00000  Uiso   1.00
N45    N     0.00885   0.72999   0.99095   0.00000  Uiso   1.00
N46    N     0.27083   0.63917   0.12672   0.00000  Uiso   1.00
C47    C     0.59952   0.08968   0.67906   0.00000  Uiso   1.00
C48    C     0.59133   0.09076   0.81753   0.00000  Uiso   1.00
C49    C     0.57543   0.05743   0.88760   0.00000  Uiso   1.00
C50    C     0.57022   0.06476   0.01285   0.00000  Uiso   1.00
C51    C     0.55591   0.06046   0.21976   0.00000  Uiso   1.00
C52    C     0.57402   0.12643   0.62463   0.00000  Uiso   1.00
C53    C     0.54358   0.12309   0.53251   0.00000  Uiso   1.00
C54    C     0.52381   0.16045   0.49538   0.00000  Uiso   1.00
C55    C     0.48266   0.21154   0.40274   0.00000  Uiso   1.00
C56    C     0.64623   0.10140   0.66207   0.00000  Uiso   1.00
C57    C     0.67649   0.07701   0.60140   0.00000  Uiso   1.00
C58    C     0.71750   0.09330   0.59575   0.00000  Uiso   1.00
C59    C     0.78846   0.10552   0.56125   0.00000  Uiso   1.00
C60    C     0.61853   0.16197   0.77689   0.00000  Uiso   1.00
C61    C     0.60166   0.13003   0.87065   0.00000  Uiso   1.00
C62    C     0.59647   0.13741   0.99584   0.00000  Uiso   1.00
C63    C     0.58057   0.10409   0.06609   0.00000  Uiso   1.00
C64    C     0.58435   0.16569   0.67776   0.00000  Uiso   1.00
C65    C     0.56462   0.20307   0.64074   0.00000  Uiso   1.00
C66    C     0.53415   0.19978   0.54860   0.00000  Uiso   1.00
C67    C     0.65656   0.14066   0.71520   0.00000  Uiso   1.00
C68    C     0.69753   0.15699   0.70964   0.00000  Uiso   1.00
C69    C     0.72785   0.13263   0.64898   0.00000  Uiso   1.00
H70    H     0.59147   0.05911   0.63769   0.00000  Uiso   1.00
H71    H     0.56744   0.02705   0.84645   0.00000  Uiso   1.00
H72    H     0.53560   0.09270   0.49140   0.00000  Uiso   1.00
H73    H     0.66849   0.04663   0.56029   0.00000  Uiso   1.00
H74    H     0.54533   0.00881   0.10132   0.00000  Uiso   1.00
H75    H     0.47820   0.14725   0.35266   0.00000  Uiso   1.00
H76    H     0.75842   0.05010   0.49791   0.00000  Uiso   1.00
H77    H     0.62658   0.19254   0.81825   0.00000  Uiso   1.00
H78    H     0.60447   0.16779   0.03693   0.00000  Uiso   1.00
H79    H     0.57262   0.23345   0.68188   0.00000  Uiso   1.00
H80    H     0.70551   0.18737   0.75077   0.00000  Uiso   1.00
H81    H     0.57538   0.12305   0.25592   0.00000  Uiso   1.00
H82    H     0.50825   0.26148   0.50725   0.00000  Uiso   1.00
H83    H     0.78848   0.16433   0.65251   0.00000  Uiso   1.00
O84    O     0.54516   0.04725   0.31920   0.00000  Uiso   1.00
O85    O     0.45710   0.22887   0.33698   0.00000  Uiso   1.00
O86    O     0.82474   0.10141   0.52755   0.00000  Uiso   1.00
N87    N     0.55544   0.03909   0.10770   0.00000  Uiso   1.00
N88    N     0.49268   0.16852   0.40776   0.00000  Uiso   1.00
N89    N     0.75466   0.07770   0.54353   0.00000  Uiso   1.00
N90    N     0.57162   0.10056   0.19089   0.00000  Uiso   1.00
N91    N     0.50885   0.22999   0.49095   0.00000  Uiso   1.00
N92    N     0.77083   0.13917   0.62672   0.00000  Uiso   1.00
C93    C     0.40048   0.91032   0.67906   0.00000  Uiso   1.00
C94    C     0.40867   0.90924   0.81753   0.00000  Uiso   1.00
C95    C     0.42457   0.94257   0.88760   0.00000  Uiso   1.00
C96    C     0.42978   0.93524   0.01285   0.00000  Uiso   1.00
C97    C     0.44409   0.93954   0.21976   0.00000  Uiso   1.00
C98    C     0.42598   0.87357   0.62463   0.00000  Uiso   1.00
C99    C     0.45642   0.87691   0.53251   0.00000  Uiso   1.00
C100   C     0.47619   0.83955   0.49538   0.00000  Uiso   1.00
C101   C     0.51734   0.78846   0.40274   0.00000  Uiso   1.00
C102   C     0.35377   0.89860   0.66207   0.00000  Uiso   1.00
C103   C     0.32351   0.92299   0.60140   0.00000  Uiso   1.00
C104   C     0.28250   0.90670   0.59575   0.00000  Uiso   1.00
C105   C     0.21154   0.89448   0.56125   0.00000  Uiso   1.00
C106   C     0.38147   0.83803   0.77689   0.00000  Uiso   1.00
C107   C     0.39834   0.86997   0.87065   0.00000  Uiso   1.00
C108   C     0.40353   0.86259   0.99584   0.00000  Uiso   1.00
C109   C     0.41943   0.89591   0.06609   0.00000  Uiso   1.00
C110   C     0.41565   0.83431   0.67776   0.00000  Uiso   1.00
C111   C     0.43538   0.79693   0.64074   0.00000  Uiso   1.00
C112   C     0.46585   0.80022   0.54860   0.00000  Uiso   1.00
C113   C     0.34344   0.85934   0.71520   0.00000  Uiso   1.00
C114   C     0.30247   0.84301   0.70964   0.00000  Uiso   1.00
C115   C     0.27215   0.86737   0.64898   0.00000  Uiso   1.00
H116   H     0.40853   0.94089   0.63769   0.00000  Uiso   1.00
H117   H     0.43256   0.97295   0.84645   0.00000  Uiso   1.00
H118   H     0.46440   0.90730   0.49140   0.00000  Uiso   1.00
H119   H     0.33151   0.95337   0.56029   0.00000  Uiso   1.00
H120   H     0.45467   0.99119   0.10132   0.00000  Uiso   1.00
H121   H     0.52180   0.85275   0.35266   0.00000  Uiso   1.00
H122   H     0.24158   0.94990   0.49791   0.00000  Uiso   1.00
H123   H     0.37342   0.80746   0.81825   0.00000  Uiso   1.00
H124   H     0.39553   0.83221   0.03693   0.00000  Uiso   1.00
H125   H     0.42738   0.76655   0.68188   0.00000  Uiso   1.00
H126   H     0.29449   0.81263   0.75077   0.00000  Uiso   1.00
H127   H     0.42462   0.87695   0.25592   0.00000  Uiso   1.00
H128   H     0.49175   0.73852   0.50725   0.00000  Uiso   1.00
H129   H     0.21152   0.83567   0.65251   0.00000  Uiso   1.00
O130   O     0.45484   0.95275   0.31920   0.00000  Uiso   1.00
O131   O     0.54290   0.77113   0.33698   0.00000  Uiso   1.00
O132   O     0.17526   0.89859   0.52755   0.00000  Uiso   1.00
N133   N     0.44456   0.96091   0.10770   0.00000  Uiso   1.00
N134   N     0.50732   0.83148   0.40776   0.00000  Uiso   1.00
N135   N     0.24534   0.92230   0.54353   0.00000  Uiso   1.00
N136   N     0.42838   0.89944   0.19089   0.00000  Uiso   1.00
N137   N     0.49115   0.77001   0.49095   0.00000  Uiso   1.00
N138   N     0.22917   0.86083   0.62672   0.00000  Uiso   1.00
C139   C     0.90048   0.41032   0.17906   0.00000  Uiso   1.00
C140   C     0.90867   0.40924   0.31753   0.00000  Uiso   1.00
C141   C     0.92457   0.44257   0.38760   0.00000  Uiso   1.00
C142   C     0.92978   0.43524   0.51285   0.00000  Uiso   1.00
C143   C     0.94409   0.43954   0.71976   0.00000  Uiso   1.00
C144   C     0.92598   0.37357   0.12463   0.00000  Uiso   1.00
C145   C     0.95642   0.37691   0.03251   0.00000  Uiso   1.00
C146   C     0.97619   0.33955   0.99538   0.00000  Uiso   1.00
C147   C     0.01734   0.28846   0.90274   0.00000  Uiso   1.00
C148   C     0.85377   0.39860   0.16207   0.00000  Uiso   1.00
C149   C     0.82351   0.42299   0.10140   0.00000  Uiso   1.00
C150   C     0.78250   0.40670   0.09575   0.00000  Uiso   1.00
C151   C     0.71154   0.39448   0.06125   0.00000  Uiso   1.00
C152   C     0.88147   0.33803   0.27689   0.00000  Uiso   1.00
C153   C     0.89834   0.36997   0.37065   0.00000  Uiso   1.00
C154   C     0.90353   0.36259   0.49584   0.00000  Uiso   1.00
C155   C     0.91943   0.39591   0.56609   0.00000  Uiso   1.00
C156   C     0.91565   0.33431   0.17776   0.00000  Uiso   1.00
C157   C     0.93538   0.29693   0.14074   0.00000  Uiso   1.00
C158   C     0.96585   0.30022   0.04860   0.00000  Uiso   1.00
C159   C     0.84344   0.35934   0.21520   0.00000  Uiso   1.00
C160   C     0.80247   0.34301   0.20964   0.00000  Uiso   1.00
C161   C     0.77215   0.36737   0.14898   0.00000  Uiso   1.00
H162   H     0.90853   0.44089   0.13769   0.00000  Uiso   1.00
H163   H     0.93256   0.47295   0.34645   0.00000  Uiso   1.00
H164   H     0.96440   0.40730   0.99140   0.00000  Uiso   1.00
H165   H     0.83151   0.45337   0.06029   0.00000  Uiso   1.00
H166   H     0.95467   0.49119   0.60132   0.00000  Uiso   1.00
H167   H     0.02180   0.35275   0.85266   0.00000  Uiso   1.00
H168   H     0.74158   0.44990   0.99791   0.00000  Uiso   1.00
H169   H     0.87342   0.30746   0.31825   0.00000  Uiso   1.00
H170   H     0.89553   0.33221   0.53693   0.00000  Uiso   1.00
H171   H     0.92738   0.26655   0.18188   0.00000  Uiso   1.00
H172   H     0.79449   0.31263   0.25077   0.00000  Uiso   1.00
H173   H     0.92462   0.37695   0.75592   0.00000  Uiso   1.00
H174   H     0.99175   0.23852   0.00725   0.00000  Uiso   1.00
H175   H     0.71152   0.33567   0.15251   0.00000  Uiso   1.00
O176   O     0.95484   0.45275   0.81920   0.00000  Uiso   1.00
O177   O     0.04290   0.27113   0.83698   0.00000  Uiso   1.00
O178   O     0.67526   0.39859   0.02755   0.00000  Uiso   1.00
N179   N     0.94456   0.46091   0.60770   0.00000  Uiso   1.00
N180   N     0.00732   0.33148   0.90776   0.00000  Uiso   1.00
N181   N     0.74534   0.42230   0.04353   0.00000  Uiso   1.00
N182   N     0.92838   0.39944   0.69089   0.00000  Uiso   1.00
N183   N     0.99115   0.27001   0.99095   0.00000  Uiso   1.00
N184   N     0.72917   0.36083   0.12672   0.00000  Uiso   1.00
C185   C     0.41032   0.59952   0.42906   0.00000  Uiso   1.00
C186   C     0.40924   0.59133   0.56753   0.00000  Uiso   1.00
C187   C     0.44257   0.57543   0.63760   0.00000  Uiso   1.00
C188   C     0.43524   0.57022   0.76285   0.00000  Uiso   1.00
C189   C     0.43954   0.55591   0.96976   0.00000  Uiso   1.00
C190   C     0.37357   0.57402   0.37463   0.00000  Uiso   1.00
C191   C     0.37691   0.54358   0.28251   0.00000  Uiso   1.00
C192   C     0.33955   0.52381   0.24538   0.00000  Uiso   1.00
C193   C     0.28846   0.48266   0.15274   0.00000  Uiso   1.00
C194   C     0.39860   0.64623   0.41207   0.00000  Uiso   1.00
C195   C     0.42299   0.67649   0.35140   0.00000  Uiso   1.00
C196   C     0.40670   0.71750   0.34575   0.00000  Uiso   1.00
C197   C     0.39448   0.78846   0.31125   0.00000  Uiso   1.00
C198   C     0.33803   0.61853   0.52689   0.00000  Uiso   1.00
C199   C     0.36997   0.60166   0.62065   0.00000  Uiso   1.00
C200   C     0.36259   0.59647   0.74584   0.00000  Uiso   1.00
C201   C     0.39591   0.58057   0.81609   0.00000  Uiso   1.00
C202   C     0.33431   0.58435   0.42776   0.00000  Uiso   1.00
C203   C     0.29693   0.56462   0.39074   0.00000  Uiso   1.00
C204   C     0.30022   0.53415   0.29860   0.00000  Uiso   1.00
C205   C     0.35934   0.65656   0.46520   0.00000  Uiso   1.00
C206   C     0.34301   0.69753   0.45964   0.00000  Uiso   1.00
C207   C     0.36737   0.72785   0.39898   0.00000  Uiso   1.00
H208   H     0.44089   0.59147   0.38769   0.00000  Uiso   1.00
H209   H     0.47295   0.56744   0.59645   0.00000  Uiso   1.00
H210   H     0.40730   0.53560   0.24140   0.00000  Uiso   1.00
H211   H     0.45337   0.66849   0.31029   0.00000  Uiso   1.00
H212   H     0.49119   0.54533   0.85132   0.00000  Uiso   1.00
H213   H     0.35275   0.47820   0.10266   0.00000  Uiso   1.00
H214   H     0.44990   0.75842   0.24791   0.00000  Uiso   1.00
H215   H     0.30746   0.62658   0.56825   0.00000  Uiso   1.00
H216   H     0.33221   0.60447   0.78693   0.00000  Uiso   1.00
H217   H     0.26655   0.57262   0.43188   0.00000  Uiso   1.00
H218   H     0.31263   0.70551   0.50077   0.00000  Uiso   1.00
H219   H     0.37695   0.57538   0.00592   0.00000  Uiso   1.00
H220   H     0.23852   0.50825   0.25725   0.00000  Uiso   1.00
H221   H     0.33567   0.78848   0.40251   0.00000  Uiso   1.00
O222   O     0.45275   0.54516   0.06920   0.00000  Uiso   1.00
O223   O     0.27113   0.45710   0.08698   0.00000  Uiso   1.00
O224   O     0.39859   0.82474   0.27755   0.00000  Uiso   1.00
N225   N     0.46091   0.55544   0.85770   0.00000  Uiso   1.00
N226   N     0.33148   0.49268   0.15776   0.00000  Uiso   1.00
N227   N     0.42230   0.75466   0.29353   0.00000  Uiso   1.00
N228   N     0.39944   0.57162   0.94089   0.00000  Uiso   1.00
N229   N     0.27001   0.50885   0.24095   0.00000  Uiso   1.00
N230   N     0.36083   0.77083   0.37672   0.00000  Uiso   1.00
C231   C     0.91032   0.09952   0.92906   0.00000  Uiso   1.00
C232   C     0.90924   0.09133   0.06753   0.00000  Uiso   1.00
C233   C     0.94257   0.07543   0.13760   0.00000  Uiso   1.00
C234   C     0.93524   0.07022   0.26285   0.00000  Uiso   1.00
C235   C     0.93954   0.05591   0.46976   0.00000  Uiso   1.00
C236   C     0.87357   0.07402   0.87463   0.00000  Uiso   1.00
C237   C     0.87691   0.04358   0.78251   0.00000  Uiso   1.00
C238   C     0.83955   0.02381   0.74538   0.00000  Uiso   1.00
C239   C     0.78846   0.98266   0.65274   0.00000  Uiso   1.00
C240   C     0.89860   0.14623   0.91207   0.00000  Uiso   1.00
C241   C     0.92299   0.17649   0.85140   0.00000  Uiso   1.00
C242   C     0.90670   0.21750   0.84575   0.00000  Uiso   1.00
C243   C     0.89448   0.28846   0.81125   0.00000  Uiso   1.00
C244   C     0.83803   0.11853   0.02689   0.00000  Uiso   1.00
C245   C     0.86997   0.10166   0.12065   0.00000  Uiso   1.00
C246   C     0.86259   0.09647   0.24584   0.00000  Uiso   1.00
C247   C     0.89591   0.08057   0.31609   0.00000  Uiso   1.00
C248   C     0.83431   0.08435   0.92776   0.00000  Uiso   1.00
C249   C     0.79693   0.06462   0.89074   0.00000  Uiso   1.00
C250   C     0.80022   0.03415   0.79860   0.00000  Uiso   1.00
C251   C     0.85934   0.15656   0.96520   0.00000  Uiso   1.00
C252   C     0.84301   0.19753   0.95964   0.00000  Uiso   1.00
C253   C     0.86737   0.22785   0.89898   0.00000  Uiso   1.00
H254   H     0.94089   0.09147   0.88769   0.00000  Uiso   1.00
H255   H     0.97295   0.06744   0.09645   0.00000  Uiso   1.00
H256   H     0.90730   0.03560   0.74140   0.00000  Uiso   1.00
H257   H     0.95337   0.16849   0.81029   0.00000  Uiso   1.00
H258   H     0.99119   0.04533   0.35132   0.00000  Uiso   1.00
H259   H     0.85275   0.97820   0.60266   0.00000  Uiso   1.00
H260   H     0.94990   0.25842   0.74791   0.00000  Uiso   1.00
H261   H     0.80746   0.12658   0.06825   0.00000  Uiso   1.00
H262   H     0.83221   0.10447   0.28693   0.00000  Uiso   1.00
H263   H     0.76655   0.07262   0.93188   0.00000  Uiso   1.00
H264   H     0.81263   0.20551   0.00077   0.00000  Uiso   1.00
H265   H     0.87695   0.07538   0.50592   0.00000  Uiso   1.00
H266   H     0.73852   0.00825   0.75725   0.00000  Uiso   1.00
H267   H     0.83567   0.28848   0.90251   0.00000  Uiso   1.00
O268   O     0.95275   0.04516   0.56920   0.00000  Uiso   1.00
O269   O     0.77113   0.95710   0.58698   0.00000  Uiso   1.00
O270   O     0.89859   0.32474   0.77755   0.00000  Uiso   1.00
N271   N     0.96091   0.05544   0.35770   0.00000  Uiso   1.00
N272   N     0.83148   0.99268   0.65776   0.00000  Uiso   1.00
N273   N     0.92230   0.25466   0.79353   0.00000  Uiso   1.00
N274   N     0.89944   0.07162   0.44089   0.00000  Uiso   1.00
N275   N     0.77001   0.00885   0.74095   0.00000  Uiso   1.00
N276   N     0.86083   0.27083   0.87672   0.00000  Uiso   1.00
C277   C     0.08968   0.90048   0.92906   0.00000  Uiso   1.00
C278   C     0.09076   0.90867   0.06753   0.00000  Uiso   1.00
C279   C     0.05743   0.92457   0.13760   0.00000  Uiso   1.00
C280   C     0.06476   0.92978   0.26285   0.00000  Uiso   1.00
C281   C     0.06046   0.94409   0.46976   0.00000  Uiso   1.00
C282   C     0.12643   0.92598   0.87463   0.00000  Uiso   1.00
C283   C     0.12309   0.95642   0.78251   0.00000  Uiso   1.00
C284   C     0.16045   0.97619   0.74538   0.00000  Uiso   1.00
C285   C     0.21154   0.01734   0.65274   0.00000  Uiso   1.00
C286   C     0.10140   0.85377   0.91207   0.00000  Uiso   1.00
C287   C     0.07701   0.82351   0.85140   0.00000  Uiso   1.00
C288   C     0.09330   0.78250   0.84575   0.00000  Uiso   1.00
C289   C     0.10552   0.71154   0.81125   0.00000  Uiso   1.00
C290   C     0.16197   0.88147   0.02689   0.00000  Uiso   1.00
C291   C     0.13003   0.89834   0.12065   0.00000  Uiso   1.00
C292   C     0.13741   0.90353   0.24584   0.00000  Uiso   1.00
C293   C     0.10409   0.91943   0.31609   0.00000  Uiso   1.00
C294   C     0.16569   0.91565   0.92776   0.00000  Uiso   1.00
C295   C     0.20307   0.93538   0.89074   0.00000  Uiso   1.00
C296   C     0.19978   0.96585   0.79860   0.00000  Uiso   1.00
C297   C     0.14066   0.84344   0.96520   0.00000  Uiso   1.00
C298   C     0.15699   0.80247   0.95964   0.00000  Uiso   1.00
C299   C     0.13263   0.77215   0.89898   0.00000  Uiso   1.00
H300   H     0.05911   0.90853   0.88769   0.00000  Uiso   1.00
H301   H     0.02705   0.93256   0.09645   0.00000  Uiso   1.00
H302   H     0.09270   0.96440   0.74140   0.00000  Uiso   1.00
H303   H     0.04663   0.83151   0.81029   0.00000  Uiso   1.00
H304   H     0.00881   0.95467   0.35132   0.00000  Uiso   1.00
H305   H     0.14725   0.02180   0.60266   0.00000  Uiso   1.00
H306   H     0.05010   0.74158   0.74791   0.00000  Uiso   1.00
H307   H     0.19254   0.87342   0.06825   0.00000  Uiso   1.00
H308   H     0.16779   0.89553   0.28693   0.00000  Uiso   1.00
H309   H     0.23345   0.92738   0.93188   0.00000  Uiso   1.00
H310   H     0.18737   0.79449   0.00077   0.00000  Uiso   1.00
H311   H     0.12305   0.92462   0.50592   0.00000  Uiso   1.00
H312   H     0.26148   0.99175   0.75725   0.00000  Uiso   1.00
H313   H     0.16433   0.71152   0.90251   0.00000  Uiso   1.00
O314   O     0.04725   0.95484   0.56920   0.00000  Uiso   1.00
O315   O     0.22887   0.04290   0.58698   0.00000  Uiso   1.00
O316   O     0.10141   0.67526   0.77755   0.00000  Uiso   1.00
N317   N     0.03909   0.94456   0.35770   0.00000  Uiso   1.00
N318   N     0.16852   0.00732   0.65776   0.00000  Uiso   1.00
N319   N     0.07770   0.74534   0.79353   0.00000  Uiso   1.00
N320   N     0.10056   0.92838   0.44089   0.00000  Uiso   1.00
N321   N     0.22999   0.99115   0.74095   0.00000  Uiso   1.00
N322   N     0.13917   0.72917   0.87672   0.00000  Uiso   1.00
C323   C     0.58968   0.40048   0.42906   0.00000  Uiso   1.00
C324   C     0.59076   0.40867   0.56753   0.00000  Uiso   1.00
C325   C     0.55743   0.42457   0.63760   0.00000  Uiso   1.00
C326   C     0.56476   0.42978   0.76285   0.00000  Uiso   1.00
C327   C     0.56046   0.44409   0.96976   0.00000  Uiso   1.00
C328   C     0.62643   0.42598   0.37463   0.00000  Uiso   1.00
C329   C     0.62309   0.45642   0.28251   0.00000  Uiso   1.00
C330   C     0.66045   0.47619   0.24538   0.00000  Uiso   1.00
C331   C     0.71154   0.51734   0.15274   0.00000  Uiso   1.00
C332   C     0.60140   0.35377   0.41207   0.00000  Uiso   1.00
C333   C     0.57701   0.32351   0.35140   0.00000  Uiso   1.00
C334   C     0.59330   0.28250   0.34575   0.00000  Uiso   1.00
C335   C     0.60552   0.21154   0.31125   0.00000  Uiso   1.00
C336   C     0.66197   0.38147   0.52689   0.00000  Uiso   1.00
C337   C     0.63003   0.39834   0.62065   0.00000  Uiso   1.00
C338   C     0.63741   0.40353   0.74584   0.00000  Uiso   1.00
C339   C     0.60409   0.41943   0.81609   0.00000  Uiso   1.00
C340   C     0.66569   0.41565   0.42776   0.00000  Uiso   1.00
C341   C     0.70307   0.43538   0.39074   0.00000  Uiso   1.00
C342   C     0.69978   0.46585   0.29860   0.00000  Uiso   1.00
C343   C     0.64066   0.34344   0.46520   0.00000  Uiso   1.00
C344   C     0.65699   0.30247   0.45964   0.00000  Uiso   1.00
C345   C     0.63263   0.27215   0.39898   0.00000  Uiso   1.00
H346   H     0.55911   0.40853   0.38769   0.00000  Uiso   1.00
H347   H     0.52705   0.43256   0.59645   0.00000  Uiso   1.00
H348   H     0.59270   0.46440   0.24140   0.00000  Uiso   1.00
H349   H     0.54663   0.33151   0.31029   0.00000  Uiso   1.00
H350   H     0.50881   0.45467   0.85132   0.00000  Uiso   1.00
H351   H     0.64725   0.52180   0.10266   0.00000  Uiso   1.00
H352   H     0.55010   0.24158   0.24791   0.00000  Uiso   1.00
H353   H     0.69254   0.37342   0.56825   0.00000  Uiso   1.00
H354   H     0.66779   0.39553   0.78693   0.00000  Uiso   1.00
H355   H     0.73345   0.42738   0.43188   0.00000  Uiso   1.00
H356   H     0.68737   0.29449   0.50077   0.00000  Uiso   1.00
H357   H     0.62305   0.42462   0.00592   0.00000  Uiso   1.00
H358   H     0.76148   0.49175   0.25725   0.00000  Uiso   1.00
H359   H     0.66433   0.21152   0.40251   0.00000  Uiso   1.00
O360   O     0.54725   0.45484   0.06920   0.00000  Uiso   1.00
O361   O     0.72887   0.54290   0.08698   0.00000  Uiso   1.00
O362   O     0.60141   0.17526   0.27755   0.00000  Uiso   1.00
N363   N     0.53909   0.44456   0.85770   0.00000  Uiso   1.00
N364   N     0.66852   0.50732   0.15776   0.00000  Uiso   1.00
N365   N     0.57770   0.24534   0.29353   0.00000  Uiso   1.00
N366   N     0.60056   0.42838   0.94089   0.00000  Uiso   1.00
N367   N     0.72999   0.49115   0.24095   0.00000  Uiso   1.00
N368   N     0.63917   0.22917   0.37672   0.00000  Uiso   1.00
C369   C     0.90048   0.91032   0.07094   0.00000  Uiso   1.00
C370   C     0.90867   0.90924   0.93247   0.00000  Uiso   1.00
C371   C     0.92457   0.94257   0.86240   0.00000  Uiso   1.00
C372   C     0.92978   0.93524   0.73715   0.00000  Uiso   1.00
C373   C     0.94409   0.93954   0.53024   0.00000  Uiso   1.00
C374   C     0.92598   0.87357   0.12537   0.00000  Uiso   1.00
C375   C     0.95642   0.87691   0.21749   0.00000  Uiso   1.00
C376   C     0.97619   0.83955   0.25462   0.00000  Uiso   1.00
C377   C     0.01734   0.78846   0.34726   0.00000  Uiso   1.00
C378   C     0.85377   0.89860   0.08793   0.00000  Uiso   1.00
C379   C     0.82351   0.92299   0.14860   0.00000  Uiso   1.00
C380   C     0.78250   0.90670   0.15425   0.00000  Uiso   1.00
C381   C     0.71154   0.89448   0.18875   0.00000  Uiso   1.00
C382   C     0.88147   0.83803   0.97311   0.00000  Uiso   1.00
C383   C     0.89834   0.86997   0.87935   0.00000  Uiso   1.00
C384   C     0.90353   0.86259   0.75416   0.00000  Uiso   1.00
C385   C     0.91943   0.89591   0.68391   0.00000  Uiso   1.00
C386   C     0.91565   0.83431   0.07224   0.00000  Uiso   1.00
C387   C     0.93538   0.79693   0.10926   0.00000  Uiso   1.00
C388   C     0.96585   0.80022   0.20140   0.00000  Uiso   1.00
C389   C     0.84344   0.85934   0.03480   0.00000  Uiso   1.00
C390   C     0.80247   0.84301   0.04036   0.00000  Uiso   1.00
C391   C     0.77215   0.86737   0.10102   0.00000  Uiso   1.00
H392   H     0.90853   0.94089   0.11231   0.00000  Uiso   1.00
H393   H     0.93256   0.97295   0.90355   0.00000  Uiso   1.00
H394   H     0.96440   0.90730   0.25860   0.00000  Uiso   1.00
H395   H     0.83151   0.95337   0.18971   0.00000  Uiso   1.00
H396   H     0.95467   0.99119   0.64868   0.00000  Uiso   1.00
H397   H     0.02180   0.85275   0.39734   0.00000  Uiso   1.00
H398   H     0.74158   0.94990   0.25209   0.00000  Uiso   1.00
H399   H     0.87342   0.80746   0.93175   0.00000  Uiso   1.00
H400   H     0.89553   0.83221   0.71307   0.00000  Uiso   1.00
H401   H     0.92738   0.76655   0.06812   0.00000  Uiso   1.00
H402   H     0.79449   0.81263   0.99923   0.00000  Uiso   1.00
H403   H     0.92462   0.87695   0.49408   0.00000  Uiso   1.00
H404   H     0.99175   0.73852   0.24275   0.00000  Uiso   1.00
H405   H     0.71152   0.83567   0.09749   0.00000  Uiso   1.00
O406   O     0.95484   0.95275   0.43080   0.00000  Uiso   1.00
O407   O     0.04290   0.77113   0.41302   0.00000  Uiso   1.00
O408   O     0.67526   0.89859   0.22245   0.00000  Uiso   1.00
N409   N     0.94456   0.96091   0.64230   0.00000  Uiso   1.00
N410   N     0.00732   0.83148   0.34224   0.00000  Uiso   1.00
N411   N     0.74534   0.92230   0.20647   0.00000  Uiso   1.00
N412   N     0.92838   0.89944   0.55911   0.00000  Uiso   1.00
N413   N     0.99115   0.77001   0.25905   0.00000  Uiso   1.00
N414   N     0.72917   0.86083   0.12328   0.00000  Uiso   1.00
C415   C     0.40048   0.41032   0.57094   0.00000  Uiso   1.00
C416   C     0.40867   0.40924   0.43247   0.00000  Uiso   1.00
C417   C     0.42457   0.44257   0.36240   0.00000  Uiso   1.00
C418   C     0.42978   0.43524   0.23715   0.00000  Uiso   1.00
C419   C     0.44409   0.43954   0.03024   0.00000  Uiso   1.00
C420   C     0.42598   0.37357   0.62537   0.00000  Uiso   1.00
C421   C     0.45642   0.37691   0.71749   0.00000  Uiso   1.00
C422   C     0.47619   0.33955   0.75462   0.00000  Uiso   1.00
C423   C     0.51734   0.28846   0.84726   0.00000  Uiso   1.00
C424   C     0.35377   0.39860   0.58793   0.00000  Uiso   1.00
C425   C     0.32351   0.42299   0.64860   0.00000  Uiso   1.00
C426   C     0.28250   0.40670   0.65425   0.00000  Uiso   1.00
C427   C     0.21154   0.39448   0.68875   0.00000  Uiso   1.00
C428   C     0.38147   0.33803   0.47311   0.00000  Uiso   1.00
C429   C     0.39834   0.36997   0.37935   0.00000  Uiso   1.00
C430   C     0.40353   0.36259   0.25416   0.00000  Uiso   1.00
C431   C     0.41943   0.39591   0.18391   0.00000  Uiso   1.00
C432   C     0.41565   0.33431   0.57224   0.00000  Uiso   1.00
C433   C     0.43538   0.29693   0.60926   0.00000  Uiso   1.00
C434   C     0.46585   0.30022   0.70140   0.00000  Uiso   1.00
C435   C     0.34344   0.35934   0.53480   0.00000  Uiso   1.00
C436   C     0.30247   0.34301   0.54036   0.00000  Uiso   1.00
C437   C     0.27215   0.36737   0.60102   0.00000  Uiso   1.00
H438   H     0.40853   0.44089   0.61231   0.00000  Uiso   1.00
H439   H     0.43256   0.47295   0.40355   0.00000  Uiso   1.00
H440   H     0.46440   0.40730   0.75860   0.00000  Uiso   1.00
H441   H     0.33151   0.45337   0.68971   0.00000  Uiso   1.00
H442   H     0.45467   0.49119   0.14868   0.00000  Uiso   1.00
H443   H     0.52180   0.35275   0.89734   0.00000  Uiso   1.00
H444   H     0.24158   0.44990   0.75209   0.00000  Uiso   1.00
H445   H     0.37342   0.30746   0.43175   0.00000  Uiso   1.00
H446   H     0.39553   0.33221   0.21307   0.00000  Uiso   1.00
H447   H     0.42738   0.26655   0.56812   0.00000  Uiso   1.00
H448   H     0.29449   0.31263   0.49923   0.00000  Uiso   1.00
H449   H     0.42462   0.37695   0.99408   0.00000  Uiso   1.00
H450   H     0.49175   0.23852   0.74275   0.00000  Uiso   1.00
H451   H     0.21152   0.33567   0.59749   0.00000  Uiso   1.00
O452   O     0.45484   0.45275   0.93080   0.00000  Uiso   1.00
O453   O     0.54290   0.27113   0.91302   0.00000  Uiso   1.00
O454   O     0.17526   0.39859   0.72245   0.00000  Uiso   1.00
N455   N     0.44456   0.46091   0.14230   0.00000  Uiso   1.00
N456   N     0.50732   0.33148   0.84224   0.00000  Uiso   1.00
N457   N     0.24534   0.42230   0.70647   0.00000  Uiso   1.00
N458   N     0.42838   0.39944   0.05911   0.00000  Uiso   1.00
N459   N     0.49115   0.27001   0.75905   0.00000  Uiso   1.00
N460   N     0.22917   0.36083   0.62328   0.00000  Uiso   1.00
C461   C     0.59952   0.58968   0.57094   0.00000  Uiso   1.00
C462   C     0.59133   0.59076   0.43247   0.00000  Uiso   1.00
C463   C     0.57543   0.55743   0.36240   0.00000  Uiso   1.00
C464   C     0.57022   0.56476   0.23715   0.00000  Uiso   1.00
C465   C     0.55591   0.56046   0.03024   0.00000  Uiso   1.00
C466   C     0.57402   0.62643   0.62537   0.00000  Uiso   1.00
C467   C     0.54358   0.62309   0.71749   0.00000  Uiso   1.00
C468   C     0.52381   0.66045   0.75462   0.00000  Uiso   1.00
C469   C     0.48266   0.71154   0.84726   0.00000  Uiso   1.00
C470   C     0.64623   0.60140   0.58793   0.00000  Uiso   1.00
C471   C     0.67649   0.57701   0.64860   0.00000  Uiso   1.00
C472   C     0.71750   0.59330   0.65425   0.00000  Uiso   1.00
C473   C     0.78846   0.60552   0.68875   0.00000  Uiso   1.00
C474   C     0.61853   0.66197   0.47311   0.00000  Uiso   1.00
C475   C     0.60166   0.63003   0.37935   0.00000  Uiso   1.00
C476   C     0.59647   0.63741   0.25416   0.00000  Uiso   1.00
C477   C     0.58057   0.60409   0.18391   0.00000  Uiso   1.00
C478   C     0.58435   0.66569   0.57224   0.00000  Uiso   1.00
C479   C     0.56462   0.70307   0.60926   0.00000  Uiso   1.00
C480   C     0.53415   0.69978   0.70140   0.00000  Uiso   1.00
C481   C     0.65656   0.64066   0.53480   0.00000  Uiso   1.00
C482   C     0.69753   0.65699   0.54036   0.00000  Uiso   1.00
C483   C     0.72785   0.63263   0.60102   0.00000  Uiso   1.00
H484   H     0.59147   0.55911   0.61231   0.00000  Uiso   1.00
H485   H     0.56744   0.52705   0.40355   0.00000  Uiso   1.00
H486   H     0.53560   0.59270   0.75860   0.00000  Uiso   1.00
H487   H     0.66849   0.54663   0.68971   0.00000  Uiso   1.00
H488   H     0.54533   0.50881   0.14868   0.00000  Uiso   1.00
H489   H     0.47820   0.64725   0.89734   0.00000  Uiso   1.00
H490   H     0.75842   0.55010   0.75209   0.00000  Uiso   1.00
H491   H     0.62658   0.69254   0.43175   0.00000  Uiso   1.00
H492   H     0.60447   0.66779   0.21307   0.00000  Uiso   1.00
H493   H     0.57262   0.73345   0.56812   0.00000  Uiso   1.00
H494   H     0.70551   0.68737   0.49923   0.00000  Uiso   1.00
H495   H     0.57538   0.62305   0.99408   0.00000  Uiso   1.00
H496   H     0.50825   0.76148   0.74275   0.00000  Uiso   1.00
H497   H     0.78848   0.66433   0.59749   0.00000  Uiso   1.00
O498   O     0.54516   0.54725   0.93080   0.00000  Uiso   1.00
O499   O     0.45710   0.72887   0.91302   0.00000  Uiso   1.00
O500   O     0.82474   0.60141   0.72245   0.00000  Uiso   1.00
N501   N     0.55544   0.53909   0.14230   0.00000  Uiso   1.00
N502   N     0.49268   0.66852   0.84224   0.00000  Uiso   1.00
N503   N     0.75466   0.57770   0.70647   0.00000  Uiso   1.00
N504   N     0.57162   0.60056   0.05911   0.00000  Uiso   1.00
N505   N     0.50885   0.72999   0.75905   0.00000  Uiso   1.00
N506   N     0.77083   0.63917   0.62328   0.00000  Uiso   1.00
C507   C     0.09952   0.08968   0.07094   0.00000  Uiso   1.00
C508   C     0.09133   0.09076   0.93247   0.00000  Uiso   1.00
C509   C     0.07543   0.05743   0.86240   0.00000  Uiso   1.00
C510   C     0.07022   0.06476   0.73715   0.00000  Uiso   1.00
C511   C     0.05591   0.06046   0.53024   0.00000  Uiso   1.00
C512   C     0.07402   0.12643   0.12537   0.00000  Uiso   1.00
C513   C     0.04358   0.12309   0.21749   0.00000  Uiso   1.00
C514   C     0.02381   0.16045   0.25462   0.00000  Uiso   1.00
C515   C     0.98266   0.21154   0.34726   0.00000  Uiso   1.00
C516   C     0.14623   0.10140   0.08793   0.00000  Uiso   1.00
C517   C     0.17649   0.07701   0.14860   0.00000  Uiso   1.00
C518   C     0.21750   0.09330   0.15425   0.00000  Uiso   1.00
C519   C     0.28846   0.10552   0.18875   0.00000  Uiso   1.00
C520   C     0.11853   0.16197   0.97311   0.00000  Uiso   1.00
C521   C     0.10166   0.13003   0.87935   0.00000  Uiso   1.00
C522   C     0.09647   0.13741   0.75416   0.00000  Uiso   1.00
C523   C     0.08057   0.10409   0.68391   0.00000  Uiso   1.00
C524   C     0.08435   0.16569   0.07224   0.00000  Uiso   1.00
C525   C     0.06462   0.20307   0.10926   0.00000  Uiso   1.00
C526   C     0.03415   0.19978   0.20140   0.00000  Uiso   1.00
C527   C     0.15656   0.14066   0.03480   0.00000  Uiso   1.00
C528   C     0.19753   0.15699   0.04036   0.00000  Uiso   1.00
C529   C     0.22785   0.13263   0.10102   0.00000  Uiso   1.00
H530   H     0.09147   0.05911   0.11231   0.00000  Uiso   1.00
H531   H     0.06744   0.02705   0.90355   0.00000  Uiso   1.00
H532   H     0.03560   0.09270   0.25860   0.00000  Uiso   1.00
H533   H     0.16849   0.04663   0.18971   0.00000  Uiso   1.00
H534   H     0.04533   0.00881   0.64868   0.00000  Uiso   1.00
H535   H     0.97820   0.14725   0.39734   0.00000  Uiso   1.00
H536   H     0.25842   0.05010   0.25209   0.00000  Uiso   1.00
H537   H     0.12658   0.19254   0.93175   0.00000  Uiso   1.00
H538   H     0.10447   0.16779   0.71307   0.00000  Uiso   1.00
H539   H     0.07262   0.23345   0.06812   0.00000  Uiso   1.00
H540   H     0.20551   0.18737   0.99923   0.00000  Uiso   1.00
H541   H     0.07538   0.12305   0.49408   0.00000  Uiso   1.00
H542   H     0.00825   0.26148   0.24275   0.00000  Uiso   1.00
H543   H     0.28848   0.16433   0.09749   0.00000  Uiso   1.00
O544   O     0.04516   0.04725   0.43080   0.00000  Uiso   1.00
O545   O     0.95710   0.22887   0.41302   0.00000  Uiso   1.00
O546   O     0.32474   0.10141   0.22245   0.00000  Uiso   1.00
N547   N     0.05544   0.03909   0.64230   0.00000  Uiso   1.00
N548   N     0.99268   0.16852   0.34224   0.00000  Uiso   1.00
N549   N     0.25466   0.07770   0.20647   0.00000  Uiso   1.00
N550   N     0.07162   0.10056   0.55911   0.00000  Uiso   1.00
N551   N     0.00885   0.22999   0.25905   0.00000  Uiso   1.00
N552   N     0.27083   0.13917   0.12328   0.00000  Uiso   1.00
C553   C     0.58968   0.90048   0.82094   0.00000  Uiso   1.00
C554   C     0.59076   0.90867   0.68247   0.00000  Uiso   1.00
C555   C     0.55743   0.92457   0.61240   0.00000  Uiso   1.00
C556   C     0.56476   0.92978   0.48715   0.00000  Uiso   1.00
C557   C     0.56046   0.94409   0.28024   0.00000  Uiso   1.00
C558   C     0.62643   0.92598   0.87537   0.00000  Uiso   1.00
C559   C     0.62309   0.95642   0.96749   0.00000  Uiso   1.00
C560   C     0.66045   0.97619   0.00462   0.00000  Uiso   1.00
C561   C     0.71154   0.01734   0.09726   0.00000  Uiso   1.00
C562   C     0.60140   0.85377   0.83793   0.00000  Uiso   1.00
C563   C     0.57701   0.82351   0.89860   0.00000  Uiso   1.00
C564   C     0.59330   0.78250   0.90425   0.00000  Uiso   1.00
C565   C     0.60552   0.71154   0.93875   0.00000  Uiso   1.00
C566   C     0.66197   0.88147   0.72311   0.00000  Uiso   1.00
C567   C     0.63003   0.89834   0.62935   0.00000  Uiso   1.00
C568   C     0.63741   0.90353   0.50416   0.00000  Uiso   1.00
C569   C     0.60409   0.91943   0.43391   0.00000  Uiso   1.00
C570   C     0.66569   0.91565   0.82224   0.00000  Uiso   1.00
C571   C     0.70307   0.93538   0.85926   0.00000  Uiso   1.00
C572   C     0.69978   0.96585   0.95140   0.00000  Uiso   1.00
C573   C     0.64066   0.84344   0.78480   0.00000  Uiso   1.00
C574   C     0.65699   0.80247   0.79036   0.00000  Uiso   1.00
C575   C     0.63263   0.77215   0.85102   0.00000  Uiso   1.00
H576   H     0.55911   0.90853   0.86231   0.00000  Uiso   1.00
H577   H     0.52705   0.93256   0.65355   0.00000  Uiso   1.00
H578   H     0.59270   0.96440   0.00860   0.00000  Uiso   1.00
H579   H     0.54663   0.83151   0.93971   0.00000  Uiso   1.00
H580   H     0.50881   0.95467   0.39868   0.00000  Uiso   1.00
H581   H     0.64725   0.02180   0.14734   0.00000  Uiso   1.00
H582   H     0.55010   0.74158   0.00209   0.00000  Uiso   1.00
H583   H     0.69254   0.87342   0.68175   0.00000  Uiso   1.00
H584   H     0.66779   0.89553   0.46307   0.00000  Uiso   1.00
H585   H     0.73345   0.92738   0.81812   0.00000  Uiso   1.00
H586   H     0.68737   0.79449   0.74923   0.00000  Uiso   1.00
H587   H     0.62305   0.92462   0.24408   0.00000  Uiso   1.00
H588   H     0.76148   0.99175   0.99275   0.00000  Uiso   1.00
H589   H     0.66433   0.71152   0.84749   0.00000  Uiso   1.00
O590   O     0.54725   0.95484   0.18080   0.00000  Uiso   1.00
O591   O     0.72887   0.04290   0.16302   0.00000  Uiso   1.00
O592   O     0.60141   0.67526   0.97245   0.00000  Uiso   1.00
N593   N     0.53909   0.94456   0.39230   0.00000  Uiso   1.00
N594   N     0.66852   0.00732   0.09224   0.00000  Uiso   1.00
N595   N     0.57770   0.74534   0.95647   0.00000  Uiso   1.00
N596   N     0.60056   0.92838   0.30911   0.00000  Uiso   1.00
N597   N     0.72999   0.99115   0.00905   0.00000  Uiso   1.00
N598   N     0.63917   0.72917   0.87328   0.00000  Uiso   1.00
C599   C     0.08968   0.40048   0.32094   0.00000  Uiso   1.00
C600   C     0.09076   0.40867   0.18247   0.00000  Uiso   1.00
C601   C     0.05743   0.42457   0.11240   0.00000  Uiso   1.00
C602   C     0.06476   0.42978   0.98715   0.00000  Uiso   1.00
C603   C     0.06046   0.44409   0.78024   0.00000  Uiso   1.00
C604   C     0.12643   0.42598   0.37537   0.00000  Uiso   1.00
C605   C     0.12309   0.45642   0.46749   0.00000  Uiso   1.00
C606   C     0.16045   0.47619   0.50462   0.00000  Uiso   1.00
C607   C     0.21154   0.51734   0.59726   0.00000  Uiso   1.00
C608   C     0.10140   0.35377   0.33793   0.00000  Uiso   1.00
C609   C     0.07701   0.32351   0.39860   0.00000  Uiso   1.00
C610   C     0.09330   0.28250   0.40425   0.00000  Uiso   1.00
C611   C     0.10552   0.21154   0.43875   0.00000  Uiso   1.00
C612   C     0.16197   0.38147   0.22311   0.00000  Uiso   1.00
C613   C     0.13003   0.39834   0.12935   0.00000  Uiso   1.00
C614   C     0.13741   0.40353   0.00416   0.00000  Uiso   1.00
C615   C     0.10409   0.41943   0.93391   0.00000  Uiso   1.00
C616   C     0.16569   0.41565   0.32224   0.00000  Uiso   1.00
C617   C     0.20307   0.43538   0.35926   0.00000  Uiso   1.00
C618   C     0.19978   0.46585   0.45140   0.00000  Uiso   1.00
C619   C     0.14066   0.34344   0.28480   0.00000  Uiso   1.00
C620   C     0.15699   0.30247   0.29036   0.00000  Uiso   1.00
C621   C     0.13263   0.27215   0.35102   0.00000  Uiso   1.00
H622   H     0.05911   0.40853   0.36231   0.00000  Uiso   1.00
H623   H     0.02705   0.43256   0.15355   0.00000  Uiso   1.00
H624   H     0.09270   0.46440   0.50860   0.00000  Uiso   1.00
H625   H     0.04663   0.33151   0.43971   0.00000  Uiso   1.00
H626   H     0.00881   0.45467   0.89868   0.00000  Uiso   1.00
H627   H     0.14725   0.52180   0.64734   0.00000  Uiso   1.00
H628   H     0.05010   0.24158   0.50209   0.00000  Uiso   1.00
H629   H     0.19254   0.37342   0.18175   0.00000  Uiso   1.00
H630   H     0.16779   0.39553   0.96307   0.00000  Uiso   1.00
H631   H     0.23345   0.42738   0.31812   0.00000  Uiso   1.00
H632   H     0.18737   0.29449   0.24923   0.00000  Uiso   1.00
H633   H     0.12305   0.42462   0.74408   0.00000  Uiso   1.00
H634   H     0.26148   0.49175   0.49275   0.00000  Uiso   1.00
H635   H     0.16433   0.21152   0.34749   0.00000  Uiso   1.00
O636   O     0.04725   0.45484   0.68080   0.00000  Uiso   1.00
O637   O     0.22887   0.54290   0.66302   0.00000  Uiso   1.00
O638   O     0.10141   0.17526   0.47245   0.00000  Uiso   1.00
N639   N     0.03909   0.44456   0.89230   0.00000  Uiso   1.00
N640   N     0.16852   0.50732   0.59224   0.00000  Uiso   1.00
N641   N     0.07770   0.24534   0.45647   0.00000  Uiso   1.00
N642   N     0.10056   0.42838   0.80911   0.00000  Uiso   1.00
N643   N     0.22999   0.49115   0.50905   0.00000  Uiso   1.00
N644   N     0.13917   0.22917   0.37328   0.00000  Uiso   1.00
C645   C     0.91032   0.59952   0.32094   0.00000  Uiso   1.00
C646   C     0.90924   0.59133   0.18247   0.00000  Uiso   1.00
C647   C     0.94257   0.57543   0.11240   0.00000  Uiso   1.00
C648   C     0.93524   0.57022   0.98715   0.00000  Uiso   1.00
C649   C     0.93954   0.55591   0.78024   0.00000  Uiso   1.00
C650   C     0.87357   0.57402   0.37537   0.00000  Uiso   1.00
C651   C     0.87691   0.54358   0.46749   0.00000  Uiso   1.00
C652   C     0.83955   0.52381   0.50462   0.00000  Uiso   1.00
C653   C     0.78846   0.48266   0.59726   0.00000  Uiso   1.00
C654   C     0.89860   0.64623   0.33793   0.00000  Uiso   1.00
C655   C     0.92299   0.67649   0.39860   0.00000  Uiso   1.00
C656   C     0.90670   0.71750   0.40425   0.00000  Uiso   1.00
C657   C     0.89448   0.78846   0.43875   0.00000  Uiso   1.00
C658   C     0.83803   0.61853   0.22311   0.00000  Uiso   1.00
C659   C     0.86997   0.60166   0.12935   0.00000  Uiso   1.00
C660   C     0.86259   0.59647   0.00416   0.00000  Uiso   1.00
C661   C     0.89591   0.58057   0.93391   0.00000  Uiso   1.00
C662   C     0.83431   0.58435   0.32224   0.00000  Uiso   1.00
C663   C     0.79693   0.56462   0.35926   0.00000  Uiso   1.00
C664   C     0.80022   0.53415   0.45140   0.00000  Uiso   1.00
C665   C     0.85934   0.65656   0.28480   0.00000  Uiso   1.00
C666   C     0.84301   0.69753   0.29036   0.00000  Uiso   1.00
C667   C     0.86737   0.72785   0.35102   0.00000  Uiso   1.00
H668   H     0.94089   0.59147   0.36231   0.00000  Uiso   1.00
H669   H     0.97295   0.56744   0.15355   0.00000  Uiso   1.00
H670   H     0.90730   0.53560   0.50860   0.00000  Uiso   1.00
H671   H     0.95337   0.66849   0.43971   0.00000  Uiso   1.00
H672   H     0.99119   0.54533   0.89868   0.00000  Uiso   1.00
H673   H     0.85275   0.47820   0.64734   0.00000  Uiso   1.00
H674   H     0.94990   0.75842   0.50209   0.00000  Uiso   1.00
H675   H     0.80746   0.62658   0.18175   0.00000  Uiso   1.00
H676   H     0.83221   0.60447   0.96307   0.00000  Uiso   1.00
H677   H     0.76655   0.57262   0.31812   0.00000  Uiso   1.00
H678   H     0.81263   0.70551   0.24923   0.00000  Uiso   1.00
H679   H     0.87695   0.57538   0.74408   0.00000  Uiso   1.00
H680   H     0.73852   0.50825   0.49275   0.00000  Uiso   1.00
H681   H     0.83567   0.78848   0.34749   0.00000  Uiso   1.00
O682   O     0.95275   0.54516   0.68080   0.00000  Uiso   1.00
O683   O     0.77113   0.45710   0.66302   0.00000  Uiso   1.00
O684   O     0.89859   0.82474   0.47245   0.00000  Uiso   1.00
N685   N     0.96091   0.55544   0.89230   0.00000  Uiso   1.00
N686   N     0.83148   0.49268   0.59224   0.00000  Uiso   1.00
N687   N     0.92230   0.75466   0.45647   0.00000  Uiso   1.00
N688   N     0.89944   0.57162   0.80911   0.00000  Uiso   1.00
N689   N     0.77001   0.50885   0.50905   0.00000  Uiso   1.00
N690   N     0.86083   0.77083   0.37328   0.00000  Uiso   1.00
C691   C     0.41032   0.09952   0.82094   0.00000  Uiso   1.00
C692   C     0.40924   0.09133   0.68247   0.00000  Uiso   1.00
C693   C     0.44257   0.07543   0.61240   0.00000  Uiso   1.00
C694   C     0.43524   0.07022   0.48715   0.00000  Uiso   1.00
C695   C     0.43954   0.05591   0.28024   0.00000  Uiso   1.00
C696   C     0.37357   0.07402   0.87537   0.00000  Uiso   1.00
C697   C     0.37691   0.04358   0.96749   0.00000  Uiso   1.00
C698   C     0.33955   0.02381   0.00462   0.00000  Uiso   1.00
C699   C     0.28846   0.98266   0.09726   0.00000  Uiso   1.00
C700   C     0.39860   0.14623   0.83793   0.00000  Uiso   1.00
C701   C     0.42299   0.17649   0.89860   0.00000  Uiso   1.00
C702   C     0.40670   0.21750   0.90425   0.00000  Uiso   1.00
C703   C     0.39448   0.28846   0.93875   0.00000  Uiso   1.00
C704   C     0.33803   0.11853   0.72311   0.00000  Uiso   1.00
C705   C     0.36997   0.10166   0.62935   0.00000  Uiso   1.00
C706   C     0.36259   0.09647   0.50416   0.00000  Uiso   1.00
C707   C     0.39591   0.08057   0.43391   0.00000  Uiso   1.00
C708   C     0.33431   0.08435   0.82224   0.00000  Uiso   1.00
C709   C     0.29693   0.06462   0.85926   0.00000  Uiso   1.00
C710   C     0.30022   0.03415   0.95140   0.00000  Uiso   1.00
C711   C     0.35934   0.15656   0.78480   0.00000  Uiso   1.00
C712   C     0.34301   0.19753   0.79036   0.00000  Uiso   1.00
C713   C     0.36737   0.22785   0.85102   0.00000  Uiso   1.00
H714   H     0.44089   0.09147   0.86231   0.00000  Uiso   1.00
H715   H     0.47295   0.06744   0.65355   0.00000  Uiso   1.00
H716   H     0.40730   0.03560   0.00860   0.00000  Uiso   1.00
H717   H     0.45337   0.16849   0.93971   0.00000  Uiso   1.00
H718   H     0.49119   0.04533   0.39868   0.00000  Uiso   1.00
H719   H     0.35275   0.97820   0.14734   0.00000  Uiso   1.00
H720   H     0.44990   0.25842   0.00209   0.00000  Uiso   1.00
H721   H     0.30746   0.12658   0.68175   0.00000  Uiso   1.00
H722   H     0.33221   0.10447   0.46307   0.00000  Uiso   1.00
H723   H     0.26655   0.07262   0.81812   0.00000  Uiso   1.00
H724   H     0.31263   0.20551   0.74923   0.00000  Uiso   1.00
H725   H     0.37695   0.07538   0.24408   0.00000  Uiso   1.00
H726   H     0.23852   0.00825   0.99275   0.00000  Uiso   1.00
H727   H     0.33567   0.28848   0.84749   0.00000  Uiso   1.00
O728   O     0.45275   0.04516   0.18080   0.00000  Uiso   1.00
O729   O     0.27113   0.95710   0.16302   0.00000  Uiso   1.00
O730   O     0.39859   0.32474   0.97245   0.00000  Uiso   1.00
N731   N     0.46091   0.05544   0.39230   0.00000  Uiso   1.00
N732   N     0.33148   0.99268   0.09224   0.00000  Uiso   1.00
N733   N     0.42230   0.25466   0.95647   0.00000  Uiso   1.00
N734   N     0.39944   0.07162   0.30911   0.00000  Uiso   1.00
N735   N     0.27001   0.00885   0.00905   0.00000  Uiso   1.00
N736   N     0.36083   0.27083   0.87328   0.00000  Uiso   1.00
