data_job_04433
_audit_creation_date              2018-12-19
_audit_creation_method            'Materials Studio'
_symmetry_space_group_name_H-M    'P1'
_symmetry_Int_Tables_number       1
_symmetry_cell_setting            triclinic
loop_
_symmetry_equiv_pos_as_xyz
  x,y,z
_cell_length_a                    23.5877
_cell_length_b                    53.1154
_cell_length_c                    7.3813
_cell_angle_alpha                 90.0000
_cell_angle_beta                  90.0000
_cell_angle_gamma                 90.0000
loop_
_atom_site_label
_atom_site_type_symbol
_atom_site_fract_x
_atom_site_fract_y
_atom_site_fract_z
_atom_site_U_iso_or_equiv
_atom_site_adp_type
_atom_site_occupancy
C1     C     0.59392   0.54696   0.24523   0.00000  Uiso   1.00
C2     C     0.59943   0.52752   0.39628   0.00000  Uiso   1.00
C3     C     0.60417   0.50169   0.37259   0.00000  Uiso   1.00
C4     C     0.60876   0.48711   0.52800   0.00000  Uiso   1.00
C5     C     0.61730   0.45527   0.73626   0.00000  Uiso   1.00
C6     C     0.53967   0.56157   0.28472   0.00000  Uiso   1.00
C7     C     0.49417   0.56436   0.16721   0.00000  Uiso   1.00
C8     C     0.44846   0.57845   0.22871   0.00000  Uiso   1.00
C9     C     0.36424   0.59949   0.26372   0.00000  Uiso   1.00
C10    C     0.64250   0.56551   0.27271   0.00000  Uiso   1.00
C11    C     0.68345   0.57163   0.14509   0.00000  Uiso   1.00
C12    C     0.72432   0.58903   0.19647   0.00000  Uiso   1.00
C13    C     0.79976   0.61620   0.21283   0.00000  Uiso   1.00
C14    C     0.59366   0.56700   0.56337   0.00000  Uiso   1.00
C15    C     0.59928   0.53841   0.56908   0.00000  Uiso   1.00
C16    C     0.60388   0.52386   0.72457   0.00000  Uiso   1.00
C17    C     0.60862   0.49801   0.70112   0.00000  Uiso   1.00
C18    C     0.53952   0.57245   0.45751   0.00000  Uiso   1.00
C19    C     0.49388   0.58654   0.51920   0.00000  Uiso   1.00
C20    C     0.44832   0.58935   0.40182   0.00000  Uiso   1.00
C21    C     0.64236   0.57640   0.44551   0.00000  Uiso   1.00
C22    C     0.68317   0.59380   0.49709   0.00000  Uiso   1.00
C23    C     0.72418   0.59994   0.36958   0.00000  Uiso   1.00
H24    H     0.59403   0.53848   0.11070   0.00000  Uiso   1.00
H25    H     0.60427   0.49327   0.23884   0.00000  Uiso   1.00
H26    H     0.49429   0.55594   0.03349   0.00000  Uiso   1.00
H27    H     0.68355   0.56320   0.01139   0.00000  Uiso   1.00
H28    H     0.61553   0.44795   0.45711   0.00000  Uiso   1.00
H29    H     0.38365   0.58009   0.02411   0.00000  Uiso   1.00
H30    H     0.78274   0.59540   0.97749   0.00000  Uiso   1.00
H31    H     0.59355   0.57547   0.69791   0.00000  Uiso   1.00
H32    H     0.60377   0.53229   0.85828   0.00000  Uiso   1.00
H33    H     0.49378   0.59496   0.65292   0.00000  Uiso   1.00
H34    H     0.68304   0.60222   0.63082   0.00000  Uiso   1.00
H35    H     0.61512   0.47962   0.95988   0.00000  Uiso   1.00
H36    H     0.38323   0.61177   0.52686   0.00000  Uiso   1.00
H37    H     0.78232   0.62708   0.48025   0.00000  Uiso   1.00
O38    O     0.62203   0.43471   0.80340   0.00000  Uiso   1.00
O39    O     0.31781   0.60808   0.23529   0.00000  Uiso   1.00
O40    O     0.84141   0.62817   0.17413   0.00000  Uiso   1.00
N41    N     0.61405   0.46133   0.55343   0.00000  Uiso   1.00
N42    N     0.39724   0.58487   0.14860   0.00000  Uiso   1.00
N43    N     0.77035   0.59919   0.10500   0.00000  Uiso   1.00
N44    N     0.61383   0.47837   0.82396   0.00000  Uiso   1.00
N45    N     0.39702   0.60191   0.41913   0.00000  Uiso   1.00
N46    N     0.77013   0.61623   0.37553   0.00000  Uiso   1.00
C47    C     0.59392   0.04696   0.74523   0.00000  Uiso   1.00
C48    C     0.59943   0.02752   0.89628   0.00000  Uiso   1.00
C49    C     0.60417   0.00169   0.87259   0.00000  Uiso   1.00
C50    C     0.60876   0.98711   0.02800   0.00000  Uiso   1.00
C51    C     0.61730   0.95527   0.23626   0.00000  Uiso   1.00
C52    C     0.53967   0.06157   0.78472   0.00000  Uiso   1.00
C53    C     0.49417   0.06436   0.66721   0.00000  Uiso   1.00
C54    C     0.44846   0.07845   0.72871   0.00000  Uiso   1.00
C55    C     0.36424   0.09949   0.76372   0.00000  Uiso   1.00
C56    C     0.64250   0.06551   0.77271   0.00000  Uiso   1.00
C57    C     0.68345   0.07163   0.64509   0.00000  Uiso   1.00
C58    C     0.72432   0.08903   0.69647   0.00000  Uiso   1.00
C59    C     0.79976   0.11620   0.71283   0.00000  Uiso   1.00
C60    C     0.59366   0.06700   0.06337   0.00000  Uiso   1.00
C61    C     0.59928   0.03841   0.06908   0.00000  Uiso   1.00
C62    C     0.60388   0.02386   0.22457   0.00000  Uiso   1.00
C63    C     0.60862   0.99801   0.20112   0.00000  Uiso   1.00
C64    C     0.53952   0.07245   0.95751   0.00000  Uiso   1.00
C65    C     0.49388   0.08654   0.01920   0.00000  Uiso   1.00
C66    C     0.44832   0.08935   0.90182   0.00000  Uiso   1.00
C67    C     0.64236   0.07640   0.94551   0.00000  Uiso   1.00
C68    C     0.68317   0.09380   0.99709   0.00000  Uiso   1.00
C69    C     0.72418   0.09994   0.86958   0.00000  Uiso   1.00
H70    H     0.59403   0.03848   0.61070   0.00000  Uiso   1.00
H71    H     0.60427   0.99327   0.73884   0.00000  Uiso   1.00
H72    H     0.49429   0.05594   0.53349   0.00000  Uiso   1.00
H73    H     0.68355   0.06320   0.51139   0.00000  Uiso   1.00
H74    H     0.61553   0.94795   0.95711   0.00000  Uiso   1.00
H75    H     0.38365   0.08009   0.52411   0.00000  Uiso   1.00
H76    H     0.78274   0.09540   0.47749   0.00000  Uiso   1.00
H77    H     0.59355   0.07547   0.19791   0.00000  Uiso   1.00
H78    H     0.60377   0.03229   0.35828   0.00000  Uiso   1.00
H79    H     0.49378   0.09496   0.15292   0.00000  Uiso   1.00
H80    H     0.68304   0.10222   0.13082   0.00000  Uiso   1.00
H81    H     0.61512   0.97962   0.45988   0.00000  Uiso   1.00
H82    H     0.38323   0.11177   0.02686   0.00000  Uiso   1.00
H83    H     0.78232   0.12708   0.98025   0.00000  Uiso   1.00
O84    O     0.62203   0.93471   0.30340   0.00000  Uiso   1.00
O85    O     0.31781   0.10808   0.73529   0.00000  Uiso   1.00
O86    O     0.84141   0.12817   0.67413   0.00000  Uiso   1.00
N87    N     0.61405   0.96133   0.05343   0.00000  Uiso   1.00
N88    N     0.39724   0.08487   0.64860   0.00000  Uiso   1.00
N89    N     0.77035   0.09919   0.60500   0.00000  Uiso   1.00
N90    N     0.61383   0.97837   0.32396   0.00000  Uiso   1.00
N91    N     0.39702   0.10191   0.91913   0.00000  Uiso   1.00
N92    N     0.77013   0.11623   0.87553   0.00000  Uiso   1.00
C93    C     0.09392   0.54696   0.74523   0.00000  Uiso   1.00
C94    C     0.09943   0.52752   0.89628   0.00000  Uiso   1.00
C95    C     0.10417   0.50169   0.87259   0.00000  Uiso   1.00
C96    C     0.10876   0.48711   0.02800   0.00000  Uiso   1.00
C97    C     0.11730   0.45527   0.23626   0.00000  Uiso   1.00
C98    C     0.03967   0.56157   0.78472   0.00000  Uiso   1.00
C99    C     0.99417   0.56436   0.66721   0.00000  Uiso   1.00
C100   C     0.94846   0.57845   0.72871   0.00000  Uiso   1.00
C101   C     0.86424   0.59949   0.76372   0.00000  Uiso   1.00
C102   C     0.14250   0.56551   0.77271   0.00000  Uiso   1.00
C103   C     0.18345   0.57163   0.64509   0.00000  Uiso   1.00
C104   C     0.22432   0.58903   0.69647   0.00000  Uiso   1.00
C105   C     0.29976   0.61620   0.71283   0.00000  Uiso   1.00
C106   C     0.09366   0.56700   0.06337   0.00000  Uiso   1.00
C107   C     0.09928   0.53841   0.06908   0.00000  Uiso   1.00
C108   C     0.10388   0.52386   0.22457   0.00000  Uiso   1.00
C109   C     0.10862   0.49801   0.20112   0.00000  Uiso   1.00
C110   C     0.03952   0.57245   0.95751   0.00000  Uiso   1.00
C111   C     0.99388   0.58654   0.01920   0.00000  Uiso   1.00
C112   C     0.94832   0.58935   0.90182   0.00000  Uiso   1.00
C113   C     0.14236   0.57640   0.94551   0.00000  Uiso   1.00
C114   C     0.18317   0.59380   0.99709   0.00000  Uiso   1.00
C115   C     0.22418   0.59994   0.86958   0.00000  Uiso   1.00
H116   H     0.09403   0.53848   0.61070   0.00000  Uiso   1.00
H117   H     0.10427   0.49327   0.73884   0.00000  Uiso   1.00
H118   H     0.99429   0.55594   0.53349   0.00000  Uiso   1.00
H119   H     0.18355   0.56320   0.51139   0.00000  Uiso   1.00
H120   H     0.11553   0.44795   0.95711   0.00000  Uiso   1.00
H121   H     0.88365   0.58009   0.52411   0.00000  Uiso   1.00
H122   H     0.28274   0.59540   0.47749   0.00000  Uiso   1.00
H123   H     0.09355   0.57547   0.19791   0.00000  Uiso   1.00
H124   H     0.10377   0.53229   0.35828   0.00000  Uiso   1.00
H125   H     0.99378   0.59496   0.15292   0.00000  Uiso   1.00
H126   H     0.18304   0.60222   0.13082   0.00000  Uiso   1.00
H127   H     0.11512   0.47962   0.45988   0.00000  Uiso   1.00
H128   H     0.88323   0.61177   0.02686   0.00000  Uiso   1.00
H129   H     0.28232   0.62708   0.98025   0.00000  Uiso   1.00
O130   O     0.12203   0.43471   0.30340   0.00000  Uiso   1.00
O131   O     0.81781   0.60808   0.73529   0.00000  Uiso   1.00
O132   O     0.34141   0.62817   0.67413   0.00000  Uiso   1.00
N133   N     0.11405   0.46133   0.05343   0.00000  Uiso   1.00
N134   N     0.89724   0.58487   0.64860   0.00000  Uiso   1.00
N135   N     0.27035   0.59919   0.60500   0.00000  Uiso   1.00
N136   N     0.11383   0.47837   0.32396   0.00000  Uiso   1.00
N137   N     0.89702   0.60191   0.91913   0.00000  Uiso   1.00
N138   N     0.27013   0.61623   0.87553   0.00000  Uiso   1.00
C139   C     0.09392   0.04696   0.24523   0.00000  Uiso   1.00
C140   C     0.09943   0.02752   0.39628   0.00000  Uiso   1.00
C141   C     0.10417   0.00169   0.37259   0.00000  Uiso   1.00
C142   C     0.10876   0.98711   0.52800   0.00000  Uiso   1.00
C143   C     0.11730   0.95527   0.73626   0.00000  Uiso   1.00
C144   C     0.03967   0.06157   0.28472   0.00000  Uiso   1.00
C145   C     0.99417   0.06436   0.16721   0.00000  Uiso   1.00
C146   C     0.94846   0.07845   0.22871   0.00000  Uiso   1.00
C147   C     0.86424   0.09949   0.26372   0.00000  Uiso   1.00
C148   C     0.14250   0.06551   0.27271   0.00000  Uiso   1.00
C149   C     0.18345   0.07163   0.14509   0.00000  Uiso   1.00
C150   C     0.22432   0.08903   0.19647   0.00000  Uiso   1.00
C151   C     0.29976   0.11620   0.21283   0.00000  Uiso   1.00
C152   C     0.09366   0.06700   0.56337   0.00000  Uiso   1.00
C153   C     0.09928   0.03841   0.56908   0.00000  Uiso   1.00
C154   C     0.10388   0.02386   0.72457   0.00000  Uiso   1.00
C155   C     0.10862   0.99801   0.70112   0.00000  Uiso   1.00
C156   C     0.03952   0.07245   0.45751   0.00000  Uiso   1.00
C157   C     0.99388   0.08654   0.51920   0.00000  Uiso   1.00
C158   C     0.94832   0.08935   0.40182   0.00000  Uiso   1.00
C159   C     0.14236   0.07640   0.44551   0.00000  Uiso   1.00
C160   C     0.18317   0.09380   0.49709   0.00000  Uiso   1.00
C161   C     0.22418   0.09994   0.36958   0.00000  Uiso   1.00
H162   H     0.09403   0.03848   0.11070   0.00000  Uiso   1.00
H163   H     0.10427   0.99327   0.23884   0.00000  Uiso   1.00
H164   H     0.99429   0.05594   0.03349   0.00000  Uiso   1.00
H165   H     0.18355   0.06320   0.01139   0.00000  Uiso   1.00
H166   H     0.11553   0.94795   0.45711   0.00000  Uiso   1.00
H167   H     0.88365   0.08009   0.02411   0.00000  Uiso   1.00
H168   H     0.28274   0.09540   0.97749   0.00000  Uiso   1.00
H169   H     0.09355   0.07547   0.69791   0.00000  Uiso   1.00
H170   H     0.10377   0.03229   0.85828   0.00000  Uiso   1.00
H171   H     0.99378   0.09496   0.65292   0.00000  Uiso   1.00
H172   H     0.18304   0.10222   0.63082   0.00000  Uiso   1.00
H173   H     0.11512   0.97962   0.95988   0.00000  Uiso   1.00
H174   H     0.88323   0.11177   0.52686   0.00000  Uiso   1.00
H175   H     0.28232   0.12708   0.48025   0.00000  Uiso   1.00
O176   O     0.12203   0.93471   0.80340   0.00000  Uiso   1.00
O177   O     0.81781   0.10808   0.23529   0.00000  Uiso   1.00
O178   O     0.34141   0.12817   0.17413   0.00000  Uiso   1.00
N179   N     0.11405   0.96133   0.55343   0.00000  Uiso   1.00
N180   N     0.89724   0.08487   0.14860   0.00000  Uiso   1.00
N181   N     0.27035   0.09919   0.10500   0.00000  Uiso   1.00
N182   N     0.11383   0.97837   0.82396   0.00000  Uiso   1.00
N183   N     0.89702   0.10191   0.41913   0.00000  Uiso   1.00
N184   N     0.27013   0.11623   0.37553   0.00000  Uiso   1.00
C185   C     0.40608   0.45304   0.24523   0.00000  Uiso   1.00
C186   C     0.40057   0.47248   0.39628   0.00000  Uiso   1.00
C187   C     0.39583   0.49831   0.37259   0.00000  Uiso   1.00
C188   C     0.39124   0.51289   0.52800   0.00000  Uiso   1.00
C189   C     0.38270   0.54473   0.73626   0.00000  Uiso   1.00
C190   C     0.46033   0.43843   0.28472   0.00000  Uiso   1.00
C191   C     0.50583   0.43564   0.16721   0.00000  Uiso   1.00
C192   C     0.55154   0.42155   0.22871   0.00000  Uiso   1.00
C193   C     0.63576   0.40051   0.26372   0.00000  Uiso   1.00
C194   C     0.35750   0.43449   0.27271   0.00000  Uiso   1.00
C195   C     0.31655   0.42837   0.14509   0.00000  Uiso   1.00
C196   C     0.27568   0.41097   0.19647   0.00000  Uiso   1.00
C197   C     0.20024   0.38380   0.21283   0.00000  Uiso   1.00
C198   C     0.40634   0.43300   0.56337   0.00000  Uiso   1.00
C199   C     0.40072   0.46159   0.56908   0.00000  Uiso   1.00
C200   C     0.39612   0.47614   0.72457   0.00000  Uiso   1.00
C201   C     0.39138   0.50199   0.70112   0.00000  Uiso   1.00
C202   C     0.46048   0.42755   0.45751   0.00000  Uiso   1.00
C203   C     0.50612   0.41346   0.51920   0.00000  Uiso   1.00
C204   C     0.55168   0.41065   0.40182   0.00000  Uiso   1.00
C205   C     0.35764   0.42360   0.44551   0.00000  Uiso   1.00
C206   C     0.31683   0.40620   0.49709   0.00000  Uiso   1.00
C207   C     0.27582   0.40006   0.36958   0.00000  Uiso   1.00
H208   H     0.40597   0.46152   0.11070   0.00000  Uiso   1.00
H209   H     0.39573   0.50673   0.23884   0.00000  Uiso   1.00
H210   H     0.50571   0.44406   0.03349   0.00000  Uiso   1.00
H211   H     0.31645   0.43680   0.01139   0.00000  Uiso   1.00
H212   H     0.38447   0.55205   0.45711   0.00000  Uiso   1.00
H213   H     0.61635   0.41991   0.02411   0.00000  Uiso   1.00
H214   H     0.21726   0.40460   0.97749   0.00000  Uiso   1.00
H215   H     0.40645   0.42453   0.69791   0.00000  Uiso   1.00
H216   H     0.39623   0.46771   0.85828   0.00000  Uiso   1.00
H217   H     0.50622   0.40504   0.65292   0.00000  Uiso   1.00
H218   H     0.31696   0.39778   0.63082   0.00000  Uiso   1.00
H219   H     0.38488   0.52038   0.95988   0.00000  Uiso   1.00
H220   H     0.61677   0.38823   0.52686   0.00000  Uiso   1.00
H221   H     0.21768   0.37292   0.48025   0.00000  Uiso   1.00
O222   O     0.37797   0.56529   0.80340   0.00000  Uiso   1.00
O223   O     0.68219   0.39192   0.23529   0.00000  Uiso   1.00
O224   O     0.15859   0.37183   0.17413   0.00000  Uiso   1.00
N225   N     0.38595   0.53867   0.55343   0.00000  Uiso   1.00
N226   N     0.60276   0.41513   0.14860   0.00000  Uiso   1.00
N227   N     0.22965   0.40081   0.10500   0.00000  Uiso   1.00
N228   N     0.38617   0.52163   0.82396   0.00000  Uiso   1.00
N229   N     0.60298   0.39809   0.41913   0.00000  Uiso   1.00
N230   N     0.22987   0.38377   0.37553   0.00000  Uiso   1.00
C231   C     0.40608   0.95304   0.74523   0.00000  Uiso   1.00
C232   C     0.40057   0.97248   0.89628   0.00000  Uiso   1.00
C233   C     0.39583   0.99831   0.87259   0.00000  Uiso   1.00
C234   C     0.39124   0.01289   0.02800   0.00000  Uiso   1.00
C235   C     0.38270   0.04473   0.23626   0.00000  Uiso   1.00
C236   C     0.46033   0.93843   0.78472   0.00000  Uiso   1.00
C237   C     0.50583   0.93564   0.66721   0.00000  Uiso   1.00
C238   C     0.55154   0.92155   0.72871   0.00000  Uiso   1.00
C239   C     0.63576   0.90051   0.76372   0.00000  Uiso   1.00
C240   C     0.35750   0.93449   0.77271   0.00000  Uiso   1.00
C241   C     0.31655   0.92837   0.64509   0.00000  Uiso   1.00
C242   C     0.27568   0.91097   0.69647   0.00000  Uiso   1.00
C243   C     0.20024   0.88380   0.71283   0.00000  Uiso   1.00
C244   C     0.40634   0.93300   0.06337   0.00000  Uiso   1.00
C245   C     0.40072   0.96159   0.06908   0.00000  Uiso   1.00
C246   C     0.39612   0.97614   0.22457   0.00000  Uiso   1.00
C247   C     0.39138   0.00199   0.20112   0.00000  Uiso   1.00
C248   C     0.46048   0.92755   0.95751   0.00000  Uiso   1.00
C249   C     0.50612   0.91346   0.01920   0.00000  Uiso   1.00
C250   C     0.55168   0.91065   0.90182   0.00000  Uiso   1.00
C251   C     0.35764   0.92360   0.94551   0.00000  Uiso   1.00
C252   C     0.31683   0.90620   0.99709   0.00000  Uiso   1.00
C253   C     0.27582   0.90006   0.86958   0.00000  Uiso   1.00
H254   H     0.40597   0.96152   0.61070   0.00000  Uiso   1.00
H255   H     0.39573   0.00673   0.73884   0.00000  Uiso   1.00
H256   H     0.50571   0.94406   0.53349   0.00000  Uiso   1.00
H257   H     0.31645   0.93680   0.51139   0.00000  Uiso   1.00
H258   H     0.38447   0.05205   0.95711   0.00000  Uiso   1.00
H259   H     0.61635   0.91991   0.52411   0.00000  Uiso   1.00
H260   H     0.21726   0.90460   0.47749   0.00000  Uiso   1.00
H261   H     0.40645   0.92453   0.19791   0.00000  Uiso   1.00
H262   H     0.39623   0.96771   0.35828   0.00000  Uiso   1.00
H263   H     0.50622   0.90504   0.15292   0.00000  Uiso   1.00
H264   H     0.31696   0.89778   0.13082   0.00000  Uiso   1.00
H265   H     0.38488   0.02038   0.45988   0.00000  Uiso   1.00
H266   H     0.61677   0.88823   0.02686   0.00000  Uiso   1.00
H267   H     0.21768   0.87292   0.98025   0.00000  Uiso   1.00
O268   O     0.37797   0.06529   0.30340   0.00000  Uiso   1.00
O269   O     0.68219   0.89192   0.73529   0.00000  Uiso   1.00
O270   O     0.15859   0.87183   0.67413   0.00000  Uiso   1.00
N271   N     0.38595   0.03867   0.05343   0.00000  Uiso   1.00
N272   N     0.60276   0.91513   0.64860   0.00000  Uiso   1.00
N273   N     0.22965   0.90081   0.60500   0.00000  Uiso   1.00
N274   N     0.38617   0.02163   0.32396   0.00000  Uiso   1.00
N275   N     0.60298   0.89809   0.91913   0.00000  Uiso   1.00
N276   N     0.22987   0.88377   0.87553   0.00000  Uiso   1.00
C277   C     0.90608   0.45304   0.74523   0.00000  Uiso   1.00
C278   C     0.90057   0.47248   0.89628   0.00000  Uiso   1.00
C279   C     0.89583   0.49831   0.87259   0.00000  Uiso   1.00
C280   C     0.89124   0.51289   0.02800   0.00000  Uiso   1.00
C281   C     0.88270   0.54473   0.23626   0.00000  Uiso   1.00
C282   C     0.96033   0.43843   0.78472   0.00000  Uiso   1.00
C283   C     0.00583   0.43564   0.66721   0.00000  Uiso   1.00
C284   C     0.05154   0.42155   0.72871   0.00000  Uiso   1.00
C285   C     0.13576   0.40051   0.76372   0.00000  Uiso   1.00
C286   C     0.85750   0.43449   0.77271   0.00000  Uiso   1.00
C287   C     0.81655   0.42837   0.64509   0.00000  Uiso   1.00
C288   C     0.77568   0.41097   0.69647   0.00000  Uiso   1.00
C289   C     0.70024   0.38380   0.71283   0.00000  Uiso   1.00
C290   C     0.90634   0.43300   0.06337   0.00000  Uiso   1.00
C291   C     0.90072   0.46159   0.06908   0.00000  Uiso   1.00
C292   C     0.89612   0.47614   0.22457   0.00000  Uiso   1.00
C293   C     0.89138   0.50199   0.20112   0.00000  Uiso   1.00
C294   C     0.96048   0.42755   0.95751   0.00000  Uiso   1.00
C295   C     0.00612   0.41346   0.01920   0.00000  Uiso   1.00
C296   C     0.05168   0.41065   0.90182   0.00000  Uiso   1.00
C297   C     0.85764   0.42360   0.94551   0.00000  Uiso   1.00
C298   C     0.81683   0.40620   0.99709   0.00000  Uiso   1.00
C299   C     0.77582   0.40006   0.86958   0.00000  Uiso   1.00
H300   H     0.90597   0.46152   0.61070   0.00000  Uiso   1.00
H301   H     0.89573   0.50673   0.73884   0.00000  Uiso   1.00
H302   H     0.00571   0.44406   0.53349   0.00000  Uiso   1.00
H303   H     0.81645   0.43680   0.51139   0.00000  Uiso   1.00
H304   H     0.88447   0.55205   0.95711   0.00000  Uiso   1.00
H305   H     0.11635   0.41991   0.52411   0.00000  Uiso   1.00
H306   H     0.71726   0.40460   0.47749   0.00000  Uiso   1.00
H307   H     0.90645   0.42453   0.19791   0.00000  Uiso   1.00
H308   H     0.89623   0.46771   0.35828   0.00000  Uiso   1.00
H309   H     0.00622   0.40504   0.15292   0.00000  Uiso   1.00
H310   H     0.81696   0.39778   0.13082   0.00000  Uiso   1.00
H311   H     0.88488   0.52038   0.45988   0.00000  Uiso   1.00
H312   H     0.11677   0.38823   0.02686   0.00000  Uiso   1.00
H313   H     0.71768   0.37292   0.98025   0.00000  Uiso   1.00
O314   O     0.87797   0.56529   0.30340   0.00000  Uiso   1.00
O315   O     0.18219   0.39192   0.73529   0.00000  Uiso   1.00
O316   O     0.65859   0.37183   0.67413   0.00000  Uiso   1.00
N317   N     0.88595   0.53867   0.05343   0.00000  Uiso   1.00
N318   N     0.10276   0.41513   0.64860   0.00000  Uiso   1.00
N319   N     0.72965   0.40081   0.60500   0.00000  Uiso   1.00
N320   N     0.88617   0.52163   0.32396   0.00000  Uiso   1.00
N321   N     0.10298   0.39809   0.91913   0.00000  Uiso   1.00
N322   N     0.72987   0.38377   0.87553   0.00000  Uiso   1.00
C323   C     0.90608   0.95304   0.24523   0.00000  Uiso   1.00
C324   C     0.90057   0.97248   0.39628   0.00000  Uiso   1.00
C325   C     0.89583   0.99831   0.37259   0.00000  Uiso   1.00
C326   C     0.89124   0.01289   0.52800   0.00000  Uiso   1.00
C327   C     0.88270   0.04473   0.73626   0.00000  Uiso   1.00
C328   C     0.96033   0.93843   0.28472   0.00000  Uiso   1.00
C329   C     0.00583   0.93564   0.16721   0.00000  Uiso   1.00
C330   C     0.05154   0.92155   0.22871   0.00000  Uiso   1.00
C331   C     0.13576   0.90051   0.26372   0.00000  Uiso   1.00
C332   C     0.85750   0.93449   0.27271   0.00000  Uiso   1.00
C333   C     0.81655   0.92837   0.14509   0.00000  Uiso   1.00
C334   C     0.77568   0.91097   0.19647   0.00000  Uiso   1.00
C335   C     0.70024   0.88380   0.21283   0.00000  Uiso   1.00
C336   C     0.90634   0.93300   0.56337   0.00000  Uiso   1.00
C337   C     0.90072   0.96159   0.56908   0.00000  Uiso   1.00
C338   C     0.89612   0.97614   0.72457   0.00000  Uiso   1.00
C339   C     0.89138   0.00199   0.70112   0.00000  Uiso   1.00
C340   C     0.96048   0.92755   0.45751   0.00000  Uiso   1.00
C341   C     0.00612   0.91346   0.51920   0.00000  Uiso   1.00
C342   C     0.05168   0.91065   0.40182   0.00000  Uiso   1.00
C343   C     0.85764   0.92360   0.44551   0.00000  Uiso   1.00
C344   C     0.81683   0.90620   0.49709   0.00000  Uiso   1.00
C345   C     0.77582   0.90006   0.36958   0.00000  Uiso   1.00
H346   H     0.90597   0.96152   0.11070   0.00000  Uiso   1.00
H347   H     0.89573   0.00673   0.23884   0.00000  Uiso   1.00
H348   H     0.00571   0.94406   0.03349   0.00000  Uiso   1.00
H349   H     0.81645   0.93680   0.01139   0.00000  Uiso   1.00
H350   H     0.88447   0.05205   0.45711   0.00000  Uiso   1.00
H351   H     0.11635   0.91991   0.02411   0.00000  Uiso   1.00
H352   H     0.71726   0.90460   0.97749   0.00000  Uiso   1.00
H353   H     0.90645   0.92453   0.69791   0.00000  Uiso   1.00
H354   H     0.89623   0.96771   0.85828   0.00000  Uiso   1.00
H355   H     0.00622   0.90504   0.65292   0.00000  Uiso   1.00
H356   H     0.81696   0.89778   0.63082   0.00000  Uiso   1.00
H357   H     0.88488   0.02038   0.95988   0.00000  Uiso   1.00
H358   H     0.11677   0.88823   0.52686   0.00000  Uiso   1.00
H359   H     0.71768   0.87292   0.48025   0.00000  Uiso   1.00
O360   O     0.87797   0.06529   0.80340   0.00000  Uiso   1.00
O361   O     0.18219   0.89192   0.23529   0.00000  Uiso   1.00
O362   O     0.65859   0.87183   0.17413   0.00000  Uiso   1.00
N363   N     0.88595   0.03867   0.55343   0.00000  Uiso   1.00
N364   N     0.10276   0.91513   0.14860   0.00000  Uiso   1.00
N365   N     0.72965   0.90081   0.10500   0.00000  Uiso   1.00
N366   N     0.88617   0.02163   0.82396   0.00000  Uiso   1.00
N367   N     0.10298   0.89809   0.41913   0.00000  Uiso   1.00
N368   N     0.72987   0.88377   0.37553   0.00000  Uiso   1.00
C369   C     0.84392   0.70304   0.49523   0.00000  Uiso   1.00
C370   C     0.84943   0.72248   0.64628   0.00000  Uiso   1.00
C371   C     0.85417   0.74831   0.62259   0.00000  Uiso   1.00
C372   C     0.85876   0.76289   0.77800   0.00000  Uiso   1.00
C373   C     0.86730   0.79473   0.98626   0.00000  Uiso   1.00
C374   C     0.78967   0.68843   0.53472   0.00000  Uiso   1.00
C375   C     0.74417   0.68564   0.41721   0.00000  Uiso   1.00
C376   C     0.69846   0.67155   0.47871   0.00000  Uiso   1.00
C377   C     0.61424   0.65051   0.51372   0.00000  Uiso   1.00
C378   C     0.89250   0.68449   0.52271   0.00000  Uiso   1.00
C379   C     0.93345   0.67837   0.39509   0.00000  Uiso   1.00
C380   C     0.97432   0.66097   0.44647   0.00000  Uiso   1.00
C381   C     0.04976   0.63380   0.46283   0.00000  Uiso   1.00
C382   C     0.84366   0.68300   0.81337   0.00000  Uiso   1.00
C383   C     0.84928   0.71159   0.81908   0.00000  Uiso   1.00
C384   C     0.85388   0.72614   0.97457   0.00000  Uiso   1.00
C385   C     0.85862   0.75199   0.95112   0.00000  Uiso   1.00
C386   C     0.78952   0.67755   0.70751   0.00000  Uiso   1.00
C387   C     0.74388   0.66346   0.76920   0.00000  Uiso   1.00
C388   C     0.69832   0.66065   0.65182   0.00000  Uiso   1.00
C389   C     0.89236   0.67360   0.69551   0.00000  Uiso   1.00
C390   C     0.93317   0.65620   0.74709   0.00000  Uiso   1.00
C391   C     0.97418   0.65006   0.61958   0.00000  Uiso   1.00
H392   H     0.84403   0.71152   0.36070   0.00000  Uiso   1.00
H393   H     0.85427   0.75673   0.48884   0.00000  Uiso   1.00
H394   H     0.74429   0.69406   0.28349   0.00000  Uiso   1.00
H395   H     0.93355   0.68680   0.26139   0.00000  Uiso   1.00
H396   H     0.86553   0.80205   0.70711   0.00000  Uiso   1.00
H397   H     0.63365   0.66991   0.27411   0.00000  Uiso   1.00
H398   H     0.03274   0.65460   0.22749   0.00000  Uiso   1.00
H399   H     0.84355   0.67453   0.94791   0.00000  Uiso   1.00
H400   H     0.85377   0.71771   0.10828   0.00000  Uiso   1.00
H401   H     0.74378   0.65504   0.90292   0.00000  Uiso   1.00
H402   H     0.93304   0.64778   0.88082   0.00000  Uiso   1.00
H403   H     0.86512   0.77038   0.20988   0.00000  Uiso   1.00
H404   H     0.63323   0.63823   0.77686   0.00000  Uiso   1.00
H405   H     0.03232   0.62292   0.73025   0.00000  Uiso   1.00
O406   O     0.87203   0.81529   0.05340   0.00000  Uiso   1.00
O407   O     0.56781   0.64192   0.48529   0.00000  Uiso   1.00
O408   O     0.09141   0.62183   0.42413   0.00000  Uiso   1.00
N409   N     0.86405   0.78867   0.80343   0.00000  Uiso   1.00
N410   N     0.64724   0.66513   0.39860   0.00000  Uiso   1.00
N411   N     0.02035   0.65081   0.35500   0.00000  Uiso   1.00
N412   N     0.86383   0.77163   0.07396   0.00000  Uiso   1.00
N413   N     0.64702   0.64809   0.66913   0.00000  Uiso   1.00
N414   N     0.02013   0.63377   0.62553   0.00000  Uiso   1.00
C415   C     0.84392   0.20304   0.99523   0.00000  Uiso   1.00
C416   C     0.84943   0.22248   0.14628   0.00000  Uiso   1.00
C417   C     0.85417   0.24831   0.12259   0.00000  Uiso   1.00
C418   C     0.85876   0.26289   0.27800   0.00000  Uiso   1.00
C419   C     0.86730   0.29473   0.48626   0.00000  Uiso   1.00
C420   C     0.78967   0.18843   0.03472   0.00000  Uiso   1.00
C421   C     0.74417   0.18564   0.91721   0.00000  Uiso   1.00
C422   C     0.69846   0.17155   0.97871   0.00000  Uiso   1.00
C423   C     0.61424   0.15051   0.01372   0.00000  Uiso   1.00
C424   C     0.89250   0.18449   0.02271   0.00000  Uiso   1.00
C425   C     0.93345   0.17837   0.89509   0.00000  Uiso   1.00
C426   C     0.97432   0.16097   0.94647   0.00000  Uiso   1.00
C427   C     0.04976   0.13380   0.96283   0.00000  Uiso   1.00
C428   C     0.84366   0.18300   0.31337   0.00000  Uiso   1.00
C429   C     0.84928   0.21159   0.31908   0.00000  Uiso   1.00
C430   C     0.85388   0.22614   0.47457   0.00000  Uiso   1.00
C431   C     0.85862   0.25199   0.45112   0.00000  Uiso   1.00
C432   C     0.78952   0.17755   0.20751   0.00000  Uiso   1.00
C433   C     0.74388   0.16346   0.26920   0.00000  Uiso   1.00
C434   C     0.69832   0.16065   0.15182   0.00000  Uiso   1.00
C435   C     0.89236   0.17360   0.19551   0.00000  Uiso   1.00
C436   C     0.93317   0.15620   0.24709   0.00000  Uiso   1.00
C437   C     0.97418   0.15006   0.11958   0.00000  Uiso   1.00
H438   H     0.84403   0.21152   0.86070   0.00000  Uiso   1.00
H439   H     0.85427   0.25673   0.98884   0.00000  Uiso   1.00
H440   H     0.74429   0.19406   0.78349   0.00000  Uiso   1.00
H441   H     0.93355   0.18680   0.76139   0.00000  Uiso   1.00
H442   H     0.86553   0.30205   0.20711   0.00000  Uiso   1.00
H443   H     0.63365   0.16991   0.77411   0.00000  Uiso   1.00
H444   H     0.03274   0.15460   0.72749   0.00000  Uiso   1.00
H445   H     0.84355   0.17453   0.44791   0.00000  Uiso   1.00
H446   H     0.85377   0.21771   0.60828   0.00000  Uiso   1.00
H447   H     0.74378   0.15504   0.40292   0.00000  Uiso   1.00
H448   H     0.93304   0.14778   0.38082   0.00000  Uiso   1.00
H449   H     0.86512   0.27038   0.70988   0.00000  Uiso   1.00
H450   H     0.63323   0.13823   0.27686   0.00000  Uiso   1.00
H451   H     0.03232   0.12292   0.23025   0.00000  Uiso   1.00
O452   O     0.87203   0.31529   0.55340   0.00000  Uiso   1.00
O453   O     0.56781   0.14192   0.98529   0.00000  Uiso   1.00
O454   O     0.09141   0.12183   0.92413   0.00000  Uiso   1.00
N455   N     0.86405   0.28867   0.30343   0.00000  Uiso   1.00
N456   N     0.64724   0.16513   0.89860   0.00000  Uiso   1.00
N457   N     0.02035   0.15081   0.85500   0.00000  Uiso   1.00
N458   N     0.86383   0.27163   0.57396   0.00000  Uiso   1.00
N459   N     0.64702   0.14809   0.16913   0.00000  Uiso   1.00
N460   N     0.02013   0.13377   0.12553   0.00000  Uiso   1.00
C461   C     0.34392   0.70304   0.99523   0.00000  Uiso   1.00
C462   C     0.34943   0.72248   0.14628   0.00000  Uiso   1.00
C463   C     0.35417   0.74831   0.12259   0.00000  Uiso   1.00
C464   C     0.35876   0.76289   0.27800   0.00000  Uiso   1.00
C465   C     0.36730   0.79473   0.48626   0.00000  Uiso   1.00
C466   C     0.28967   0.68843   0.03472   0.00000  Uiso   1.00
C467   C     0.24417   0.68564   0.91721   0.00000  Uiso   1.00
C468   C     0.19846   0.67155   0.97871   0.00000  Uiso   1.00
C469   C     0.11424   0.65051   0.01372   0.00000  Uiso   1.00
C470   C     0.39250   0.68449   0.02271   0.00000  Uiso   1.00
C471   C     0.43345   0.67837   0.89509   0.00000  Uiso   1.00
C472   C     0.47432   0.66097   0.94647   0.00000  Uiso   1.00
C473   C     0.54976   0.63380   0.96283   0.00000  Uiso   1.00
C474   C     0.34366   0.68300   0.31337   0.00000  Uiso   1.00
C475   C     0.34928   0.71159   0.31908   0.00000  Uiso   1.00
C476   C     0.35388   0.72614   0.47457   0.00000  Uiso   1.00
C477   C     0.35862   0.75199   0.45112   0.00000  Uiso   1.00
C478   C     0.28952   0.67755   0.20751   0.00000  Uiso   1.00
C479   C     0.24388   0.66346   0.26920   0.00000  Uiso   1.00
C480   C     0.19832   0.66065   0.15182   0.00000  Uiso   1.00
C481   C     0.39236   0.67360   0.19551   0.00000  Uiso   1.00
C482   C     0.43317   0.65620   0.24709   0.00000  Uiso   1.00
C483   C     0.47418   0.65006   0.11958   0.00000  Uiso   1.00
H484   H     0.34403   0.71152   0.86070   0.00000  Uiso   1.00
H485   H     0.35427   0.75673   0.98884   0.00000  Uiso   1.00
H486   H     0.24429   0.69406   0.78349   0.00000  Uiso   1.00
H487   H     0.43355   0.68680   0.76139   0.00000  Uiso   1.00
H488   H     0.36553   0.80205   0.20711   0.00000  Uiso   1.00
H489   H     0.13365   0.66991   0.77411   0.00000  Uiso   1.00
H490   H     0.53274   0.65460   0.72749   0.00000  Uiso   1.00
H491   H     0.34355   0.67453   0.44791   0.00000  Uiso   1.00
H492   H     0.35377   0.71771   0.60828   0.00000  Uiso   1.00
H493   H     0.24378   0.65504   0.40292   0.00000  Uiso   1.00
H494   H     0.43304   0.64778   0.38082   0.00000  Uiso   1.00
H495   H     0.36512   0.77038   0.70988   0.00000  Uiso   1.00
H496   H     0.13323   0.63823   0.27686   0.00000  Uiso   1.00
H497   H     0.53232   0.62292   0.23025   0.00000  Uiso   1.00
O498   O     0.37203   0.81529   0.55340   0.00000  Uiso   1.00
O499   O     0.06781   0.64192   0.98529   0.00000  Uiso   1.00
O500   O     0.59141   0.62183   0.92413   0.00000  Uiso   1.00
N501   N     0.36405   0.78867   0.30343   0.00000  Uiso   1.00
N502   N     0.14724   0.66513   0.89860   0.00000  Uiso   1.00
N503   N     0.52035   0.65081   0.85500   0.00000  Uiso   1.00
N504   N     0.36383   0.77163   0.57396   0.00000  Uiso   1.00
N505   N     0.14702   0.64809   0.16913   0.00000  Uiso   1.00
N506   N     0.52013   0.63377   0.12553   0.00000  Uiso   1.00
C507   C     0.34392   0.20304   0.49523   0.00000  Uiso   1.00
C508   C     0.34943   0.22248   0.64628   0.00000  Uiso   1.00
C509   C     0.35417   0.24831   0.62259   0.00000  Uiso   1.00
C510   C     0.35876   0.26289   0.77800   0.00000  Uiso   1.00
C511   C     0.36730   0.29473   0.98626   0.00000  Uiso   1.00
C512   C     0.28967   0.18843   0.53472   0.00000  Uiso   1.00
C513   C     0.24417   0.18564   0.41721   0.00000  Uiso   1.00
C514   C     0.19846   0.17155   0.47871   0.00000  Uiso   1.00
C515   C     0.11424   0.15051   0.51372   0.00000  Uiso   1.00
C516   C     0.39250   0.18449   0.52271   0.00000  Uiso   1.00
C517   C     0.43345   0.17837   0.39509   0.00000  Uiso   1.00
C518   C     0.47432   0.16097   0.44647   0.00000  Uiso   1.00
C519   C     0.54976   0.13380   0.46283   0.00000  Uiso   1.00
C520   C     0.34366   0.18300   0.81337   0.00000  Uiso   1.00
C521   C     0.34928   0.21159   0.81908   0.00000  Uiso   1.00
C522   C     0.35388   0.22614   0.97457   0.00000  Uiso   1.00
C523   C     0.35862   0.25199   0.95112   0.00000  Uiso   1.00
C524   C     0.28952   0.17755   0.70751   0.00000  Uiso   1.00
C525   C     0.24388   0.16346   0.76920   0.00000  Uiso   1.00
C526   C     0.19832   0.16065   0.65182   0.00000  Uiso   1.00
C527   C     0.39236   0.17360   0.69551   0.00000  Uiso   1.00
C528   C     0.43317   0.15620   0.74709   0.00000  Uiso   1.00
C529   C     0.47418   0.15006   0.61958   0.00000  Uiso   1.00
H530   H     0.34403   0.21152   0.36070   0.00000  Uiso   1.00
H531   H     0.35427   0.25673   0.48884   0.00000  Uiso   1.00
H532   H     0.24429   0.19406   0.28349   0.00000  Uiso   1.00
H533   H     0.43355   0.18680   0.26139   0.00000  Uiso   1.00
H534   H     0.36553   0.30205   0.70711   0.00000  Uiso   1.00
H535   H     0.13365   0.16991   0.27411   0.00000  Uiso   1.00
H536   H     0.53274   0.15460   0.22749   0.00000  Uiso   1.00
H537   H     0.34355   0.17453   0.94791   0.00000  Uiso   1.00
H538   H     0.35377   0.21771   0.10828   0.00000  Uiso   1.00
H539   H     0.24378   0.15504   0.90292   0.00000  Uiso   1.00
H540   H     0.43304   0.14778   0.88082   0.00000  Uiso   1.00
H541   H     0.36512   0.27038   0.20988   0.00000  Uiso   1.00
H542   H     0.13323   0.13823   0.77686   0.00000  Uiso   1.00
H543   H     0.53232   0.12292   0.73025   0.00000  Uiso   1.00
O544   O     0.37203   0.31529   0.05340   0.00000  Uiso   1.00
O545   O     0.06781   0.14192   0.48529   0.00000  Uiso   1.00
O546   O     0.59141   0.12183   0.42413   0.00000  Uiso   1.00
N547   N     0.36405   0.28867   0.80343   0.00000  Uiso   1.00
N548   N     0.14724   0.16513   0.39860   0.00000  Uiso   1.00
N549   N     0.52035   0.15081   0.35500   0.00000  Uiso   1.00
N550   N     0.36383   0.27163   0.07396   0.00000  Uiso   1.00
N551   N     0.14702   0.14809   0.66913   0.00000  Uiso   1.00
N552   N     0.52013   0.13377   0.62553   0.00000  Uiso   1.00
C553   C     0.65608   0.79696   0.49523   0.00000  Uiso   1.00
C554   C     0.65057   0.77752   0.64628   0.00000  Uiso   1.00
C555   C     0.64583   0.75169   0.62259   0.00000  Uiso   1.00
C556   C     0.64124   0.73711   0.77800   0.00000  Uiso   1.00
C557   C     0.63270   0.70527   0.98626   0.00000  Uiso   1.00
C558   C     0.71033   0.81157   0.53472   0.00000  Uiso   1.00
C559   C     0.75583   0.81436   0.41721   0.00000  Uiso   1.00
C560   C     0.80154   0.82845   0.47871   0.00000  Uiso   1.00
C561   C     0.88576   0.84949   0.51372   0.00000  Uiso   1.00
C562   C     0.60750   0.81551   0.52271   0.00000  Uiso   1.00
C563   C     0.56655   0.82163   0.39509   0.00000  Uiso   1.00
C564   C     0.52568   0.83903   0.44647   0.00000  Uiso   1.00
C565   C     0.45024   0.86620   0.46283   0.00000  Uiso   1.00
C566   C     0.65634   0.81700   0.81337   0.00000  Uiso   1.00
C567   C     0.65072   0.78841   0.81908   0.00000  Uiso   1.00
C568   C     0.64612   0.77386   0.97457   0.00000  Uiso   1.00
C569   C     0.64138   0.74801   0.95112   0.00000  Uiso   1.00
C570   C     0.71048   0.82245   0.70751   0.00000  Uiso   1.00
C571   C     0.75612   0.83654   0.76920   0.00000  Uiso   1.00
C572   C     0.80168   0.83935   0.65182   0.00000  Uiso   1.00
C573   C     0.60764   0.82640   0.69551   0.00000  Uiso   1.00
C574   C     0.56683   0.84380   0.74709   0.00000  Uiso   1.00
C575   C     0.52582   0.84994   0.61958   0.00000  Uiso   1.00
H576   H     0.65597   0.78848   0.36070   0.00000  Uiso   1.00
H577   H     0.64573   0.74327   0.48884   0.00000  Uiso   1.00
H578   H     0.75571   0.80594   0.28349   0.00000  Uiso   1.00
H579   H     0.56645   0.81320   0.26139   0.00000  Uiso   1.00
H580   H     0.63447   0.69795   0.70711   0.00000  Uiso   1.00
H581   H     0.86635   0.83009   0.27411   0.00000  Uiso   1.00
H582   H     0.46726   0.84540   0.22749   0.00000  Uiso   1.00
H583   H     0.65645   0.82547   0.94791   0.00000  Uiso   1.00
H584   H     0.64623   0.78229   0.10828   0.00000  Uiso   1.00
H585   H     0.75622   0.84496   0.90292   0.00000  Uiso   1.00
H586   H     0.56696   0.85222   0.88082   0.00000  Uiso   1.00
H587   H     0.63488   0.72962   0.20988   0.00000  Uiso   1.00
H588   H     0.86677   0.86177   0.77686   0.00000  Uiso   1.00
H589   H     0.46768   0.87708   0.73025   0.00000  Uiso   1.00
O590   O     0.62797   0.68471   0.05340   0.00000  Uiso   1.00
O591   O     0.93219   0.85808   0.48529   0.00000  Uiso   1.00
O592   O     0.40859   0.87817   0.42413   0.00000  Uiso   1.00
N593   N     0.63595   0.71133   0.80343   0.00000  Uiso   1.00
N594   N     0.85276   0.83487   0.39860   0.00000  Uiso   1.00
N595   N     0.47965   0.84919   0.35500   0.00000  Uiso   1.00
N596   N     0.63617   0.72837   0.07396   0.00000  Uiso   1.00
N597   N     0.85298   0.85191   0.66913   0.00000  Uiso   1.00
N598   N     0.47987   0.86623   0.62553   0.00000  Uiso   1.00
C599   C     0.65608   0.29696   0.99523   0.00000  Uiso   1.00
C600   C     0.65057   0.27752   0.14628   0.00000  Uiso   1.00
C601   C     0.64583   0.25169   0.12259   0.00000  Uiso   1.00
C602   C     0.64124   0.23711   0.27800   0.00000  Uiso   1.00
C603   C     0.63270   0.20527   0.48626   0.00000  Uiso   1.00
C604   C     0.71033   0.31157   0.03472   0.00000  Uiso   1.00
C605   C     0.75583   0.31436   0.91721   0.00000  Uiso   1.00
C606   C     0.80154   0.32845   0.97871   0.00000  Uiso   1.00
C607   C     0.88576   0.34949   0.01372   0.00000  Uiso   1.00
C608   C     0.60750   0.31551   0.02271   0.00000  Uiso   1.00
C609   C     0.56655   0.32163   0.89509   0.00000  Uiso   1.00
C610   C     0.52568   0.33903   0.94647   0.00000  Uiso   1.00
C611   C     0.45024   0.36620   0.96283   0.00000  Uiso   1.00
C612   C     0.65634   0.31700   0.31337   0.00000  Uiso   1.00
C613   C     0.65072   0.28841   0.31908   0.00000  Uiso   1.00
C614   C     0.64612   0.27386   0.47457   0.00000  Uiso   1.00
C615   C     0.64138   0.24801   0.45112   0.00000  Uiso   1.00
C616   C     0.71048   0.32245   0.20751   0.00000  Uiso   1.00
C617   C     0.75612   0.33654   0.26920   0.00000  Uiso   1.00
C618   C     0.80168   0.33935   0.15182   0.00000  Uiso   1.00
C619   C     0.60764   0.32640   0.19551   0.00000  Uiso   1.00
C620   C     0.56683   0.34380   0.24709   0.00000  Uiso   1.00
C621   C     0.52582   0.34994   0.11958   0.00000  Uiso   1.00
H622   H     0.65597   0.28848   0.86070   0.00000  Uiso   1.00
H623   H     0.64573   0.24327   0.98884   0.00000  Uiso   1.00
H624   H     0.75571   0.30594   0.78349   0.00000  Uiso   1.00
H625   H     0.56645   0.31320   0.76139   0.00000  Uiso   1.00
H626   H     0.63447   0.19795   0.20711   0.00000  Uiso   1.00
H627   H     0.86635   0.33009   0.77411   0.00000  Uiso   1.00
H628   H     0.46726   0.34540   0.72749   0.00000  Uiso   1.00
H629   H     0.65645   0.32547   0.44791   0.00000  Uiso   1.00
H630   H     0.64623   0.28229   0.60828   0.00000  Uiso   1.00
H631   H     0.75622   0.34496   0.40292   0.00000  Uiso   1.00
H632   H     0.56696   0.35222   0.38082   0.00000  Uiso   1.00
H633   H     0.63488   0.22962   0.70988   0.00000  Uiso   1.00
H634   H     0.86677   0.36177   0.27686   0.00000  Uiso   1.00
H635   H     0.46768   0.37708   0.23025   0.00000  Uiso   1.00
O636   O     0.62797   0.18471   0.55340   0.00000  Uiso   1.00
O637   O     0.93219   0.35808   0.98529   0.00000  Uiso   1.00
O638   O     0.40859   0.37817   0.92413   0.00000  Uiso   1.00
N639   N     0.63595   0.21133   0.30343   0.00000  Uiso   1.00
N640   N     0.85276   0.33487   0.89860   0.00000  Uiso   1.00
N641   N     0.47965   0.34919   0.85500   0.00000  Uiso   1.00
N642   N     0.63617   0.22837   0.57396   0.00000  Uiso   1.00
N643   N     0.85298   0.35191   0.16913   0.00000  Uiso   1.00
N644   N     0.47987   0.36623   0.12553   0.00000  Uiso   1.00
C645   C     0.15608   0.79696   0.99523   0.00000  Uiso   1.00
C646   C     0.15057   0.77752   0.14628   0.00000  Uiso   1.00
C647   C     0.14583   0.75169   0.12259   0.00000  Uiso   1.00
C648   C     0.14124   0.73711   0.27800   0.00000  Uiso   1.00
C649   C     0.13270   0.70527   0.48626   0.00000  Uiso   1.00
C650   C     0.21033   0.81157   0.03472   0.00000  Uiso   1.00
C651   C     0.25583   0.81436   0.91721   0.00000  Uiso   1.00
C652   C     0.30154   0.82845   0.97871   0.00000  Uiso   1.00
C653   C     0.38576   0.84949   0.01372   0.00000  Uiso   1.00
C654   C     0.10750   0.81551   0.02271   0.00000  Uiso   1.00
C655   C     0.06655   0.82163   0.89509   0.00000  Uiso   1.00
C656   C     0.02568   0.83903   0.94647   0.00000  Uiso   1.00
C657   C     0.95024   0.86620   0.96283   0.00000  Uiso   1.00
C658   C     0.15634   0.81700   0.31337   0.00000  Uiso   1.00
C659   C     0.15072   0.78841   0.31908   0.00000  Uiso   1.00
C660   C     0.14612   0.77386   0.47457   0.00000  Uiso   1.00
C661   C     0.14138   0.74801   0.45112   0.00000  Uiso   1.00
C662   C     0.21048   0.82245   0.20751   0.00000  Uiso   1.00
C663   C     0.25612   0.83654   0.26920   0.00000  Uiso   1.00
C664   C     0.30168   0.83935   0.15182   0.00000  Uiso   1.00
C665   C     0.10764   0.82640   0.19551   0.00000  Uiso   1.00
C666   C     0.06683   0.84380   0.24709   0.00000  Uiso   1.00
C667   C     0.02582   0.84994   0.11958   0.00000  Uiso   1.00
H668   H     0.15597   0.78848   0.86070   0.00000  Uiso   1.00
H669   H     0.14573   0.74327   0.98884   0.00000  Uiso   1.00
H670   H     0.25571   0.80594   0.78349   0.00000  Uiso   1.00
H671   H     0.06645   0.81320   0.76139   0.00000  Uiso   1.00
H672   H     0.13447   0.69795   0.20711   0.00000  Uiso   1.00
H673   H     0.36635   0.83009   0.77411   0.00000  Uiso   1.00
H674   H     0.96726   0.84540   0.72749   0.00000  Uiso   1.00
H675   H     0.15645   0.82547   0.44791   0.00000  Uiso   1.00
H676   H     0.14623   0.78229   0.60828   0.00000  Uiso   1.00
H677   H     0.25622   0.84496   0.40292   0.00000  Uiso   1.00
H678   H     0.06696   0.85222   0.38082   0.00000  Uiso   1.00
H679   H     0.13488   0.72962   0.70988   0.00000  Uiso   1.00
H680   H     0.36677   0.86177   0.27686   0.00000  Uiso   1.00
H681   H     0.96768   0.87708   0.23025   0.00000  Uiso   1.00
O682   O     0.12797   0.68471   0.55340   0.00000  Uiso   1.00
O683   O     0.43219   0.85808   0.98529   0.00000  Uiso   1.00
O684   O     0.90859   0.87817   0.92413   0.00000  Uiso   1.00
N685   N     0.13595   0.71133   0.30343   0.00000  Uiso   1.00
N686   N     0.35276   0.83487   0.89860   0.00000  Uiso   1.00
N687   N     0.97965   0.84919   0.85500   0.00000  Uiso   1.00
N688   N     0.13617   0.72837   0.57396   0.00000  Uiso   1.00
N689   N     0.35298   0.85191   0.16913   0.00000  Uiso   1.00
N690   N     0.97987   0.86623   0.12553   0.00000  Uiso   1.00
C691   C     0.15608   0.29696   0.49523   0.00000  Uiso   1.00
C692   C     0.15057   0.27752   0.64628   0.00000  Uiso   1.00
C693   C     0.14583   0.25169   0.62259   0.00000  Uiso   1.00
C694   C     0.14124   0.23711   0.77800   0.00000  Uiso   1.00
C695   C     0.13270   0.20527   0.98626   0.00000  Uiso   1.00
C696   C     0.21033   0.31157   0.53472   0.00000  Uiso   1.00
C697   C     0.25583   0.31436   0.41721   0.00000  Uiso   1.00
C698   C     0.30154   0.32845   0.47871   0.00000  Uiso   1.00
C699   C     0.38576   0.34949   0.51372   0.00000  Uiso   1.00
C700   C     0.10750   0.31551   0.52271   0.00000  Uiso   1.00
C701   C     0.06655   0.32163   0.39509   0.00000  Uiso   1.00
C702   C     0.02568   0.33903   0.44647   0.00000  Uiso   1.00
C703   C     0.95024   0.36620   0.46283   0.00000  Uiso   1.00
C704   C     0.15634   0.31700   0.81337   0.00000  Uiso   1.00
C705   C     0.15072   0.28841   0.81908   0.00000  Uiso   1.00
C706   C     0.14612   0.27386   0.97457   0.00000  Uiso   1.00
C707   C     0.14138   0.24801   0.95112   0.00000  Uiso   1.00
C708   C     0.21048   0.32245   0.70751   0.00000  Uiso   1.00
C709   C     0.25612   0.33654   0.76920   0.00000  Uiso   1.00
C710   C     0.30168   0.33935   0.65182   0.00000  Uiso   1.00
C711   C     0.10764   0.32640   0.69551   0.00000  Uiso   1.00
C712   C     0.06683   0.34380   0.74709   0.00000  Uiso   1.00
C713   C     0.02582   0.34994   0.61958   0.00000  Uiso   1.00
H714   H     0.15597   0.28848   0.36070   0.00000  Uiso   1.00
H715   H     0.14573   0.24327   0.48884   0.00000  Uiso   1.00
H716   H     0.25571   0.30594   0.28349   0.00000  Uiso   1.00
H717   H     0.06645   0.31320   0.26139   0.00000  Uiso   1.00
H718   H     0.13447   0.19795   0.70711   0.00000  Uiso   1.00
H719   H     0.36635   0.33009   0.27411   0.00000  Uiso   1.00
H720   H     0.96726   0.34540   0.22749   0.00000  Uiso   1.00
H721   H     0.15645   0.32547   0.94791   0.00000  Uiso   1.00
H722   H     0.14623   0.28229   0.10828   0.00000  Uiso   1.00
H723   H     0.25622   0.34496   0.90292   0.00000  Uiso   1.00
H724   H     0.06696   0.35222   0.88082   0.00000  Uiso   1.00
H725   H     0.13488   0.22962   0.20988   0.00000  Uiso   1.00
H726   H     0.36677   0.36177   0.77686   0.00000  Uiso   1.00
H727   H     0.96768   0.37708   0.73025   0.00000  Uiso   1.00
O728   O     0.12797   0.18471   0.05340   0.00000  Uiso   1.00
O729   O     0.43219   0.35808   0.48529   0.00000  Uiso   1.00
O730   O     0.90859   0.37817   0.42413   0.00000  Uiso   1.00
N731   N     0.13595   0.21133   0.80343   0.00000  Uiso   1.00
N732   N     0.35276   0.33487   0.39860   0.00000  Uiso   1.00
N733   N     0.97965   0.34919   0.35500   0.00000  Uiso   1.00
N734   N     0.13617   0.22837   0.07396   0.00000  Uiso   1.00
N735   N     0.35298   0.35191   0.66913   0.00000  Uiso   1.00
N736   N     0.97987   0.36623   0.62553   0.00000  Uiso   1.00
