data_job_01934
_audit_creation_date              2018-12-19
_audit_creation_method            'Materials Studio'
_symmetry_space_group_name_H-M    'P1'
_symmetry_Int_Tables_number       1
_symmetry_cell_setting            triclinic
loop_
_symmetry_equiv_pos_as_xyz
  x,y,z
_cell_length_a                    42.0777
_cell_length_b                    20.0295
_cell_length_c                    13.0724
_cell_angle_alpha                 90.0000
_cell_angle_beta                  90.0000
_cell_angle_gamma                 90.0000
loop_
_atom_site_label
_atom_site_type_symbol
_atom_site_fract_x
_atom_site_fract_y
_atom_site_fract_z
_atom_site_U_iso_or_equiv
_atom_site_adp_type
_atom_site_occupancy
C1     C     0.49542   0.76051   0.69439   0.00000  Uiso   1.00
C2     C     0.51033   0.82925   0.67985   0.00000  Uiso   1.00
C3     C     0.52043   0.87141   0.75758   0.00000  Uiso   1.00
C4     C     0.53343   0.93222   0.72848   0.00000  Uiso   1.00
C5     C     0.55614   0.03624   0.72159   0.00000  Uiso   1.00
C6     C     0.46345   0.76289   0.63958   0.00000  Uiso   1.00
C7     C     0.43413   0.74924   0.68346   0.00000  Uiso   1.00
C8     C     0.40767   0.75418   0.62045   0.00000  Uiso   1.00
C9     C     0.35760   0.75512   0.55103   0.00000  Uiso   1.00
C10    C     0.51601   0.71203   0.63360   0.00000  Uiso   1.00
C11    C     0.53087   0.65560   0.67243   0.00000  Uiso   1.00
C12    C     0.54866   0.61770   0.60437   0.00000  Uiso   1.00
C13    C     0.58019   0.53967   0.52566   0.00000  Uiso   1.00
C14    C     0.50057   0.79353   0.50448   0.00000  Uiso   1.00
C15    C     0.51313   0.84719   0.57670   0.00000  Uiso   1.00
C16    C     0.52613   0.90794   0.54747   0.00000  Uiso   1.00
C17    C     0.53624   0.95019   0.62514   0.00000  Uiso   1.00
C18    C     0.46625   0.78082   0.53644   0.00000  Uiso   1.00
C19    C     0.43983   0.78578   0.47334   0.00000  Uiso   1.00
C20    C     0.41047   0.77215   0.51711   0.00000  Uiso   1.00
C21    C     0.51881   0.72996   0.53045   0.00000  Uiso   1.00
C22    C     0.53657   0.69213   0.46231   0.00000  Uiso   1.00
C23    C     0.55146   0.63566   0.50103   0.00000  Uiso   1.00
H24    H     0.49324   0.74655   0.77470   0.00000  Uiso   1.00
H25    H     0.51825   0.85752   0.83740   0.00000  Uiso   1.00
H26    H     0.43197   0.73536   0.76328   0.00000  Uiso   1.00
H27    H     0.52870   0.64174   0.75226   0.00000  Uiso   1.00
H28    H     0.54721   0.98847   0.86143   0.00000  Uiso   1.00
H29    H     0.36527   0.73087   0.70514   0.00000  Uiso   1.00
H30    H     0.56925   0.53344   0.68189   0.00000  Uiso   1.00
H31    H     0.50275   0.80749   0.42417   0.00000  Uiso   1.00
H32    H     0.52829   0.92181   0.46764   0.00000  Uiso   1.00
H33    H     0.44200   0.79965   0.39352   0.00000  Uiso   1.00
H34    H     0.53873   0.70603   0.38249   0.00000  Uiso   1.00
H35    H     0.55535   0.04065   0.56131   0.00000  Uiso   1.00
H36    H     0.37341   0.78305   0.40502   0.00000  Uiso   1.00
H37    H     0.57739   0.58562   0.38177   0.00000  Uiso   1.00
O38    O     0.56789   0.08867   0.74629   0.00000  Uiso   1.00
O39    O     0.32920   0.75070   0.54124   0.00000  Uiso   1.00
O40    O     0.59682   0.49168   0.51074   0.00000  Uiso   1.00
N41    N     0.54562   0.98505   0.78483   0.00000  Uiso   1.00
N42    N     0.37552   0.74423   0.63871   0.00000  Uiso   1.00
N43    N     0.56622   0.55964   0.61697   0.00000  Uiso   1.00
N44    N     0.55001   0.01313   0.62334   0.00000  Uiso   1.00
N45    N     0.37991   0.77231   0.47722   0.00000  Uiso   1.00
N46    N     0.57060   0.58771   0.45548   0.00000  Uiso   1.00
C47    C     0.49542   0.26051   0.19439   0.00000  Uiso   1.00
C48    C     0.51033   0.32925   0.17985   0.00000  Uiso   1.00
C49    C     0.52043   0.37141   0.25758   0.00000  Uiso   1.00
C50    C     0.53343   0.43222   0.22848   0.00000  Uiso   1.00
C51    C     0.55614   0.53624   0.22159   0.00000  Uiso   1.00
C52    C     0.46345   0.26289   0.13958   0.00000  Uiso   1.00
C53    C     0.43413   0.24924   0.18346   0.00000  Uiso   1.00
C54    C     0.40767   0.25418   0.12045   0.00000  Uiso   1.00
C55    C     0.35760   0.25512   0.05103   0.00000  Uiso   1.00
C56    C     0.51601   0.21203   0.13360   0.00000  Uiso   1.00
C57    C     0.53087   0.15560   0.17243   0.00000  Uiso   1.00
C58    C     0.54866   0.11770   0.10437   0.00000  Uiso   1.00
C59    C     0.58019   0.03967   0.02566   0.00000  Uiso   1.00
C60    C     0.50057   0.29353   0.00448   0.00000  Uiso   1.00
C61    C     0.51313   0.34719   0.07670   0.00000  Uiso   1.00
C62    C     0.52613   0.40794   0.04747   0.00000  Uiso   1.00
C63    C     0.53624   0.45019   0.12514   0.00000  Uiso   1.00
C64    C     0.46625   0.28082   0.03644   0.00000  Uiso   1.00
C65    C     0.43983   0.28578   0.97334   0.00000  Uiso   1.00
C66    C     0.41047   0.27215   0.01711   0.00000  Uiso   1.00
C67    C     0.51881   0.22996   0.03045   0.00000  Uiso   1.00
C68    C     0.53657   0.19213   0.96231   0.00000  Uiso   1.00
C69    C     0.55146   0.13566   0.00103   0.00000  Uiso   1.00
H70    H     0.49324   0.24655   0.27470   0.00000  Uiso   1.00
H71    H     0.51825   0.35752   0.33740   0.00000  Uiso   1.00
H72    H     0.43197   0.23536   0.26328   0.00000  Uiso   1.00
H73    H     0.52870   0.14174   0.25226   0.00000  Uiso   1.00
H74    H     0.54721   0.48847   0.36143   0.00000  Uiso   1.00
H75    H     0.36527   0.23087   0.20514   0.00000  Uiso   1.00
H76    H     0.56925   0.03344   0.18189   0.00000  Uiso   1.00
H77    H     0.50275   0.30749   0.92417   0.00000  Uiso   1.00
H78    H     0.52829   0.42181   0.96764   0.00000  Uiso   1.00
H79    H     0.44200   0.29965   0.89352   0.00000  Uiso   1.00
H80    H     0.53873   0.20603   0.88249   0.00000  Uiso   1.00
H81    H     0.55535   0.54065   0.06131   0.00000  Uiso   1.00
H82    H     0.37341   0.28305   0.90502   0.00000  Uiso   1.00
H83    H     0.57739   0.08562   0.88177   0.00000  Uiso   1.00
O84    O     0.56789   0.58867   0.24629   0.00000  Uiso   1.00
O85    O     0.32920   0.25070   0.04124   0.00000  Uiso   1.00
O86    O     0.59682   0.99168   0.01074   0.00000  Uiso   1.00
N87    N     0.54562   0.48505   0.28483   0.00000  Uiso   1.00
N88    N     0.37552   0.24423   0.13871   0.00000  Uiso   1.00
N89    N     0.56622   0.05964   0.11697   0.00000  Uiso   1.00
N90    N     0.55001   0.51313   0.12334   0.00000  Uiso   1.00
N91    N     0.37991   0.27231   0.97722   0.00000  Uiso   1.00
N92    N     0.57060   0.08771   0.95548   0.00000  Uiso   1.00
C93    C     0.99542   0.76051   0.19439   0.00000  Uiso   1.00
C94    C     0.01033   0.82925   0.17985   0.00000  Uiso   1.00
C95    C     0.02043   0.87141   0.25758   0.00000  Uiso   1.00
C96    C     0.03343   0.93222   0.22848   0.00000  Uiso   1.00
C97    C     0.05614   0.03624   0.22159   0.00000  Uiso   1.00
C98    C     0.96345   0.76289   0.13958   0.00000  Uiso   1.00
C99    C     0.93413   0.74924   0.18346   0.00000  Uiso   1.00
C100   C     0.90767   0.75418   0.12045   0.00000  Uiso   1.00
C101   C     0.85760   0.75512   0.05103   0.00000  Uiso   1.00
C102   C     0.01601   0.71203   0.13360   0.00000  Uiso   1.00
C103   C     0.03087   0.65560   0.17243   0.00000  Uiso   1.00
C104   C     0.04866   0.61770   0.10437   0.00000  Uiso   1.00
C105   C     0.08019   0.53967   0.02566   0.00000  Uiso   1.00
C106   C     0.00057   0.79353   0.00448   0.00000  Uiso   1.00
C107   C     0.01313   0.84719   0.07670   0.00000  Uiso   1.00
C108   C     0.02613   0.90794   0.04747   0.00000  Uiso   1.00
C109   C     0.03624   0.95019   0.12514   0.00000  Uiso   1.00
C110   C     0.96625   0.78082   0.03644   0.00000  Uiso   1.00
C111   C     0.93983   0.78578   0.97334   0.00000  Uiso   1.00
C112   C     0.91047   0.77215   0.01711   0.00000  Uiso   1.00
C113   C     0.01881   0.72996   0.03045   0.00000  Uiso   1.00
C114   C     0.03657   0.69213   0.96231   0.00000  Uiso   1.00
C115   C     0.05146   0.63566   0.00103   0.00000  Uiso   1.00
H116   H     0.99324   0.74655   0.27470   0.00000  Uiso   1.00
H117   H     0.01825   0.85752   0.33740   0.00000  Uiso   1.00
H118   H     0.93197   0.73536   0.26328   0.00000  Uiso   1.00
H119   H     0.02870   0.64174   0.25226   0.00000  Uiso   1.00
H120   H     0.04721   0.98847   0.36143   0.00000  Uiso   1.00
H121   H     0.86527   0.73087   0.20514   0.00000  Uiso   1.00
H122   H     0.06925   0.53344   0.18189   0.00000  Uiso   1.00
H123   H     0.00275   0.80749   0.92417   0.00000  Uiso   1.00
H124   H     0.02829   0.92181   0.96764   0.00000  Uiso   1.00
H125   H     0.94200   0.79965   0.89352   0.00000  Uiso   1.00
H126   H     0.03873   0.70603   0.88249   0.00000  Uiso   1.00
H127   H     0.05535   0.04065   0.06131   0.00000  Uiso   1.00
H128   H     0.87341   0.78305   0.90502   0.00000  Uiso   1.00
H129   H     0.07739   0.58562   0.88177   0.00000  Uiso   1.00
O130   O     0.06789   0.08867   0.24629   0.00000  Uiso   1.00
O131   O     0.82920   0.75070   0.04124   0.00000  Uiso   1.00
O132   O     0.09682   0.49168   0.01074   0.00000  Uiso   1.00
N133   N     0.04562   0.98505   0.28483   0.00000  Uiso   1.00
N134   N     0.87552   0.74423   0.13871   0.00000  Uiso   1.00
N135   N     0.06622   0.55964   0.11697   0.00000  Uiso   1.00
N136   N     0.05001   0.01313   0.12334   0.00000  Uiso   1.00
N137   N     0.87991   0.77231   0.97722   0.00000  Uiso   1.00
N138   N     0.07060   0.58771   0.95548   0.00000  Uiso   1.00
C139   C     0.99542   0.26051   0.69439   0.00000  Uiso   1.00
C140   C     0.01033   0.32925   0.67985   0.00000  Uiso   1.00
C141   C     0.02043   0.37141   0.75758   0.00000  Uiso   1.00
C142   C     0.03343   0.43222   0.72848   0.00000  Uiso   1.00
C143   C     0.05614   0.53624   0.72159   0.00000  Uiso   1.00
C144   C     0.96345   0.26289   0.63958   0.00000  Uiso   1.00
C145   C     0.93413   0.24924   0.68346   0.00000  Uiso   1.00
C146   C     0.90767   0.25418   0.62045   0.00000  Uiso   1.00
C147   C     0.85760   0.25512   0.55103   0.00000  Uiso   1.00
C148   C     0.01601   0.21203   0.63360   0.00000  Uiso   1.00
C149   C     0.03087   0.15560   0.67243   0.00000  Uiso   1.00
C150   C     0.04866   0.11770   0.60437   0.00000  Uiso   1.00
C151   C     0.08019   0.03967   0.52566   0.00000  Uiso   1.00
C152   C     0.00057   0.29353   0.50448   0.00000  Uiso   1.00
C153   C     0.01313   0.34719   0.57670   0.00000  Uiso   1.00
C154   C     0.02613   0.40794   0.54747   0.00000  Uiso   1.00
C155   C     0.03624   0.45019   0.62514   0.00000  Uiso   1.00
C156   C     0.96625   0.28082   0.53644   0.00000  Uiso   1.00
C157   C     0.93983   0.28578   0.47334   0.00000  Uiso   1.00
C158   C     0.91047   0.27215   0.51711   0.00000  Uiso   1.00
C159   C     0.01881   0.22996   0.53045   0.00000  Uiso   1.00
C160   C     0.03657   0.19213   0.46231   0.00000  Uiso   1.00
C161   C     0.05146   0.13566   0.50103   0.00000  Uiso   1.00
H162   H     0.99324   0.24655   0.77470   0.00000  Uiso   1.00
H163   H     0.01825   0.35752   0.83740   0.00000  Uiso   1.00
H164   H     0.93197   0.23536   0.76328   0.00000  Uiso   1.00
H165   H     0.02870   0.14174   0.75226   0.00000  Uiso   1.00
H166   H     0.04721   0.48847   0.86143   0.00000  Uiso   1.00
H167   H     0.86527   0.23087   0.70514   0.00000  Uiso   1.00
H168   H     0.06925   0.03344   0.68189   0.00000  Uiso   1.00
H169   H     0.00275   0.30749   0.42417   0.00000  Uiso   1.00
H170   H     0.02829   0.42181   0.46764   0.00000  Uiso   1.00
H171   H     0.94200   0.29965   0.39352   0.00000  Uiso   1.00
H172   H     0.03873   0.20603   0.38249   0.00000  Uiso   1.00
H173   H     0.05535   0.54065   0.56131   0.00000  Uiso   1.00
H174   H     0.87341   0.28305   0.40502   0.00000  Uiso   1.00
H175   H     0.07739   0.08562   0.38177   0.00000  Uiso   1.00
O176   O     0.06789   0.58867   0.74629   0.00000  Uiso   1.00
O177   O     0.82920   0.25070   0.54124   0.00000  Uiso   1.00
O178   O     0.09682   0.99168   0.51074   0.00000  Uiso   1.00
N179   N     0.04562   0.48505   0.78483   0.00000  Uiso   1.00
N180   N     0.87552   0.24423   0.63871   0.00000  Uiso   1.00
N181   N     0.06622   0.05964   0.61697   0.00000  Uiso   1.00
N182   N     0.05001   0.51313   0.62334   0.00000  Uiso   1.00
N183   N     0.87991   0.27231   0.47722   0.00000  Uiso   1.00
N184   N     0.07060   0.08771   0.45548   0.00000  Uiso   1.00
C185   C     0.50458   0.23949   0.69439   0.00000  Uiso   1.00
C186   C     0.48967   0.17075   0.67985   0.00000  Uiso   1.00
C187   C     0.47957   0.12859   0.75758   0.00000  Uiso   1.00
C188   C     0.46657   0.06778   0.72848   0.00000  Uiso   1.00
C189   C     0.44386   0.96376   0.72159   0.00000  Uiso   1.00
C190   C     0.53655   0.23711   0.63958   0.00000  Uiso   1.00
C191   C     0.56587   0.25076   0.68346   0.00000  Uiso   1.00
C192   C     0.59233   0.24582   0.62045   0.00000  Uiso   1.00
C193   C     0.64240   0.24488   0.55103   0.00000  Uiso   1.00
C194   C     0.48399   0.28797   0.63360   0.00000  Uiso   1.00
C195   C     0.46913   0.34440   0.67243   0.00000  Uiso   1.00
C196   C     0.45134   0.38230   0.60437   0.00000  Uiso   1.00
C197   C     0.41981   0.46033   0.52566   0.00000  Uiso   1.00
C198   C     0.49943   0.20647   0.50448   0.00000  Uiso   1.00
C199   C     0.48687   0.15281   0.57670   0.00000  Uiso   1.00
C200   C     0.47387   0.09206   0.54747   0.00000  Uiso   1.00
C201   C     0.46376   0.04981   0.62514   0.00000  Uiso   1.00
C202   C     0.53375   0.21918   0.53644   0.00000  Uiso   1.00
C203   C     0.56017   0.21422   0.47334   0.00000  Uiso   1.00
C204   C     0.58953   0.22785   0.51711   0.00000  Uiso   1.00
C205   C     0.48119   0.27004   0.53045   0.00000  Uiso   1.00
C206   C     0.46343   0.30787   0.46231   0.00000  Uiso   1.00
C207   C     0.44854   0.36434   0.50103   0.00000  Uiso   1.00
H208   H     0.50676   0.25345   0.77470   0.00000  Uiso   1.00
H209   H     0.48175   0.14248   0.83740   0.00000  Uiso   1.00
H210   H     0.56803   0.26464   0.76328   0.00000  Uiso   1.00
H211   H     0.47130   0.35826   0.75226   0.00000  Uiso   1.00
H212   H     0.45279   0.01153   0.86143   0.00000  Uiso   1.00
H213   H     0.63473   0.26913   0.70514   0.00000  Uiso   1.00
H214   H     0.43075   0.46656   0.68189   0.00000  Uiso   1.00
H215   H     0.49725   0.19251   0.42417   0.00000  Uiso   1.00
H216   H     0.47171   0.07819   0.46764   0.00000  Uiso   1.00
H217   H     0.55800   0.20035   0.39352   0.00000  Uiso   1.00
H218   H     0.46127   0.29397   0.38249   0.00000  Uiso   1.00
H219   H     0.44465   0.95935   0.56131   0.00000  Uiso   1.00
H220   H     0.62659   0.21695   0.40502   0.00000  Uiso   1.00
H221   H     0.42261   0.41438   0.38177   0.00000  Uiso   1.00
O222   O     0.43211   0.91133   0.74629   0.00000  Uiso   1.00
O223   O     0.67080   0.24930   0.54124   0.00000  Uiso   1.00
O224   O     0.40318   0.50832   0.51074   0.00000  Uiso   1.00
N225   N     0.45438   0.01495   0.78483   0.00000  Uiso   1.00
N226   N     0.62448   0.25577   0.63871   0.00000  Uiso   1.00
N227   N     0.43378   0.44036   0.61697   0.00000  Uiso   1.00
N228   N     0.44999   0.98687   0.62334   0.00000  Uiso   1.00
N229   N     0.62009   0.22769   0.47722   0.00000  Uiso   1.00
N230   N     0.42940   0.41229   0.45548   0.00000  Uiso   1.00
C231   C     0.50458   0.73949   0.19439   0.00000  Uiso   1.00
C232   C     0.48967   0.67075   0.17985   0.00000  Uiso   1.00
C233   C     0.47957   0.62859   0.25758   0.00000  Uiso   1.00
C234   C     0.46657   0.56778   0.22848   0.00000  Uiso   1.00
C235   C     0.44386   0.46376   0.22159   0.00000  Uiso   1.00
C236   C     0.53655   0.73711   0.13958   0.00000  Uiso   1.00
C237   C     0.56587   0.75076   0.18346   0.00000  Uiso   1.00
C238   C     0.59233   0.74582   0.12045   0.00000  Uiso   1.00
C239   C     0.64240   0.74488   0.05103   0.00000  Uiso   1.00
C240   C     0.48399   0.78797   0.13360   0.00000  Uiso   1.00
C241   C     0.46913   0.84440   0.17243   0.00000  Uiso   1.00
C242   C     0.45134   0.88230   0.10437   0.00000  Uiso   1.00
C243   C     0.41981   0.96033   0.02566   0.00000  Uiso   1.00
C244   C     0.49943   0.70647   0.00448   0.00000  Uiso   1.00
C245   C     0.48687   0.65281   0.07670   0.00000  Uiso   1.00
C246   C     0.47387   0.59206   0.04747   0.00000  Uiso   1.00
C247   C     0.46376   0.54981   0.12514   0.00000  Uiso   1.00
C248   C     0.53375   0.71918   0.03644   0.00000  Uiso   1.00
C249   C     0.56017   0.71422   0.97334   0.00000  Uiso   1.00
C250   C     0.58953   0.72785   0.01711   0.00000  Uiso   1.00
C251   C     0.48119   0.77004   0.03045   0.00000  Uiso   1.00
C252   C     0.46343   0.80787   0.96231   0.00000  Uiso   1.00
C253   C     0.44854   0.86434   0.00103   0.00000  Uiso   1.00
H254   H     0.50676   0.75345   0.27470   0.00000  Uiso   1.00
H255   H     0.48175   0.64248   0.33740   0.00000  Uiso   1.00
H256   H     0.56803   0.76464   0.26328   0.00000  Uiso   1.00
H257   H     0.47130   0.85826   0.25226   0.00000  Uiso   1.00
H258   H     0.45279   0.51153   0.36143   0.00000  Uiso   1.00
H259   H     0.63473   0.76913   0.20514   0.00000  Uiso   1.00
H260   H     0.43075   0.96656   0.18189   0.00000  Uiso   1.00
H261   H     0.49725   0.69251   0.92417   0.00000  Uiso   1.00
H262   H     0.47171   0.57819   0.96764   0.00000  Uiso   1.00
H263   H     0.55800   0.70035   0.89352   0.00000  Uiso   1.00
H264   H     0.46127   0.79397   0.88249   0.00000  Uiso   1.00
H265   H     0.44465   0.45935   0.06131   0.00000  Uiso   1.00
H266   H     0.62659   0.71695   0.90502   0.00000  Uiso   1.00
H267   H     0.42261   0.91438   0.88177   0.00000  Uiso   1.00
O268   O     0.43211   0.41133   0.24629   0.00000  Uiso   1.00
O269   O     0.67080   0.74930   0.04124   0.00000  Uiso   1.00
O270   O     0.40318   0.00832   0.01074   0.00000  Uiso   1.00
N271   N     0.45438   0.51495   0.28483   0.00000  Uiso   1.00
N272   N     0.62448   0.75577   0.13871   0.00000  Uiso   1.00
N273   N     0.43378   0.94036   0.11697   0.00000  Uiso   1.00
N274   N     0.44999   0.48687   0.12334   0.00000  Uiso   1.00
N275   N     0.62009   0.72769   0.97722   0.00000  Uiso   1.00
N276   N     0.42940   0.91229   0.95548   0.00000  Uiso   1.00
C277   C     0.00458   0.23949   0.19439   0.00000  Uiso   1.00
C278   C     0.98967   0.17075   0.17985   0.00000  Uiso   1.00
C279   C     0.97957   0.12859   0.25758   0.00000  Uiso   1.00
C280   C     0.96657   0.06778   0.22848   0.00000  Uiso   1.00
C281   C     0.94386   0.96376   0.22159   0.00000  Uiso   1.00
C282   C     0.03655   0.23711   0.13958   0.00000  Uiso   1.00
C283   C     0.06587   0.25076   0.18346   0.00000  Uiso   1.00
C284   C     0.09233   0.24582   0.12045   0.00000  Uiso   1.00
C285   C     0.14240   0.24488   0.05103   0.00000  Uiso   1.00
C286   C     0.98399   0.28797   0.13360   0.00000  Uiso   1.00
C287   C     0.96913   0.34440   0.17243   0.00000  Uiso   1.00
C288   C     0.95134   0.38230   0.10437   0.00000  Uiso   1.00
C289   C     0.91981   0.46033   0.02566   0.00000  Uiso   1.00
C290   C     0.99943   0.20647   0.00448   0.00000  Uiso   1.00
C291   C     0.98687   0.15281   0.07670   0.00000  Uiso   1.00
C292   C     0.97387   0.09206   0.04747   0.00000  Uiso   1.00
C293   C     0.96376   0.04981   0.12514   0.00000  Uiso   1.00
C294   C     0.03375   0.21918   0.03644   0.00000  Uiso   1.00
C295   C     0.06017   0.21422   0.97334   0.00000  Uiso   1.00
C296   C     0.08953   0.22785   0.01711   0.00000  Uiso   1.00
C297   C     0.98119   0.27004   0.03045   0.00000  Uiso   1.00
C298   C     0.96343   0.30787   0.96231   0.00000  Uiso   1.00
C299   C     0.94854   0.36434   0.00103   0.00000  Uiso   1.00
H300   H     0.00676   0.25345   0.27470   0.00000  Uiso   1.00
H301   H     0.98175   0.14248   0.33740   0.00000  Uiso   1.00
H302   H     0.06803   0.26464   0.26328   0.00000  Uiso   1.00
H303   H     0.97130   0.35826   0.25226   0.00000  Uiso   1.00
H304   H     0.95279   0.01153   0.36143   0.00000  Uiso   1.00
H305   H     0.13473   0.26913   0.20514   0.00000  Uiso   1.00
H306   H     0.93075   0.46656   0.18189   0.00000  Uiso   1.00
H307   H     0.99725   0.19251   0.92417   0.00000  Uiso   1.00
H308   H     0.97171   0.07819   0.96764   0.00000  Uiso   1.00
H309   H     0.05800   0.20035   0.89352   0.00000  Uiso   1.00
H310   H     0.96127   0.29397   0.88249   0.00000  Uiso   1.00
H311   H     0.94465   0.95935   0.06131   0.00000  Uiso   1.00
H312   H     0.12659   0.21695   0.90502   0.00000  Uiso   1.00
H313   H     0.92261   0.41438   0.88177   0.00000  Uiso   1.00
O314   O     0.93211   0.91133   0.24629   0.00000  Uiso   1.00
O315   O     0.17080   0.24930   0.04124   0.00000  Uiso   1.00
O316   O     0.90318   0.50832   0.01074   0.00000  Uiso   1.00
N317   N     0.95438   0.01495   0.28483   0.00000  Uiso   1.00
N318   N     0.12448   0.25577   0.13871   0.00000  Uiso   1.00
N319   N     0.93378   0.44036   0.11697   0.00000  Uiso   1.00
N320   N     0.94999   0.98687   0.12334   0.00000  Uiso   1.00
N321   N     0.12009   0.22769   0.97722   0.00000  Uiso   1.00
N322   N     0.92940   0.41229   0.95548   0.00000  Uiso   1.00
C323   C     0.00458   0.73949   0.69439   0.00000  Uiso   1.00
C324   C     0.98967   0.67075   0.67985   0.00000  Uiso   1.00
C325   C     0.97957   0.62859   0.75758   0.00000  Uiso   1.00
C326   C     0.96657   0.56778   0.72848   0.00000  Uiso   1.00
C327   C     0.94386   0.46376   0.72159   0.00000  Uiso   1.00
C328   C     0.03655   0.73711   0.63958   0.00000  Uiso   1.00
C329   C     0.06587   0.75076   0.68346   0.00000  Uiso   1.00
C330   C     0.09233   0.74582   0.62045   0.00000  Uiso   1.00
C331   C     0.14240   0.74488   0.55103   0.00000  Uiso   1.00
C332   C     0.98399   0.78797   0.63360   0.00000  Uiso   1.00
C333   C     0.96913   0.84440   0.67243   0.00000  Uiso   1.00
C334   C     0.95134   0.88230   0.60437   0.00000  Uiso   1.00
C335   C     0.91981   0.96033   0.52566   0.00000  Uiso   1.00
C336   C     0.99943   0.70647   0.50448   0.00000  Uiso   1.00
C337   C     0.98687   0.65281   0.57670   0.00000  Uiso   1.00
C338   C     0.97387   0.59206   0.54747   0.00000  Uiso   1.00
C339   C     0.96376   0.54981   0.62514   0.00000  Uiso   1.00
C340   C     0.03375   0.71918   0.53644   0.00000  Uiso   1.00
C341   C     0.06017   0.71422   0.47334   0.00000  Uiso   1.00
C342   C     0.08953   0.72785   0.51711   0.00000  Uiso   1.00
C343   C     0.98119   0.77004   0.53045   0.00000  Uiso   1.00
C344   C     0.96343   0.80787   0.46231   0.00000  Uiso   1.00
C345   C     0.94854   0.86434   0.50103   0.00000  Uiso   1.00
H346   H     0.00676   0.75345   0.77470   0.00000  Uiso   1.00
H347   H     0.98175   0.64248   0.83740   0.00000  Uiso   1.00
H348   H     0.06803   0.76464   0.76328   0.00000  Uiso   1.00
H349   H     0.97130   0.85826   0.75226   0.00000  Uiso   1.00
H350   H     0.95279   0.51153   0.86143   0.00000  Uiso   1.00
H351   H     0.13473   0.76913   0.70514   0.00000  Uiso   1.00
H352   H     0.93075   0.96656   0.68189   0.00000  Uiso   1.00
H353   H     0.99725   0.69251   0.42417   0.00000  Uiso   1.00
H354   H     0.97171   0.57819   0.46764   0.00000  Uiso   1.00
H355   H     0.05800   0.70035   0.39352   0.00000  Uiso   1.00
H356   H     0.96127   0.79397   0.38249   0.00000  Uiso   1.00
H357   H     0.94465   0.45935   0.56131   0.00000  Uiso   1.00
H358   H     0.12659   0.71695   0.40502   0.00000  Uiso   1.00
H359   H     0.92261   0.91438   0.38177   0.00000  Uiso   1.00
O360   O     0.93211   0.41133   0.74629   0.00000  Uiso   1.00
O361   O     0.17080   0.74930   0.54124   0.00000  Uiso   1.00
O362   O     0.90318   0.00832   0.51074   0.00000  Uiso   1.00
N363   N     0.95438   0.51495   0.78483   0.00000  Uiso   1.00
N364   N     0.12448   0.75577   0.63871   0.00000  Uiso   1.00
N365   N     0.93378   0.94036   0.61697   0.00000  Uiso   1.00
N366   N     0.94999   0.48687   0.62334   0.00000  Uiso   1.00
N367   N     0.12009   0.72769   0.47722   0.00000  Uiso   1.00
N368   N     0.92940   0.91229   0.45548   0.00000  Uiso   1.00
C369   C     0.74542   0.48949   0.94439   0.00000  Uiso   1.00
C370   C     0.76033   0.42075   0.92985   0.00000  Uiso   1.00
C371   C     0.77043   0.37859   0.00758   0.00000  Uiso   1.00
C372   C     0.78343   0.31778   0.97848   0.00000  Uiso   1.00
C373   C     0.80614   0.21376   0.97159   0.00000  Uiso   1.00
C374   C     0.71345   0.48711   0.88958   0.00000  Uiso   1.00
C375   C     0.68413   0.50076   0.93346   0.00000  Uiso   1.00
C376   C     0.65767   0.49582   0.87045   0.00000  Uiso   1.00
C377   C     0.60760   0.49488   0.80103   0.00000  Uiso   1.00
C378   C     0.76601   0.53797   0.88360   0.00000  Uiso   1.00
C379   C     0.78087   0.59440   0.92243   0.00000  Uiso   1.00
C380   C     0.79866   0.63230   0.85437   0.00000  Uiso   1.00
C381   C     0.83019   0.71033   0.77566   0.00000  Uiso   1.00
C382   C     0.75057   0.45647   0.75448   0.00000  Uiso   1.00
C383   C     0.76313   0.40281   0.82670   0.00000  Uiso   1.00
C384   C     0.77613   0.34206   0.79747   0.00000  Uiso   1.00
C385   C     0.78624   0.29981   0.87514   0.00000  Uiso   1.00
C386   C     0.71625   0.46918   0.78644   0.00000  Uiso   1.00
C387   C     0.68983   0.46422   0.72334   0.00000  Uiso   1.00
C388   C     0.66047   0.47785   0.76711   0.00000  Uiso   1.00
C389   C     0.76881   0.52004   0.78045   0.00000  Uiso   1.00
C390   C     0.78657   0.55787   0.71231   0.00000  Uiso   1.00
C391   C     0.80146   0.61434   0.75103   0.00000  Uiso   1.00
H392   H     0.74324   0.50345   0.02470   0.00000  Uiso   1.00
H393   H     0.76825   0.39248   0.08740   0.00000  Uiso   1.00
H394   H     0.68197   0.51464   0.01328   0.00000  Uiso   1.00
H395   H     0.77870   0.60826   0.00226   0.00000  Uiso   1.00
H396   H     0.79721   0.26153   0.11143   0.00000  Uiso   1.00
H397   H     0.61527   0.51913   0.95514   0.00000  Uiso   1.00
H398   H     0.81925   0.71656   0.93189   0.00000  Uiso   1.00
H399   H     0.75275   0.44251   0.67417   0.00000  Uiso   1.00
H400   H     0.77829   0.32819   0.71764   0.00000  Uiso   1.00
H401   H     0.69200   0.45035   0.64352   0.00000  Uiso   1.00
H402   H     0.78873   0.54397   0.63249   0.00000  Uiso   1.00
H403   H     0.80535   0.20935   0.81131   0.00000  Uiso   1.00
H404   H     0.62341   0.46695   0.65502   0.00000  Uiso   1.00
H405   H     0.82739   0.66438   0.63177   0.00000  Uiso   1.00
O406   O     0.81789   0.16133   0.99629   0.00000  Uiso   1.00
O407   O     0.57920   0.49930   0.79124   0.00000  Uiso   1.00
O408   O     0.84682   0.75832   0.76074   0.00000  Uiso   1.00
N409   N     0.79562   0.26495   0.03483   0.00000  Uiso   1.00
N410   N     0.62552   0.50577   0.88871   0.00000  Uiso   1.00
N411   N     0.81622   0.69036   0.86697   0.00000  Uiso   1.00
N412   N     0.80001   0.23687   0.87334   0.00000  Uiso   1.00
N413   N     0.62991   0.47769   0.72722   0.00000  Uiso   1.00
N414   N     0.82060   0.66229   0.70548   0.00000  Uiso   1.00
C415   C     0.74542   0.98949   0.44439   0.00000  Uiso   1.00
C416   C     0.76033   0.92075   0.42985   0.00000  Uiso   1.00
C417   C     0.77043   0.87859   0.50758   0.00000  Uiso   1.00
C418   C     0.78343   0.81778   0.47848   0.00000  Uiso   1.00
C419   C     0.80614   0.71376   0.47159   0.00000  Uiso   1.00
C420   C     0.71345   0.98711   0.38958   0.00000  Uiso   1.00
C421   C     0.68413   0.00076   0.43346   0.00000  Uiso   1.00
C422   C     0.65767   0.99582   0.37045   0.00000  Uiso   1.00
C423   C     0.60760   0.99488   0.30103   0.00000  Uiso   1.00
C424   C     0.76601   0.03797   0.38360   0.00000  Uiso   1.00
C425   C     0.78087   0.09440   0.42243   0.00000  Uiso   1.00
C426   C     0.79866   0.13230   0.35437   0.00000  Uiso   1.00
C427   C     0.83019   0.21033   0.27566   0.00000  Uiso   1.00
C428   C     0.75057   0.95647   0.25448   0.00000  Uiso   1.00
C429   C     0.76313   0.90281   0.32670   0.00000  Uiso   1.00
C430   C     0.77613   0.84206   0.29747   0.00000  Uiso   1.00
C431   C     0.78624   0.79981   0.37514   0.00000  Uiso   1.00
C432   C     0.71625   0.96918   0.28644   0.00000  Uiso   1.00
C433   C     0.68983   0.96422   0.22334   0.00000  Uiso   1.00
C434   C     0.66047   0.97785   0.26711   0.00000  Uiso   1.00
C435   C     0.76881   0.02004   0.28045   0.00000  Uiso   1.00
C436   C     0.78657   0.05787   0.21231   0.00000  Uiso   1.00
C437   C     0.80146   0.11434   0.25103   0.00000  Uiso   1.00
H438   H     0.74324   0.00345   0.52470   0.00000  Uiso   1.00
H439   H     0.76825   0.89248   0.58740   0.00000  Uiso   1.00
H440   H     0.68197   0.01464   0.51328   0.00000  Uiso   1.00
H441   H     0.77870   0.10826   0.50226   0.00000  Uiso   1.00
H442   H     0.79721   0.76153   0.61143   0.00000  Uiso   1.00
H443   H     0.61527   0.01913   0.45514   0.00000  Uiso   1.00
H444   H     0.81925   0.21656   0.43189   0.00000  Uiso   1.00
H445   H     0.75275   0.94251   0.17417   0.00000  Uiso   1.00
H446   H     0.77829   0.82819   0.21764   0.00000  Uiso   1.00
H447   H     0.69200   0.95035   0.14352   0.00000  Uiso   1.00
H448   H     0.78873   0.04397   0.13249   0.00000  Uiso   1.00
H449   H     0.80535   0.70935   0.31131   0.00000  Uiso   1.00
H450   H     0.62341   0.96695   0.15502   0.00000  Uiso   1.00
H451   H     0.82739   0.16438   0.13177   0.00000  Uiso   1.00
O452   O     0.81789   0.66133   0.49629   0.00000  Uiso   1.00
O453   O     0.57920   0.99930   0.29124   0.00000  Uiso   1.00
O454   O     0.84682   0.25832   0.26074   0.00000  Uiso   1.00
N455   N     0.79562   0.76495   0.53483   0.00000  Uiso   1.00
N456   N     0.62552   0.00577   0.38871   0.00000  Uiso   1.00
N457   N     0.81622   0.19036   0.36697   0.00000  Uiso   1.00
N458   N     0.80001   0.73687   0.37334   0.00000  Uiso   1.00
N459   N     0.62991   0.97769   0.22722   0.00000  Uiso   1.00
N460   N     0.82060   0.16229   0.20548   0.00000  Uiso   1.00
C461   C     0.24542   0.48949   0.44439   0.00000  Uiso   1.00
C462   C     0.26033   0.42075   0.42985   0.00000  Uiso   1.00
C463   C     0.27043   0.37859   0.50758   0.00000  Uiso   1.00
C464   C     0.28343   0.31778   0.47848   0.00000  Uiso   1.00
C465   C     0.30614   0.21376   0.47159   0.00000  Uiso   1.00
C466   C     0.21345   0.48711   0.38958   0.00000  Uiso   1.00
C467   C     0.18413   0.50076   0.43346   0.00000  Uiso   1.00
C468   C     0.15767   0.49582   0.37045   0.00000  Uiso   1.00
C469   C     0.10760   0.49488   0.30103   0.00000  Uiso   1.00
C470   C     0.26601   0.53797   0.38360   0.00000  Uiso   1.00
C471   C     0.28087   0.59440   0.42243   0.00000  Uiso   1.00
C472   C     0.29866   0.63230   0.35437   0.00000  Uiso   1.00
C473   C     0.33019   0.71033   0.27566   0.00000  Uiso   1.00
C474   C     0.25057   0.45647   0.25448   0.00000  Uiso   1.00
C475   C     0.26313   0.40281   0.32670   0.00000  Uiso   1.00
C476   C     0.27613   0.34206   0.29747   0.00000  Uiso   1.00
C477   C     0.28624   0.29981   0.37514   0.00000  Uiso   1.00
C478   C     0.21625   0.46918   0.28644   0.00000  Uiso   1.00
C479   C     0.18983   0.46422   0.22334   0.00000  Uiso   1.00
C480   C     0.16047   0.47785   0.26711   0.00000  Uiso   1.00
C481   C     0.26881   0.52004   0.28045   0.00000  Uiso   1.00
C482   C     0.28657   0.55787   0.21231   0.00000  Uiso   1.00
C483   C     0.30146   0.61434   0.25103   0.00000  Uiso   1.00
H484   H     0.24324   0.50345   0.52470   0.00000  Uiso   1.00
H485   H     0.26825   0.39248   0.58740   0.00000  Uiso   1.00
H486   H     0.18197   0.51464   0.51328   0.00000  Uiso   1.00
H487   H     0.27870   0.60826   0.50226   0.00000  Uiso   1.00
H488   H     0.29721   0.26153   0.61143   0.00000  Uiso   1.00
H489   H     0.11527   0.51913   0.45514   0.00000  Uiso   1.00
H490   H     0.31925   0.71656   0.43189   0.00000  Uiso   1.00
H491   H     0.25275   0.44251   0.17417   0.00000  Uiso   1.00
H492   H     0.27829   0.32819   0.21764   0.00000  Uiso   1.00
H493   H     0.19200   0.45035   0.14352   0.00000  Uiso   1.00
H494   H     0.28873   0.54397   0.13249   0.00000  Uiso   1.00
H495   H     0.30535   0.20935   0.31131   0.00000  Uiso   1.00
H496   H     0.12341   0.46695   0.15502   0.00000  Uiso   1.00
H497   H     0.32739   0.66438   0.13177   0.00000  Uiso   1.00
O498   O     0.31789   0.16133   0.49629   0.00000  Uiso   1.00
O499   O     0.07920   0.49930   0.29124   0.00000  Uiso   1.00
O500   O     0.34682   0.75832   0.26074   0.00000  Uiso   1.00
N501   N     0.29562   0.26495   0.53483   0.00000  Uiso   1.00
N502   N     0.12552   0.50577   0.38871   0.00000  Uiso   1.00
N503   N     0.31622   0.69036   0.36697   0.00000  Uiso   1.00
N504   N     0.30001   0.23687   0.37334   0.00000  Uiso   1.00
N505   N     0.12991   0.47769   0.22722   0.00000  Uiso   1.00
N506   N     0.32060   0.66229   0.20548   0.00000  Uiso   1.00
C507   C     0.24542   0.98949   0.94439   0.00000  Uiso   1.00
C508   C     0.26033   0.92075   0.92985   0.00000  Uiso   1.00
C509   C     0.27043   0.87859   0.00758   0.00000  Uiso   1.00
C510   C     0.28343   0.81778   0.97848   0.00000  Uiso   1.00
C511   C     0.30614   0.71376   0.97159   0.00000  Uiso   1.00
C512   C     0.21345   0.98711   0.88958   0.00000  Uiso   1.00
C513   C     0.18413   0.00076   0.93346   0.00000  Uiso   1.00
C514   C     0.15767   0.99582   0.87045   0.00000  Uiso   1.00
C515   C     0.10760   0.99488   0.80103   0.00000  Uiso   1.00
C516   C     0.26601   0.03797   0.88360   0.00000  Uiso   1.00
C517   C     0.28087   0.09440   0.92243   0.00000  Uiso   1.00
C518   C     0.29866   0.13230   0.85437   0.00000  Uiso   1.00
C519   C     0.33019   0.21033   0.77566   0.00000  Uiso   1.00
C520   C     0.25057   0.95647   0.75448   0.00000  Uiso   1.00
C521   C     0.26313   0.90281   0.82670   0.00000  Uiso   1.00
C522   C     0.27613   0.84206   0.79747   0.00000  Uiso   1.00
C523   C     0.28624   0.79981   0.87514   0.00000  Uiso   1.00
C524   C     0.21625   0.96918   0.78644   0.00000  Uiso   1.00
C525   C     0.18983   0.96422   0.72334   0.00000  Uiso   1.00
C526   C     0.16047   0.97785   0.76711   0.00000  Uiso   1.00
C527   C     0.26881   0.02004   0.78045   0.00000  Uiso   1.00
C528   C     0.28657   0.05787   0.71231   0.00000  Uiso   1.00
C529   C     0.30146   0.11434   0.75103   0.00000  Uiso   1.00
H530   H     0.24324   0.00345   0.02470   0.00000  Uiso   1.00
H531   H     0.26825   0.89248   0.08740   0.00000  Uiso   1.00
H532   H     0.18197   0.01464   0.01328   0.00000  Uiso   1.00
H533   H     0.27870   0.10826   0.00226   0.00000  Uiso   1.00
H534   H     0.29721   0.76153   0.11143   0.00000  Uiso   1.00
H535   H     0.11527   0.01913   0.95514   0.00000  Uiso   1.00
H536   H     0.31925   0.21656   0.93189   0.00000  Uiso   1.00
H537   H     0.25275   0.94251   0.67417   0.00000  Uiso   1.00
H538   H     0.27829   0.82819   0.71764   0.00000  Uiso   1.00
H539   H     0.19200   0.95035   0.64352   0.00000  Uiso   1.00
H540   H     0.28873   0.04397   0.63249   0.00000  Uiso   1.00
H541   H     0.30535   0.70935   0.81131   0.00000  Uiso   1.00
H542   H     0.12341   0.96695   0.65502   0.00000  Uiso   1.00
H543   H     0.32739   0.16438   0.63177   0.00000  Uiso   1.00
O544   O     0.31789   0.66133   0.99629   0.00000  Uiso   1.00
O545   O     0.07920   0.99930   0.79124   0.00000  Uiso   1.00
O546   O     0.34682   0.25832   0.76074   0.00000  Uiso   1.00
N547   N     0.29562   0.76495   0.03483   0.00000  Uiso   1.00
N548   N     0.12552   0.00577   0.88871   0.00000  Uiso   1.00
N549   N     0.31622   0.19036   0.86697   0.00000  Uiso   1.00
N550   N     0.30001   0.73687   0.87334   0.00000  Uiso   1.00
N551   N     0.12991   0.97769   0.72722   0.00000  Uiso   1.00
N552   N     0.32060   0.16229   0.70548   0.00000  Uiso   1.00
C553   C     0.75458   0.01051   0.94439   0.00000  Uiso   1.00
C554   C     0.73967   0.07925   0.92985   0.00000  Uiso   1.00
C555   C     0.72957   0.12141   0.00758   0.00000  Uiso   1.00
C556   C     0.71657   0.18222   0.97848   0.00000  Uiso   1.00
C557   C     0.69386   0.28624   0.97159   0.00000  Uiso   1.00
C558   C     0.78655   0.01289   0.88958   0.00000  Uiso   1.00
C559   C     0.81587   0.99924   0.93346   0.00000  Uiso   1.00
C560   C     0.84233   0.00418   0.87045   0.00000  Uiso   1.00
C561   C     0.89240   0.00512   0.80103   0.00000  Uiso   1.00
C562   C     0.73399   0.96203   0.88360   0.00000  Uiso   1.00
C563   C     0.71913   0.90560   0.92243   0.00000  Uiso   1.00
C564   C     0.70134   0.86770   0.85437   0.00000  Uiso   1.00
C565   C     0.66981   0.78967   0.77566   0.00000  Uiso   1.00
C566   C     0.74943   0.04353   0.75448   0.00000  Uiso   1.00
C567   C     0.73687   0.09719   0.82670   0.00000  Uiso   1.00
C568   C     0.72387   0.15794   0.79747   0.00000  Uiso   1.00
C569   C     0.71376   0.20019   0.87514   0.00000  Uiso   1.00
C570   C     0.78375   0.03082   0.78644   0.00000  Uiso   1.00
C571   C     0.81017   0.03578   0.72334   0.00000  Uiso   1.00
C572   C     0.83953   0.02215   0.76711   0.00000  Uiso   1.00
C573   C     0.73119   0.97996   0.78045   0.00000  Uiso   1.00
C574   C     0.71343   0.94213   0.71231   0.00000  Uiso   1.00
C575   C     0.69854   0.88566   0.75103   0.00000  Uiso   1.00
H576   H     0.75676   0.99655   0.02470   0.00000  Uiso   1.00
H577   H     0.73175   0.10752   0.08740   0.00000  Uiso   1.00
H578   H     0.81803   0.98536   0.01328   0.00000  Uiso   1.00
H579   H     0.72130   0.89174   0.00226   0.00000  Uiso   1.00
H580   H     0.70279   0.23847   0.11143   0.00000  Uiso   1.00
H581   H     0.88473   0.98087   0.95514   0.00000  Uiso   1.00
H582   H     0.68075   0.78344   0.93189   0.00000  Uiso   1.00
H583   H     0.74725   0.05749   0.67417   0.00000  Uiso   1.00
H584   H     0.72171   0.17181   0.71764   0.00000  Uiso   1.00
H585   H     0.80800   0.04965   0.64352   0.00000  Uiso   1.00
H586   H     0.71127   0.95603   0.63249   0.00000  Uiso   1.00
H587   H     0.69465   0.29065   0.81131   0.00000  Uiso   1.00
H588   H     0.87659   0.03305   0.65502   0.00000  Uiso   1.00
H589   H     0.67261   0.83562   0.63177   0.00000  Uiso   1.00
O590   O     0.68211   0.33867   0.99629   0.00000  Uiso   1.00
O591   O     0.92080   0.00070   0.79124   0.00000  Uiso   1.00
O592   O     0.65318   0.74168   0.76074   0.00000  Uiso   1.00
N593   N     0.70438   0.23505   0.03483   0.00000  Uiso   1.00
N594   N     0.87448   0.99423   0.88871   0.00000  Uiso   1.00
N595   N     0.68378   0.80964   0.86697   0.00000  Uiso   1.00
N596   N     0.69999   0.26313   0.87334   0.00000  Uiso   1.00
N597   N     0.87009   0.02231   0.72722   0.00000  Uiso   1.00
N598   N     0.67940   0.83771   0.70548   0.00000  Uiso   1.00
C599   C     0.75458   0.51051   0.44439   0.00000  Uiso   1.00
C600   C     0.73967   0.57925   0.42985   0.00000  Uiso   1.00
C601   C     0.72957   0.62141   0.50758   0.00000  Uiso   1.00
C602   C     0.71657   0.68222   0.47848   0.00000  Uiso   1.00
C603   C     0.69386   0.78624   0.47159   0.00000  Uiso   1.00
C604   C     0.78655   0.51289   0.38958   0.00000  Uiso   1.00
C605   C     0.81587   0.49924   0.43346   0.00000  Uiso   1.00
C606   C     0.84233   0.50418   0.37045   0.00000  Uiso   1.00
C607   C     0.89240   0.50512   0.30103   0.00000  Uiso   1.00
C608   C     0.73399   0.46203   0.38360   0.00000  Uiso   1.00
C609   C     0.71913   0.40560   0.42243   0.00000  Uiso   1.00
C610   C     0.70134   0.36770   0.35437   0.00000  Uiso   1.00
C611   C     0.66981   0.28967   0.27566   0.00000  Uiso   1.00
C612   C     0.74943   0.54353   0.25448   0.00000  Uiso   1.00
C613   C     0.73687   0.59719   0.32670   0.00000  Uiso   1.00
C614   C     0.72387   0.65794   0.29747   0.00000  Uiso   1.00
C615   C     0.71376   0.70019   0.37514   0.00000  Uiso   1.00
C616   C     0.78375   0.53082   0.28644   0.00000  Uiso   1.00
C617   C     0.81017   0.53578   0.22334   0.00000  Uiso   1.00
C618   C     0.83953   0.52215   0.26711   0.00000  Uiso   1.00
C619   C     0.73119   0.47996   0.28045   0.00000  Uiso   1.00
C620   C     0.71343   0.44213   0.21231   0.00000  Uiso   1.00
C621   C     0.69854   0.38566   0.25103   0.00000  Uiso   1.00
H622   H     0.75676   0.49655   0.52470   0.00000  Uiso   1.00
H623   H     0.73175   0.60752   0.58740   0.00000  Uiso   1.00
H624   H     0.81803   0.48536   0.51328   0.00000  Uiso   1.00
H625   H     0.72130   0.39174   0.50226   0.00000  Uiso   1.00
H626   H     0.70279   0.73847   0.61143   0.00000  Uiso   1.00
H627   H     0.88473   0.48087   0.45514   0.00000  Uiso   1.00
H628   H     0.68075   0.28344   0.43189   0.00000  Uiso   1.00
H629   H     0.74725   0.55749   0.17417   0.00000  Uiso   1.00
H630   H     0.72171   0.67181   0.21764   0.00000  Uiso   1.00
H631   H     0.80800   0.54965   0.14352   0.00000  Uiso   1.00
H632   H     0.71127   0.45603   0.13249   0.00000  Uiso   1.00
H633   H     0.69465   0.79065   0.31131   0.00000  Uiso   1.00
H634   H     0.87659   0.53305   0.15502   0.00000  Uiso   1.00
H635   H     0.67261   0.33562   0.13177   0.00000  Uiso   1.00
O636   O     0.68211   0.83867   0.49629   0.00000  Uiso   1.00
O637   O     0.92080   0.50070   0.29124   0.00000  Uiso   1.00
O638   O     0.65318   0.24168   0.26074   0.00000  Uiso   1.00
N639   N     0.70438   0.73505   0.53483   0.00000  Uiso   1.00
N640   N     0.87448   0.49423   0.38871   0.00000  Uiso   1.00
N641   N     0.68378   0.30964   0.36697   0.00000  Uiso   1.00
N642   N     0.69999   0.76313   0.37334   0.00000  Uiso   1.00
N643   N     0.87009   0.52231   0.22722   0.00000  Uiso   1.00
N644   N     0.67940   0.33771   0.20548   0.00000  Uiso   1.00
C645   C     0.25458   0.01051   0.44439   0.00000  Uiso   1.00
C646   C     0.23967   0.07925   0.42985   0.00000  Uiso   1.00
C647   C     0.22957   0.12141   0.50758   0.00000  Uiso   1.00
C648   C     0.21657   0.18222   0.47848   0.00000  Uiso   1.00
C649   C     0.19386   0.28624   0.47159   0.00000  Uiso   1.00
C650   C     0.28655   0.01289   0.38958   0.00000  Uiso   1.00
C651   C     0.31587   0.99924   0.43346   0.00000  Uiso   1.00
C652   C     0.34233   0.00418   0.37045   0.00000  Uiso   1.00
C653   C     0.39240   0.00512   0.30103   0.00000  Uiso   1.00
C654   C     0.23399   0.96203   0.38360   0.00000  Uiso   1.00
C655   C     0.21913   0.90560   0.42243   0.00000  Uiso   1.00
C656   C     0.20134   0.86770   0.35437   0.00000  Uiso   1.00
C657   C     0.16981   0.78967   0.27566   0.00000  Uiso   1.00
C658   C     0.24943   0.04353   0.25448   0.00000  Uiso   1.00
C659   C     0.23687   0.09719   0.32670   0.00000  Uiso   1.00
C660   C     0.22387   0.15794   0.29747   0.00000  Uiso   1.00
C661   C     0.21376   0.20019   0.37514   0.00000  Uiso   1.00
C662   C     0.28375   0.03082   0.28644   0.00000  Uiso   1.00
C663   C     0.31017   0.03578   0.22334   0.00000  Uiso   1.00
C664   C     0.33953   0.02215   0.26711   0.00000  Uiso   1.00
C665   C     0.23119   0.97996   0.28045   0.00000  Uiso   1.00
C666   C     0.21343   0.94213   0.21231   0.00000  Uiso   1.00
C667   C     0.19854   0.88566   0.25103   0.00000  Uiso   1.00
H668   H     0.25676   0.99655   0.52470   0.00000  Uiso   1.00
H669   H     0.23175   0.10752   0.58740   0.00000  Uiso   1.00
H670   H     0.31803   0.98536   0.51328   0.00000  Uiso   1.00
H671   H     0.22130   0.89174   0.50226   0.00000  Uiso   1.00
H672   H     0.20279   0.23847   0.61143   0.00000  Uiso   1.00
H673   H     0.38473   0.98087   0.45514   0.00000  Uiso   1.00
H674   H     0.18075   0.78344   0.43189   0.00000  Uiso   1.00
H675   H     0.24725   0.05749   0.17417   0.00000  Uiso   1.00
H676   H     0.22171   0.17181   0.21764   0.00000  Uiso   1.00
H677   H     0.30800   0.04965   0.14352   0.00000  Uiso   1.00
H678   H     0.21127   0.95603   0.13249   0.00000  Uiso   1.00
H679   H     0.19465   0.29065   0.31131   0.00000  Uiso   1.00
H680   H     0.37659   0.03305   0.15502   0.00000  Uiso   1.00
H681   H     0.17261   0.83562   0.13177   0.00000  Uiso   1.00
O682   O     0.18211   0.33867   0.49629   0.00000  Uiso   1.00
O683   O     0.42080   0.00070   0.29124   0.00000  Uiso   1.00
O684   O     0.15318   0.74168   0.26074   0.00000  Uiso   1.00
N685   N     0.20438   0.23505   0.53483   0.00000  Uiso   1.00
N686   N     0.37448   0.99423   0.38871   0.00000  Uiso   1.00
N687   N     0.18378   0.80964   0.36697   0.00000  Uiso   1.00
N688   N     0.19999   0.26313   0.37334   0.00000  Uiso   1.00
N689   N     0.37009   0.02231   0.22722   0.00000  Uiso   1.00
N690   N     0.17940   0.83771   0.20548   0.00000  Uiso   1.00
C691   C     0.25458   0.51051   0.94439   0.00000  Uiso   1.00
C692   C     0.23967   0.57925   0.92985   0.00000  Uiso   1.00
C693   C     0.22957   0.62141   0.00758   0.00000  Uiso   1.00
C694   C     0.21657   0.68222   0.97848   0.00000  Uiso   1.00
C695   C     0.19386   0.78624   0.97159   0.00000  Uiso   1.00
C696   C     0.28655   0.51289   0.88958   0.00000  Uiso   1.00
C697   C     0.31587   0.49924   0.93346   0.00000  Uiso   1.00
C698   C     0.34233   0.50418   0.87045   0.00000  Uiso   1.00
C699   C     0.39240   0.50512   0.80103   0.00000  Uiso   1.00
C700   C     0.23399   0.46203   0.88360   0.00000  Uiso   1.00
C701   C     0.21913   0.40560   0.92243   0.00000  Uiso   1.00
C702   C     0.20134   0.36770   0.85437   0.00000  Uiso   1.00
C703   C     0.16981   0.28967   0.77566   0.00000  Uiso   1.00
C704   C     0.24943   0.54353   0.75448   0.00000  Uiso   1.00
C705   C     0.23687   0.59719   0.82670   0.00000  Uiso   1.00
C706   C     0.22387   0.65794   0.79747   0.00000  Uiso   1.00
C707   C     0.21376   0.70019   0.87514   0.00000  Uiso   1.00
C708   C     0.28375   0.53082   0.78644   0.00000  Uiso   1.00
C709   C     0.31017   0.53578   0.72334   0.00000  Uiso   1.00
C710   C     0.33953   0.52215   0.76711   0.00000  Uiso   1.00
C711   C     0.23119   0.47996   0.78045   0.00000  Uiso   1.00
C712   C     0.21343   0.44213   0.71231   0.00000  Uiso   1.00
C713   C     0.19854   0.38566   0.75103   0.00000  Uiso   1.00
H714   H     0.25676   0.49655   0.02470   0.00000  Uiso   1.00
H715   H     0.23175   0.60752   0.08740   0.00000  Uiso   1.00
H716   H     0.31803   0.48536   0.01328   0.00000  Uiso   1.00
H717   H     0.22130   0.39174   0.00226   0.00000  Uiso   1.00
H718   H     0.20279   0.73847   0.11143   0.00000  Uiso   1.00
H719   H     0.38473   0.48087   0.95514   0.00000  Uiso   1.00
H720   H     0.18075   0.28344   0.93189   0.00000  Uiso   1.00
H721   H     0.24725   0.55749   0.67417   0.00000  Uiso   1.00
H722   H     0.22171   0.67181   0.71764   0.00000  Uiso   1.00
H723   H     0.30800   0.54965   0.64352   0.00000  Uiso   1.00
H724   H     0.21127   0.45603   0.63249   0.00000  Uiso   1.00
H725   H     0.19465   0.79065   0.81131   0.00000  Uiso   1.00
H726   H     0.37659   0.53305   0.65502   0.00000  Uiso   1.00
H727   H     0.17261   0.33562   0.63177   0.00000  Uiso   1.00
O728   O     0.18211   0.83867   0.99629   0.00000  Uiso   1.00
O729   O     0.42080   0.50070   0.79124   0.00000  Uiso   1.00
O730   O     0.15318   0.24168   0.76074   0.00000  Uiso   1.00
N731   N     0.20438   0.73505   0.03483   0.00000  Uiso   1.00
N732   N     0.37448   0.49423   0.88871   0.00000  Uiso   1.00
N733   N     0.18378   0.30964   0.86697   0.00000  Uiso   1.00
N734   N     0.19999   0.76313   0.87334   0.00000  Uiso   1.00
N735   N     0.37009   0.52231   0.72722   0.00000  Uiso   1.00
N736   N     0.17940   0.33771   0.70548   0.00000  Uiso   1.00
