data_job_04972
_audit_creation_date              2018-12-19
_audit_creation_method            'Materials Studio'
_symmetry_space_group_name_H-M    'P1'
_symmetry_Int_Tables_number       1
_symmetry_cell_setting            triclinic
loop_
_symmetry_equiv_pos_as_xyz
  x,y,z
_cell_length_a                    17.5296
_cell_length_b                    17.5296
_cell_length_c                    39.2717
_cell_angle_alpha                 90.0000
_cell_angle_beta                  90.0000
_cell_angle_gamma                 90.0000
loop_
_atom_site_label
_atom_site_type_symbol
_atom_site_fract_x
_atom_site_fract_y
_atom_site_fract_z
_atom_site_U_iso_or_equiv
_atom_site_adp_type
_atom_site_occupancy
C1     C     0.32662   0.26755   0.52881   0.00000  Uiso   1.00
C2     C     0.31220   0.31411   0.49665   0.00000  Uiso   1.00
C3     C     0.36226   0.32185   0.46949   0.00000  Uiso   1.00
C4     C     0.33847   0.36695   0.44244   0.00000  Uiso   1.00
C5     C     0.32693   0.43380   0.39249   0.00000  Uiso   1.00
C6     C     0.31715   0.32275   0.55853   0.00000  Uiso   1.00
C7     C     0.37136   0.33773   0.58340   0.00000  Uiso   1.00
C8     C     0.35173   0.39009   0.60843   0.00000  Uiso   1.00
C9     C     0.34786   0.47029   0.65456   0.00000  Uiso   1.00
C10    C     0.26056   0.21127   0.53143   0.00000  Uiso   1.00
C11    C     0.26720   0.13251   0.53353   0.00000  Uiso   1.00
C12    C     0.19992   0.09101   0.53576   0.00000  Uiso   1.00
C13    C     0.10819   0.99813   0.53982   0.00000  Uiso   1.00
C14    C     0.19535   0.33389   0.52906   0.00000  Uiso   1.00
C15    C     0.24090   0.35015   0.49679   0.00000  Uiso   1.00
C16    C     0.21702   0.39524   0.46977   0.00000  Uiso   1.00
C17    C     0.26703   0.40304   0.44257   0.00000  Uiso   1.00
C18    C     0.24585   0.35878   0.55866   0.00000  Uiso   1.00
C19    C     0.22612   0.41112   0.58367   0.00000  Uiso   1.00
C20    C     0.28030   0.42618   0.60857   0.00000  Uiso   1.00
C21    C     0.18926   0.24729   0.53157   0.00000  Uiso   1.00
C22    C     0.12196   0.20591   0.53380   0.00000  Uiso   1.00
C23    C     0.12849   0.12711   0.53590   0.00000  Uiso   1.00
H24    H     0.38213   0.23951   0.52871   0.00000  Uiso   1.00
H25    H     0.41744   0.29397   0.46940   0.00000  Uiso   1.00
H26    H     0.42654   0.30983   0.58329   0.00000  Uiso   1.00
H27    H     0.32238   0.10465   0.53342   0.00000  Uiso   1.00
H28    H     0.42514   0.37026   0.40371   0.00000  Uiso   1.00
H29    H     0.44432   0.40370   0.64385   0.00000  Uiso   1.00
H30    H     0.22469   0.97103   0.53871   0.00000  Uiso   1.00
H31    H     0.13983   0.36194   0.52917   0.00000  Uiso   1.00
H32    H     0.16184   0.42312   0.46988   0.00000  Uiso   1.00
H33    H     0.17094   0.43899   0.58377   0.00000  Uiso   1.00
H34    H     0.06679   0.23381   0.53391   0.00000  Uiso   1.00
H35    H     0.21769   0.47508   0.40410   0.00000  Uiso   1.00
H36    H     0.23687   0.50852   0.64425   0.00000  Uiso   1.00
H37    H     0.01724   0.07586   0.53910   0.00000  Uiso   1.00
O38    O     0.34028   0.46073   0.36490   0.00000  Uiso   1.00
O39    O     0.36543   0.50458   0.67996   0.00000  Uiso   1.00
O40    O     0.07729   0.93694   0.54202   0.00000  Uiso   1.00
N41    N     0.37329   0.38652   0.41193   0.00000  Uiso   1.00
N42    N     0.39123   0.41779   0.63645   0.00000  Uiso   1.00
N43    N     0.18590   0.01328   0.53816   0.00000  Uiso   1.00
N44    N     0.26166   0.44293   0.41214   0.00000  Uiso   1.00
N45    N     0.27960   0.47420   0.63666   0.00000  Uiso   1.00
N46    N     0.07427   0.06969   0.53837   0.00000  Uiso   1.00
C47    C     0.82662   0.76755   0.02881   0.00000  Uiso   1.00
C48    C     0.81220   0.81411   0.99665   0.00000  Uiso   1.00
C49    C     0.86226   0.82185   0.96949   0.00000  Uiso   1.00
C50    C     0.83847   0.86695   0.94244   0.00000  Uiso   1.00
C51    C     0.82693   0.93380   0.89249   0.00000  Uiso   1.00
C52    C     0.81715   0.82275   0.05853   0.00000  Uiso   1.00
C53    C     0.87136   0.83773   0.08340   0.00000  Uiso   1.00
C54    C     0.85173   0.89009   0.10843   0.00000  Uiso   1.00
C55    C     0.84786   0.97029   0.15456   0.00000  Uiso   1.00
C56    C     0.76056   0.71127   0.03143   0.00000  Uiso   1.00
C57    C     0.76720   0.63251   0.03353   0.00000  Uiso   1.00
C58    C     0.69992   0.59101   0.03576   0.00000  Uiso   1.00
C59    C     0.60819   0.49813   0.03982   0.00000  Uiso   1.00
C60    C     0.69535   0.83389   0.02906   0.00000  Uiso   1.00
C61    C     0.74090   0.85015   0.99679   0.00000  Uiso   1.00
C62    C     0.71702   0.89524   0.96977   0.00000  Uiso   1.00
C63    C     0.76703   0.90304   0.94257   0.00000  Uiso   1.00
C64    C     0.74585   0.85878   0.05866   0.00000  Uiso   1.00
C65    C     0.72612   0.91112   0.08367   0.00000  Uiso   1.00
C66    C     0.78030   0.92618   0.10857   0.00000  Uiso   1.00
C67    C     0.68926   0.74729   0.03157   0.00000  Uiso   1.00
C68    C     0.62196   0.70591   0.03380   0.00000  Uiso   1.00
C69    C     0.62849   0.62711   0.03590   0.00000  Uiso   1.00
H70    H     0.88213   0.73951   0.02871   0.00000  Uiso   1.00
H71    H     0.91744   0.79397   0.96940   0.00000  Uiso   1.00
H72    H     0.92654   0.80983   0.08329   0.00000  Uiso   1.00
H73    H     0.82238   0.60465   0.03342   0.00000  Uiso   1.00
H74    H     0.92514   0.87026   0.90371   0.00000  Uiso   1.00
H75    H     0.94432   0.90370   0.14385   0.00000  Uiso   1.00
H76    H     0.72469   0.47103   0.03871   0.00000  Uiso   1.00
H77    H     0.63983   0.86194   0.02917   0.00000  Uiso   1.00
H78    H     0.66184   0.92312   0.96988   0.00000  Uiso   1.00
H79    H     0.67094   0.93899   0.08377   0.00000  Uiso   1.00
H80    H     0.56679   0.73381   0.03391   0.00000  Uiso   1.00
H81    H     0.71769   0.97508   0.90410   0.00000  Uiso   1.00
H82    H     0.73687   0.00852   0.14425   0.00000  Uiso   1.00
H83    H     0.51724   0.57586   0.03910   0.00000  Uiso   1.00
O84    O     0.84028   0.96073   0.86490   0.00000  Uiso   1.00
O85    O     0.86543   0.00458   0.17996   0.00000  Uiso   1.00
O86    O     0.57729   0.43694   0.04202   0.00000  Uiso   1.00
N87    N     0.87329   0.88652   0.91193   0.00000  Uiso   1.00
N88    N     0.89123   0.91779   0.13645   0.00000  Uiso   1.00
N89    N     0.68590   0.51328   0.03816   0.00000  Uiso   1.00
N90    N     0.76166   0.94293   0.91214   0.00000  Uiso   1.00
N91    N     0.77960   0.97420   0.13666   0.00000  Uiso   1.00
N92    N     0.57427   0.56969   0.03837   0.00000  Uiso   1.00
C93    C     0.17338   0.23245   0.02881   0.00000  Uiso   1.00
C94    C     0.18780   0.18589   0.99665   0.00000  Uiso   1.00
C95    C     0.13774   0.17815   0.96949   0.00000  Uiso   1.00
C96    C     0.16153   0.13305   0.94244   0.00000  Uiso   1.00
C97    C     0.17307   0.06620   0.89249   0.00000  Uiso   1.00
C98    C     0.18285   0.17725   0.05853   0.00000  Uiso   1.00
C99    C     0.12864   0.16227   0.08340   0.00000  Uiso   1.00
C100   C     0.14827   0.10991   0.10843   0.00000  Uiso   1.00
C101   C     0.15214   0.02971   0.15456   0.00000  Uiso   1.00
C102   C     0.23944   0.28873   0.03143   0.00000  Uiso   1.00
C103   C     0.23280   0.36749   0.03353   0.00000  Uiso   1.00
C104   C     0.30008   0.40899   0.03576   0.00000  Uiso   1.00
C105   C     0.39181   0.50187   0.03982   0.00000  Uiso   1.00
C106   C     0.30465   0.16611   0.02906   0.00000  Uiso   1.00
C107   C     0.25910   0.14985   0.99679   0.00000  Uiso   1.00
C108   C     0.28298   0.10476   0.96977   0.00000  Uiso   1.00
C109   C     0.23297   0.09696   0.94257   0.00000  Uiso   1.00
C110   C     0.25415   0.14122   0.05866   0.00000  Uiso   1.00
C111   C     0.27388   0.08888   0.08367   0.00000  Uiso   1.00
C112   C     0.21970   0.07382   0.10857   0.00000  Uiso   1.00
C113   C     0.31074   0.25271   0.03157   0.00000  Uiso   1.00
C114   C     0.37804   0.29409   0.03380   0.00000  Uiso   1.00
C115   C     0.37151   0.37289   0.03590   0.00000  Uiso   1.00
H116   H     0.11787   0.26049   0.02871   0.00000  Uiso   1.00
H117   H     0.08256   0.20603   0.96940   0.00000  Uiso   1.00
H118   H     0.07346   0.19017   0.08329   0.00000  Uiso   1.00
H119   H     0.17762   0.39535   0.03342   0.00000  Uiso   1.00
H120   H     0.07486   0.12974   0.90371   0.00000  Uiso   1.00
H121   H     0.05568   0.09630   0.14385   0.00000  Uiso   1.00
H122   H     0.27531   0.52897   0.03871   0.00000  Uiso   1.00
H123   H     0.36017   0.13806   0.02917   0.00000  Uiso   1.00
H124   H     0.33816   0.07688   0.96988   0.00000  Uiso   1.00
H125   H     0.32906   0.06101   0.08377   0.00000  Uiso   1.00
H126   H     0.43321   0.26619   0.03391   0.00000  Uiso   1.00
H127   H     0.28231   0.02492   0.90410   0.00000  Uiso   1.00
H128   H     0.26313   0.99148   0.14425   0.00000  Uiso   1.00
H129   H     0.48276   0.42414   0.03910   0.00000  Uiso   1.00
O130   O     0.15972   0.03927   0.86490   0.00000  Uiso   1.00
O131   O     0.13457   0.99542   0.17996   0.00000  Uiso   1.00
O132   O     0.42271   0.56306   0.04202   0.00000  Uiso   1.00
N133   N     0.12671   0.11348   0.91193   0.00000  Uiso   1.00
N134   N     0.10877   0.08221   0.13645   0.00000  Uiso   1.00
N135   N     0.31410   0.48672   0.03816   0.00000  Uiso   1.00
N136   N     0.23834   0.05707   0.91214   0.00000  Uiso   1.00
N137   N     0.22040   0.02580   0.13666   0.00000  Uiso   1.00
N138   N     0.42573   0.43031   0.03837   0.00000  Uiso   1.00
C139   C     0.67338   0.73245   0.52881   0.00000  Uiso   1.00
C140   C     0.68780   0.68589   0.49665   0.00000  Uiso   1.00
C141   C     0.63774   0.67815   0.46949   0.00000  Uiso   1.00
C142   C     0.66153   0.63305   0.44244   0.00000  Uiso   1.00
C143   C     0.67307   0.56620   0.39249   0.00000  Uiso   1.00
C144   C     0.68285   0.67725   0.55853   0.00000  Uiso   1.00
C145   C     0.62864   0.66227   0.58340   0.00000  Uiso   1.00
C146   C     0.64827   0.60991   0.60843   0.00000  Uiso   1.00
C147   C     0.65214   0.52971   0.65456   0.00000  Uiso   1.00
C148   C     0.73944   0.78873   0.53143   0.00000  Uiso   1.00
C149   C     0.73280   0.86749   0.53353   0.00000  Uiso   1.00
C150   C     0.80008   0.90899   0.53576   0.00000  Uiso   1.00
C151   C     0.89181   0.00187   0.53982   0.00000  Uiso   1.00
C152   C     0.80465   0.66611   0.52906   0.00000  Uiso   1.00
C153   C     0.75910   0.64985   0.49679   0.00000  Uiso   1.00
C154   C     0.78298   0.60476   0.46977   0.00000  Uiso   1.00
C155   C     0.73297   0.59696   0.44257   0.00000  Uiso   1.00
C156   C     0.75415   0.64122   0.55866   0.00000  Uiso   1.00
C157   C     0.77388   0.58888   0.58367   0.00000  Uiso   1.00
C158   C     0.71970   0.57382   0.60857   0.00000  Uiso   1.00
C159   C     0.81074   0.75271   0.53157   0.00000  Uiso   1.00
C160   C     0.87804   0.79409   0.53380   0.00000  Uiso   1.00
C161   C     0.87151   0.87289   0.53590   0.00000  Uiso   1.00
H162   H     0.61787   0.76049   0.52871   0.00000  Uiso   1.00
H163   H     0.58256   0.70603   0.46940   0.00000  Uiso   1.00
H164   H     0.57346   0.69017   0.58329   0.00000  Uiso   1.00
H165   H     0.67762   0.89535   0.53342   0.00000  Uiso   1.00
H166   H     0.57486   0.62974   0.40371   0.00000  Uiso   1.00
H167   H     0.55568   0.59630   0.64385   0.00000  Uiso   1.00
H168   H     0.77531   0.02897   0.53871   0.00000  Uiso   1.00
H169   H     0.86017   0.63806   0.52917   0.00000  Uiso   1.00
H170   H     0.83816   0.57688   0.46988   0.00000  Uiso   1.00
H171   H     0.82906   0.56101   0.58377   0.00000  Uiso   1.00
H172   H     0.93321   0.76619   0.53391   0.00000  Uiso   1.00
H173   H     0.78231   0.52492   0.40410   0.00000  Uiso   1.00
H174   H     0.76313   0.49148   0.64425   0.00000  Uiso   1.00
H175   H     0.98276   0.92414   0.53910   0.00000  Uiso   1.00
O176   O     0.65972   0.53927   0.36490   0.00000  Uiso   1.00
O177   O     0.63457   0.49542   0.67996   0.00000  Uiso   1.00
O178   O     0.92271   0.06306   0.54202   0.00000  Uiso   1.00
N179   N     0.62671   0.61348   0.41193   0.00000  Uiso   1.00
N180   N     0.60877   0.58221   0.63645   0.00000  Uiso   1.00
N181   N     0.81410   0.98672   0.53816   0.00000  Uiso   1.00
N182   N     0.73834   0.55707   0.41214   0.00000  Uiso   1.00
N183   N     0.72040   0.52580   0.63666   0.00000  Uiso   1.00
N184   N     0.92573   0.93031   0.53837   0.00000  Uiso   1.00
C185   C     0.73245   0.82662   0.77881   0.00000  Uiso   1.00
C186   C     0.68589   0.81220   0.74665   0.00000  Uiso   1.00
C187   C     0.67815   0.86226   0.71949   0.00000  Uiso   1.00
C188   C     0.63305   0.83847   0.69244   0.00000  Uiso   1.00
C189   C     0.56620   0.82693   0.64249   0.00000  Uiso   1.00
C190   C     0.67725   0.81715   0.80853   0.00000  Uiso   1.00
C191   C     0.66227   0.87136   0.83340   0.00000  Uiso   1.00
C192   C     0.60991   0.85173   0.85843   0.00000  Uiso   1.00
C193   C     0.52971   0.84786   0.90456   0.00000  Uiso   1.00
C194   C     0.78873   0.76056   0.78143   0.00000  Uiso   1.00
C195   C     0.86749   0.76720   0.78353   0.00000  Uiso   1.00
C196   C     0.90899   0.69992   0.78576   0.00000  Uiso   1.00
C197   C     0.00187   0.60819   0.78982   0.00000  Uiso   1.00
C198   C     0.66611   0.69535   0.77906   0.00000  Uiso   1.00
C199   C     0.64985   0.74090   0.74679   0.00000  Uiso   1.00
C200   C     0.60476   0.71702   0.71977   0.00000  Uiso   1.00
C201   C     0.59696   0.76703   0.69257   0.00000  Uiso   1.00
C202   C     0.64122   0.74585   0.80866   0.00000  Uiso   1.00
C203   C     0.58888   0.72612   0.83367   0.00000  Uiso   1.00
C204   C     0.57382   0.78030   0.85857   0.00000  Uiso   1.00
C205   C     0.75271   0.68926   0.78157   0.00000  Uiso   1.00
C206   C     0.79409   0.62196   0.78380   0.00000  Uiso   1.00
C207   C     0.87289   0.62849   0.78590   0.00000  Uiso   1.00
H208   H     0.76049   0.88213   0.77871   0.00000  Uiso   1.00
H209   H     0.70603   0.91744   0.71940   0.00000  Uiso   1.00
H210   H     0.69017   0.92654   0.83329   0.00000  Uiso   1.00
H211   H     0.89535   0.82238   0.78342   0.00000  Uiso   1.00
H212   H     0.62974   0.92514   0.65371   0.00000  Uiso   1.00
H213   H     0.59630   0.94432   0.89385   0.00000  Uiso   1.00
H214   H     0.02897   0.72469   0.78871   0.00000  Uiso   1.00
H215   H     0.63806   0.63983   0.77917   0.00000  Uiso   1.00
H216   H     0.57688   0.66184   0.71988   0.00000  Uiso   1.00
H217   H     0.56101   0.67094   0.83377   0.00000  Uiso   1.00
H218   H     0.76619   0.56679   0.78391   0.00000  Uiso   1.00
H219   H     0.52492   0.71769   0.65410   0.00000  Uiso   1.00
H220   H     0.49148   0.73687   0.89425   0.00000  Uiso   1.00
H221   H     0.92414   0.51724   0.78910   0.00000  Uiso   1.00
O222   O     0.53927   0.84028   0.61490   0.00000  Uiso   1.00
O223   O     0.49542   0.86543   0.92996   0.00000  Uiso   1.00
O224   O     0.06306   0.57729   0.79202   0.00000  Uiso   1.00
N225   N     0.61348   0.87329   0.66193   0.00000  Uiso   1.00
N226   N     0.58221   0.89123   0.88645   0.00000  Uiso   1.00
N227   N     0.98672   0.68590   0.78816   0.00000  Uiso   1.00
N228   N     0.55707   0.76166   0.66214   0.00000  Uiso   1.00
N229   N     0.52580   0.77960   0.88666   0.00000  Uiso   1.00
N230   N     0.93031   0.57427   0.78837   0.00000  Uiso   1.00
C231   C     0.23245   0.32662   0.27881   0.00000  Uiso   1.00
C232   C     0.18589   0.31220   0.24665   0.00000  Uiso   1.00
C233   C     0.17815   0.36226   0.21949   0.00000  Uiso   1.00
C234   C     0.13305   0.33847   0.19244   0.00000  Uiso   1.00
C235   C     0.06620   0.32693   0.14249   0.00000  Uiso   1.00
C236   C     0.17725   0.31715   0.30853   0.00000  Uiso   1.00
C237   C     0.16227   0.37136   0.33340   0.00000  Uiso   1.00
C238   C     0.10991   0.35173   0.35843   0.00000  Uiso   1.00
C239   C     0.02971   0.34786   0.40456   0.00000  Uiso   1.00
C240   C     0.28873   0.26056   0.28143   0.00000  Uiso   1.00
C241   C     0.36749   0.26720   0.28353   0.00000  Uiso   1.00
C242   C     0.40899   0.19992   0.28576   0.00000  Uiso   1.00
C243   C     0.50187   0.10819   0.28982   0.00000  Uiso   1.00
C244   C     0.16611   0.19535   0.27906   0.00000  Uiso   1.00
C245   C     0.14985   0.24090   0.24679   0.00000  Uiso   1.00
C246   C     0.10476   0.21702   0.21977   0.00000  Uiso   1.00
C247   C     0.09696   0.26703   0.19257   0.00000  Uiso   1.00
C248   C     0.14122   0.24585   0.30866   0.00000  Uiso   1.00
C249   C     0.08888   0.22612   0.33367   0.00000  Uiso   1.00
C250   C     0.07382   0.28030   0.35857   0.00000  Uiso   1.00
C251   C     0.25271   0.18926   0.28157   0.00000  Uiso   1.00
C252   C     0.29409   0.12196   0.28380   0.00000  Uiso   1.00
C253   C     0.37289   0.12849   0.28590   0.00000  Uiso   1.00
H254   H     0.26049   0.38213   0.27871   0.00000  Uiso   1.00
H255   H     0.20603   0.41744   0.21940   0.00000  Uiso   1.00
H256   H     0.19017   0.42654   0.33329   0.00000  Uiso   1.00
H257   H     0.39535   0.32238   0.28342   0.00000  Uiso   1.00
H258   H     0.12974   0.42514   0.15371   0.00000  Uiso   1.00
H259   H     0.09630   0.44432   0.39385   0.00000  Uiso   1.00
H260   H     0.52897   0.22469   0.28871   0.00000  Uiso   1.00
H261   H     0.13806   0.13983   0.27917   0.00000  Uiso   1.00
H262   H     0.07688   0.16184   0.21988   0.00000  Uiso   1.00
H263   H     0.06101   0.17094   0.33377   0.00000  Uiso   1.00
H264   H     0.26619   0.06679   0.28391   0.00000  Uiso   1.00
H265   H     0.02492   0.21769   0.15410   0.00000  Uiso   1.00
H266   H     0.99148   0.23687   0.39425   0.00000  Uiso   1.00
H267   H     0.42414   0.01724   0.28910   0.00000  Uiso   1.00
O268   O     0.03927   0.34028   0.11490   0.00000  Uiso   1.00
O269   O     0.99542   0.36543   0.42996   0.00000  Uiso   1.00
O270   O     0.56306   0.07729   0.29202   0.00000  Uiso   1.00
N271   N     0.11348   0.37329   0.16193   0.00000  Uiso   1.00
N272   N     0.08221   0.39123   0.38645   0.00000  Uiso   1.00
N273   N     0.48672   0.18590   0.28816   0.00000  Uiso   1.00
N274   N     0.05707   0.26166   0.16214   0.00000  Uiso   1.00
N275   N     0.02580   0.27960   0.38666   0.00000  Uiso   1.00
N276   N     0.43031   0.07427   0.28837   0.00000  Uiso   1.00
C277   C     0.76755   0.67338   0.27881   0.00000  Uiso   1.00
C278   C     0.81411   0.68780   0.24665   0.00000  Uiso   1.00
C279   C     0.82185   0.63774   0.21949   0.00000  Uiso   1.00
C280   C     0.86695   0.66153   0.19244   0.00000  Uiso   1.00
C281   C     0.93380   0.67307   0.14249   0.00000  Uiso   1.00
C282   C     0.82275   0.68285   0.30853   0.00000  Uiso   1.00
C283   C     0.83773   0.62864   0.33340   0.00000  Uiso   1.00
C284   C     0.89009   0.64827   0.35843   0.00000  Uiso   1.00
C285   C     0.97029   0.65214   0.40456   0.00000  Uiso   1.00
C286   C     0.71127   0.73944   0.28143   0.00000  Uiso   1.00
C287   C     0.63251   0.73280   0.28353   0.00000  Uiso   1.00
C288   C     0.59101   0.80008   0.28576   0.00000  Uiso   1.00
C289   C     0.49813   0.89181   0.28982   0.00000  Uiso   1.00
C290   C     0.83389   0.80465   0.27906   0.00000  Uiso   1.00
C291   C     0.85015   0.75910   0.24679   0.00000  Uiso   1.00
C292   C     0.89524   0.78298   0.21977   0.00000  Uiso   1.00
C293   C     0.90304   0.73297   0.19257   0.00000  Uiso   1.00
C294   C     0.85878   0.75415   0.30866   0.00000  Uiso   1.00
C295   C     0.91112   0.77388   0.33367   0.00000  Uiso   1.00
C296   C     0.92618   0.71970   0.35857   0.00000  Uiso   1.00
C297   C     0.74729   0.81074   0.28157   0.00000  Uiso   1.00
C298   C     0.70591   0.87804   0.28380   0.00000  Uiso   1.00
C299   C     0.62711   0.87151   0.28590   0.00000  Uiso   1.00
H300   H     0.73951   0.61787   0.27871   0.00000  Uiso   1.00
H301   H     0.79397   0.58256   0.21940   0.00000  Uiso   1.00
H302   H     0.80983   0.57346   0.33329   0.00000  Uiso   1.00
H303   H     0.60465   0.67762   0.28342   0.00000  Uiso   1.00
H304   H     0.87026   0.57486   0.15371   0.00000  Uiso   1.00
H305   H     0.90370   0.55568   0.39385   0.00000  Uiso   1.00
H306   H     0.47103   0.77531   0.28871   0.00000  Uiso   1.00
H307   H     0.86194   0.86017   0.27917   0.00000  Uiso   1.00
H308   H     0.92312   0.83816   0.21988   0.00000  Uiso   1.00
H309   H     0.93899   0.82906   0.33377   0.00000  Uiso   1.00
H310   H     0.73381   0.93321   0.28391   0.00000  Uiso   1.00
H311   H     0.97508   0.78231   0.15410   0.00000  Uiso   1.00
H312   H     0.00852   0.76313   0.39425   0.00000  Uiso   1.00
H313   H     0.57586   0.98276   0.28910   0.00000  Uiso   1.00
O314   O     0.96073   0.65972   0.11490   0.00000  Uiso   1.00
O315   O     0.00458   0.63457   0.42996   0.00000  Uiso   1.00
O316   O     0.43694   0.92271   0.29202   0.00000  Uiso   1.00
N317   N     0.88652   0.62671   0.16193   0.00000  Uiso   1.00
N318   N     0.91779   0.60877   0.38645   0.00000  Uiso   1.00
N319   N     0.51328   0.81410   0.28816   0.00000  Uiso   1.00
N320   N     0.94293   0.73834   0.16214   0.00000  Uiso   1.00
N321   N     0.97420   0.72040   0.38666   0.00000  Uiso   1.00
N322   N     0.56969   0.92573   0.28837   0.00000  Uiso   1.00
C323   C     0.26755   0.17338   0.77881   0.00000  Uiso   1.00
C324   C     0.31411   0.18780   0.74665   0.00000  Uiso   1.00
C325   C     0.32185   0.13774   0.71949   0.00000  Uiso   1.00
C326   C     0.36695   0.16153   0.69244   0.00000  Uiso   1.00
C327   C     0.43380   0.17307   0.64249   0.00000  Uiso   1.00
C328   C     0.32275   0.18285   0.80853   0.00000  Uiso   1.00
C329   C     0.33773   0.12864   0.83340   0.00000  Uiso   1.00
C330   C     0.39009   0.14827   0.85843   0.00000  Uiso   1.00
C331   C     0.47029   0.15214   0.90456   0.00000  Uiso   1.00
C332   C     0.21127   0.23944   0.78143   0.00000  Uiso   1.00
C333   C     0.13251   0.23280   0.78353   0.00000  Uiso   1.00
C334   C     0.09101   0.30008   0.78576   0.00000  Uiso   1.00
C335   C     0.99813   0.39181   0.78982   0.00000  Uiso   1.00
C336   C     0.33389   0.30465   0.77906   0.00000  Uiso   1.00
C337   C     0.35015   0.25910   0.74679   0.00000  Uiso   1.00
C338   C     0.39524   0.28298   0.71977   0.00000  Uiso   1.00
C339   C     0.40304   0.23297   0.69257   0.00000  Uiso   1.00
C340   C     0.35878   0.25415   0.80866   0.00000  Uiso   1.00
C341   C     0.41112   0.27388   0.83367   0.00000  Uiso   1.00
C342   C     0.42618   0.21970   0.85857   0.00000  Uiso   1.00
C343   C     0.24729   0.31074   0.78157   0.00000  Uiso   1.00
C344   C     0.20591   0.37804   0.78380   0.00000  Uiso   1.00
C345   C     0.12711   0.37151   0.78590   0.00000  Uiso   1.00
H346   H     0.23951   0.11787   0.77871   0.00000  Uiso   1.00
H347   H     0.29397   0.08256   0.71940   0.00000  Uiso   1.00
H348   H     0.30983   0.07346   0.83329   0.00000  Uiso   1.00
H349   H     0.10465   0.17762   0.78342   0.00000  Uiso   1.00
H350   H     0.37026   0.07486   0.65371   0.00000  Uiso   1.00
H351   H     0.40370   0.05568   0.89385   0.00000  Uiso   1.00
H352   H     0.97103   0.27531   0.78871   0.00000  Uiso   1.00
H353   H     0.36194   0.36017   0.77917   0.00000  Uiso   1.00
H354   H     0.42312   0.33816   0.71988   0.00000  Uiso   1.00
H355   H     0.43899   0.32906   0.83377   0.00000  Uiso   1.00
H356   H     0.23381   0.43321   0.78391   0.00000  Uiso   1.00
H357   H     0.47508   0.28231   0.65410   0.00000  Uiso   1.00
H358   H     0.50852   0.26313   0.89425   0.00000  Uiso   1.00
H359   H     0.07586   0.48276   0.78910   0.00000  Uiso   1.00
O360   O     0.46073   0.15972   0.61490   0.00000  Uiso   1.00
O361   O     0.50458   0.13457   0.92996   0.00000  Uiso   1.00
O362   O     0.93694   0.42271   0.79202   0.00000  Uiso   1.00
N363   N     0.38652   0.12671   0.66193   0.00000  Uiso   1.00
N364   N     0.41779   0.10877   0.88645   0.00000  Uiso   1.00
N365   N     0.01328   0.31410   0.78816   0.00000  Uiso   1.00
N366   N     0.44293   0.23834   0.66214   0.00000  Uiso   1.00
N367   N     0.47420   0.22040   0.88666   0.00000  Uiso   1.00
N368   N     0.06969   0.42573   0.78837   0.00000  Uiso   1.00
C369   C     0.67338   0.23245   0.72119   0.00000  Uiso   1.00
C370   C     0.68780   0.18589   0.75335   0.00000  Uiso   1.00
C371   C     0.63774   0.17815   0.78051   0.00000  Uiso   1.00
C372   C     0.66153   0.13305   0.80756   0.00000  Uiso   1.00
C373   C     0.67307   0.06620   0.85751   0.00000  Uiso   1.00
C374   C     0.68285   0.17725   0.69147   0.00000  Uiso   1.00
C375   C     0.62864   0.16227   0.66660   0.00000  Uiso   1.00
C376   C     0.64827   0.10991   0.64157   0.00000  Uiso   1.00
C377   C     0.65214   0.02971   0.59544   0.00000  Uiso   1.00
C378   C     0.73944   0.28873   0.71857   0.00000  Uiso   1.00
C379   C     0.73280   0.36749   0.71647   0.00000  Uiso   1.00
C380   C     0.80008   0.40899   0.71424   0.00000  Uiso   1.00
C381   C     0.89181   0.50187   0.71018   0.00000  Uiso   1.00
C382   C     0.80465   0.16611   0.72094   0.00000  Uiso   1.00
C383   C     0.75910   0.14985   0.75321   0.00000  Uiso   1.00
C384   C     0.78298   0.10476   0.78023   0.00000  Uiso   1.00
C385   C     0.73297   0.09696   0.80743   0.00000  Uiso   1.00
C386   C     0.75415   0.14122   0.69134   0.00000  Uiso   1.00
C387   C     0.77388   0.08888   0.66633   0.00000  Uiso   1.00
C388   C     0.71970   0.07382   0.64143   0.00000  Uiso   1.00
C389   C     0.81074   0.25271   0.71843   0.00000  Uiso   1.00
C390   C     0.87804   0.29409   0.71620   0.00000  Uiso   1.00
C391   C     0.87151   0.37289   0.71410   0.00000  Uiso   1.00
H392   H     0.61787   0.26049   0.72129   0.00000  Uiso   1.00
H393   H     0.58256   0.20603   0.78060   0.00000  Uiso   1.00
H394   H     0.57346   0.19017   0.66671   0.00000  Uiso   1.00
H395   H     0.67762   0.39535   0.71658   0.00000  Uiso   1.00
H396   H     0.57486   0.12974   0.84629   0.00000  Uiso   1.00
H397   H     0.55568   0.09630   0.60615   0.00000  Uiso   1.00
H398   H     0.77531   0.52897   0.71129   0.00000  Uiso   1.00
H399   H     0.86017   0.13806   0.72083   0.00000  Uiso   1.00
H400   H     0.83816   0.07688   0.78012   0.00000  Uiso   1.00
H401   H     0.82906   0.06101   0.66623   0.00000  Uiso   1.00
H402   H     0.93321   0.26619   0.71609   0.00000  Uiso   1.00
H403   H     0.78231   0.02492   0.84590   0.00000  Uiso   1.00
H404   H     0.76313   0.99148   0.60575   0.00000  Uiso   1.00
H405   H     0.98276   0.42414   0.71090   0.00000  Uiso   1.00
O406   O     0.65972   0.03927   0.88510   0.00000  Uiso   1.00
O407   O     0.63457   0.99542   0.57004   0.00000  Uiso   1.00
O408   O     0.92271   0.56306   0.70798   0.00000  Uiso   1.00
N409   N     0.62671   0.11348   0.83807   0.00000  Uiso   1.00
N410   N     0.60877   0.08221   0.61355   0.00000  Uiso   1.00
N411   N     0.81410   0.48672   0.71184   0.00000  Uiso   1.00
N412   N     0.73834   0.05707   0.83786   0.00000  Uiso   1.00
N413   N     0.72040   0.02580   0.61334   0.00000  Uiso   1.00
N414   N     0.92573   0.43031   0.71163   0.00000  Uiso   1.00
C415   C     0.17338   0.73245   0.22119   0.00000  Uiso   1.00
C416   C     0.18780   0.68589   0.25335   0.00000  Uiso   1.00
C417   C     0.13774   0.67815   0.28051   0.00000  Uiso   1.00
C418   C     0.16153   0.63305   0.30756   0.00000  Uiso   1.00
C419   C     0.17307   0.56620   0.35751   0.00000  Uiso   1.00
C420   C     0.18285   0.67725   0.19147   0.00000  Uiso   1.00
C421   C     0.12864   0.66227   0.16660   0.00000  Uiso   1.00
C422   C     0.14827   0.60991   0.14157   0.00000  Uiso   1.00
C423   C     0.15214   0.52971   0.09544   0.00000  Uiso   1.00
C424   C     0.23944   0.78873   0.21857   0.00000  Uiso   1.00
C425   C     0.23280   0.86749   0.21647   0.00000  Uiso   1.00
C426   C     0.30008   0.90899   0.21424   0.00000  Uiso   1.00
C427   C     0.39181   0.00187   0.21018   0.00000  Uiso   1.00
C428   C     0.30465   0.66611   0.22094   0.00000  Uiso   1.00
C429   C     0.25910   0.64985   0.25321   0.00000  Uiso   1.00
C430   C     0.28298   0.60476   0.28023   0.00000  Uiso   1.00
C431   C     0.23297   0.59696   0.30743   0.00000  Uiso   1.00
C432   C     0.25415   0.64122   0.19134   0.00000  Uiso   1.00
C433   C     0.27388   0.58888   0.16633   0.00000  Uiso   1.00
C434   C     0.21970   0.57382   0.14143   0.00000  Uiso   1.00
C435   C     0.31074   0.75271   0.21843   0.00000  Uiso   1.00
C436   C     0.37804   0.79409   0.21620   0.00000  Uiso   1.00
C437   C     0.37151   0.87289   0.21410   0.00000  Uiso   1.00
H438   H     0.11787   0.76049   0.22129   0.00000  Uiso   1.00
H439   H     0.08256   0.70603   0.28060   0.00000  Uiso   1.00
H440   H     0.07346   0.69017   0.16671   0.00000  Uiso   1.00
H441   H     0.17762   0.89535   0.21658   0.00000  Uiso   1.00
H442   H     0.07486   0.62974   0.34629   0.00000  Uiso   1.00
H443   H     0.05568   0.59630   0.10615   0.00000  Uiso   1.00
H444   H     0.27531   0.02897   0.21129   0.00000  Uiso   1.00
H445   H     0.36017   0.63806   0.22083   0.00000  Uiso   1.00
H446   H     0.33816   0.57688   0.28012   0.00000  Uiso   1.00
H447   H     0.32906   0.56101   0.16623   0.00000  Uiso   1.00
H448   H     0.43321   0.76619   0.21609   0.00000  Uiso   1.00
H449   H     0.28231   0.52492   0.34590   0.00000  Uiso   1.00
H450   H     0.26313   0.49148   0.10575   0.00000  Uiso   1.00
H451   H     0.48276   0.92414   0.21090   0.00000  Uiso   1.00
O452   O     0.15972   0.53927   0.38510   0.00000  Uiso   1.00
O453   O     0.13457   0.49542   0.07004   0.00000  Uiso   1.00
O454   O     0.42271   0.06306   0.20798   0.00000  Uiso   1.00
N455   N     0.12671   0.61348   0.33807   0.00000  Uiso   1.00
N456   N     0.10877   0.58221   0.11355   0.00000  Uiso   1.00
N457   N     0.31410   0.98672   0.21184   0.00000  Uiso   1.00
N458   N     0.23834   0.55707   0.33786   0.00000  Uiso   1.00
N459   N     0.22040   0.52580   0.11334   0.00000  Uiso   1.00
N460   N     0.42573   0.93031   0.21163   0.00000  Uiso   1.00
C461   C     0.82662   0.26755   0.22119   0.00000  Uiso   1.00
C462   C     0.81220   0.31411   0.25335   0.00000  Uiso   1.00
C463   C     0.86226   0.32185   0.28051   0.00000  Uiso   1.00
C464   C     0.83847   0.36695   0.30756   0.00000  Uiso   1.00
C465   C     0.82693   0.43380   0.35751   0.00000  Uiso   1.00
C466   C     0.81715   0.32275   0.19147   0.00000  Uiso   1.00
C467   C     0.87136   0.33773   0.16660   0.00000  Uiso   1.00
C468   C     0.85173   0.39009   0.14157   0.00000  Uiso   1.00
C469   C     0.84786   0.47029   0.09544   0.00000  Uiso   1.00
C470   C     0.76056   0.21127   0.21857   0.00000  Uiso   1.00
C471   C     0.76720   0.13251   0.21647   0.00000  Uiso   1.00
C472   C     0.69992   0.09101   0.21424   0.00000  Uiso   1.00
C473   C     0.60819   0.99813   0.21018   0.00000  Uiso   1.00
C474   C     0.69535   0.33389   0.22094   0.00000  Uiso   1.00
C475   C     0.74090   0.35015   0.25321   0.00000  Uiso   1.00
C476   C     0.71702   0.39524   0.28023   0.00000  Uiso   1.00
C477   C     0.76703   0.40304   0.30743   0.00000  Uiso   1.00
C478   C     0.74585   0.35878   0.19134   0.00000  Uiso   1.00
C479   C     0.72612   0.41112   0.16633   0.00000  Uiso   1.00
C480   C     0.78030   0.42618   0.14143   0.00000  Uiso   1.00
C481   C     0.68926   0.24729   0.21843   0.00000  Uiso   1.00
C482   C     0.62196   0.20591   0.21620   0.00000  Uiso   1.00
C483   C     0.62849   0.12711   0.21410   0.00000  Uiso   1.00
H484   H     0.88213   0.23951   0.22129   0.00000  Uiso   1.00
H485   H     0.91744   0.29397   0.28060   0.00000  Uiso   1.00
H486   H     0.92654   0.30983   0.16671   0.00000  Uiso   1.00
H487   H     0.82238   0.10465   0.21658   0.00000  Uiso   1.00
H488   H     0.92514   0.37026   0.34629   0.00000  Uiso   1.00
H489   H     0.94432   0.40370   0.10615   0.00000  Uiso   1.00
H490   H     0.72469   0.97103   0.21129   0.00000  Uiso   1.00
H491   H     0.63983   0.36194   0.22083   0.00000  Uiso   1.00
H492   H     0.66184   0.42312   0.28012   0.00000  Uiso   1.00
H493   H     0.67094   0.43899   0.16623   0.00000  Uiso   1.00
H494   H     0.56679   0.23381   0.21609   0.00000  Uiso   1.00
H495   H     0.71769   0.47508   0.34590   0.00000  Uiso   1.00
H496   H     0.73687   0.50852   0.10575   0.00000  Uiso   1.00
H497   H     0.51724   0.07586   0.21090   0.00000  Uiso   1.00
O498   O     0.84028   0.46073   0.38510   0.00000  Uiso   1.00
O499   O     0.86543   0.50458   0.07004   0.00000  Uiso   1.00
O500   O     0.57729   0.93694   0.20798   0.00000  Uiso   1.00
N501   N     0.87329   0.38652   0.33807   0.00000  Uiso   1.00
N502   N     0.89123   0.41779   0.11355   0.00000  Uiso   1.00
N503   N     0.68590   0.01328   0.21184   0.00000  Uiso   1.00
N504   N     0.76166   0.44293   0.33786   0.00000  Uiso   1.00
N505   N     0.77960   0.47420   0.11334   0.00000  Uiso   1.00
N506   N     0.57427   0.06969   0.21163   0.00000  Uiso   1.00
C507   C     0.32662   0.76755   0.72119   0.00000  Uiso   1.00
C508   C     0.31220   0.81411   0.75335   0.00000  Uiso   1.00
C509   C     0.36226   0.82185   0.78051   0.00000  Uiso   1.00
C510   C     0.33847   0.86695   0.80756   0.00000  Uiso   1.00
C511   C     0.32693   0.93380   0.85751   0.00000  Uiso   1.00
C512   C     0.31715   0.82275   0.69147   0.00000  Uiso   1.00
C513   C     0.37136   0.83773   0.66660   0.00000  Uiso   1.00
C514   C     0.35173   0.89009   0.64157   0.00000  Uiso   1.00
C515   C     0.34786   0.97029   0.59544   0.00000  Uiso   1.00
C516   C     0.26056   0.71127   0.71857   0.00000  Uiso   1.00
C517   C     0.26720   0.63251   0.71647   0.00000  Uiso   1.00
C518   C     0.19992   0.59101   0.71424   0.00000  Uiso   1.00
C519   C     0.10819   0.49813   0.71018   0.00000  Uiso   1.00
C520   C     0.19535   0.83389   0.72094   0.00000  Uiso   1.00
C521   C     0.24090   0.85015   0.75321   0.00000  Uiso   1.00
C522   C     0.21702   0.89524   0.78023   0.00000  Uiso   1.00
C523   C     0.26703   0.90304   0.80743   0.00000  Uiso   1.00
C524   C     0.24585   0.85878   0.69134   0.00000  Uiso   1.00
C525   C     0.22612   0.91112   0.66633   0.00000  Uiso   1.00
C526   C     0.28030   0.92618   0.64143   0.00000  Uiso   1.00
C527   C     0.18926   0.74729   0.71843   0.00000  Uiso   1.00
C528   C     0.12196   0.70591   0.71620   0.00000  Uiso   1.00
C529   C     0.12849   0.62711   0.71410   0.00000  Uiso   1.00
H530   H     0.38213   0.73951   0.72129   0.00000  Uiso   1.00
H531   H     0.41744   0.79397   0.78060   0.00000  Uiso   1.00
H532   H     0.42654   0.80983   0.66671   0.00000  Uiso   1.00
H533   H     0.32238   0.60465   0.71658   0.00000  Uiso   1.00
H534   H     0.42514   0.87026   0.84629   0.00000  Uiso   1.00
H535   H     0.44432   0.90370   0.60615   0.00000  Uiso   1.00
H536   H     0.22469   0.47103   0.71129   0.00000  Uiso   1.00
H537   H     0.13983   0.86194   0.72083   0.00000  Uiso   1.00
H538   H     0.16184   0.92312   0.78012   0.00000  Uiso   1.00
H539   H     0.17094   0.93899   0.66623   0.00000  Uiso   1.00
H540   H     0.06679   0.73381   0.71609   0.00000  Uiso   1.00
H541   H     0.21769   0.97508   0.84590   0.00000  Uiso   1.00
H542   H     0.23687   0.00852   0.60575   0.00000  Uiso   1.00
H543   H     0.01724   0.57586   0.71090   0.00000  Uiso   1.00
O544   O     0.34028   0.96073   0.88510   0.00000  Uiso   1.00
O545   O     0.36543   0.00458   0.57004   0.00000  Uiso   1.00
O546   O     0.07729   0.43694   0.70798   0.00000  Uiso   1.00
N547   N     0.37329   0.88652   0.83807   0.00000  Uiso   1.00
N548   N     0.39123   0.91779   0.61355   0.00000  Uiso   1.00
N549   N     0.18590   0.51328   0.71184   0.00000  Uiso   1.00
N550   N     0.26166   0.94293   0.83786   0.00000  Uiso   1.00
N551   N     0.27960   0.97420   0.61334   0.00000  Uiso   1.00
N552   N     0.07427   0.56969   0.71163   0.00000  Uiso   1.00
C553   C     0.26755   0.67338   0.47119   0.00000  Uiso   1.00
C554   C     0.31411   0.68780   0.50335   0.00000  Uiso   1.00
C555   C     0.32185   0.63774   0.53051   0.00000  Uiso   1.00
C556   C     0.36695   0.66153   0.55756   0.00000  Uiso   1.00
C557   C     0.43380   0.67307   0.60751   0.00000  Uiso   1.00
C558   C     0.32275   0.68285   0.44147   0.00000  Uiso   1.00
C559   C     0.33773   0.62864   0.41660   0.00000  Uiso   1.00
C560   C     0.39009   0.64827   0.39157   0.00000  Uiso   1.00
C561   C     0.47029   0.65214   0.34544   0.00000  Uiso   1.00
C562   C     0.21127   0.73944   0.46857   0.00000  Uiso   1.00
C563   C     0.13251   0.73280   0.46647   0.00000  Uiso   1.00
C564   C     0.09101   0.80008   0.46424   0.00000  Uiso   1.00
C565   C     0.99813   0.89181   0.46018   0.00000  Uiso   1.00
C566   C     0.33389   0.80465   0.47094   0.00000  Uiso   1.00
C567   C     0.35015   0.75910   0.50321   0.00000  Uiso   1.00
C568   C     0.39524   0.78298   0.53023   0.00000  Uiso   1.00
C569   C     0.40304   0.73297   0.55743   0.00000  Uiso   1.00
C570   C     0.35878   0.75415   0.44134   0.00000  Uiso   1.00
C571   C     0.41112   0.77388   0.41633   0.00000  Uiso   1.00
C572   C     0.42618   0.71970   0.39143   0.00000  Uiso   1.00
C573   C     0.24729   0.81074   0.46843   0.00000  Uiso   1.00
C574   C     0.20591   0.87804   0.46620   0.00000  Uiso   1.00
C575   C     0.12711   0.87151   0.46410   0.00000  Uiso   1.00
H576   H     0.23951   0.61787   0.47129   0.00000  Uiso   1.00
H577   H     0.29397   0.58256   0.53060   0.00000  Uiso   1.00
H578   H     0.30983   0.57346   0.41671   0.00000  Uiso   1.00
H579   H     0.10465   0.67762   0.46658   0.00000  Uiso   1.00
H580   H     0.37026   0.57486   0.59629   0.00000  Uiso   1.00
H581   H     0.40370   0.55568   0.35615   0.00000  Uiso   1.00
H582   H     0.97103   0.77531   0.46129   0.00000  Uiso   1.00
H583   H     0.36194   0.86017   0.47083   0.00000  Uiso   1.00
H584   H     0.42312   0.83816   0.53012   0.00000  Uiso   1.00
H585   H     0.43899   0.82906   0.41623   0.00000  Uiso   1.00
H586   H     0.23381   0.93321   0.46609   0.00000  Uiso   1.00
H587   H     0.47508   0.78231   0.59590   0.00000  Uiso   1.00
H588   H     0.50852   0.76313   0.35575   0.00000  Uiso   1.00
H589   H     0.07586   0.98276   0.46090   0.00000  Uiso   1.00
O590   O     0.46073   0.65972   0.63510   0.00000  Uiso   1.00
O591   O     0.50458   0.63457   0.32004   0.00000  Uiso   1.00
O592   O     0.93694   0.92271   0.45798   0.00000  Uiso   1.00
N593   N     0.38652   0.62671   0.58807   0.00000  Uiso   1.00
N594   N     0.41779   0.60877   0.36355   0.00000  Uiso   1.00
N595   N     0.01328   0.81410   0.46184   0.00000  Uiso   1.00
N596   N     0.44293   0.73834   0.58786   0.00000  Uiso   1.00
N597   N     0.47420   0.72040   0.36334   0.00000  Uiso   1.00
N598   N     0.06969   0.92573   0.46163   0.00000  Uiso   1.00
C599   C     0.76755   0.17338   0.97119   0.00000  Uiso   1.00
C600   C     0.81411   0.18780   0.00335   0.00000  Uiso   1.00
C601   C     0.82185   0.13774   0.03051   0.00000  Uiso   1.00
C602   C     0.86695   0.16153   0.05756   0.00000  Uiso   1.00
C603   C     0.93380   0.17307   0.10751   0.00000  Uiso   1.00
C604   C     0.82275   0.18285   0.94147   0.00000  Uiso   1.00
C605   C     0.83773   0.12864   0.91660   0.00000  Uiso   1.00
C606   C     0.89009   0.14827   0.89157   0.00000  Uiso   1.00
C607   C     0.97029   0.15214   0.84544   0.00000  Uiso   1.00
C608   C     0.71127   0.23944   0.96857   0.00000  Uiso   1.00
C609   C     0.63251   0.23280   0.96647   0.00000  Uiso   1.00
C610   C     0.59101   0.30008   0.96424   0.00000  Uiso   1.00
C611   C     0.49813   0.39181   0.96018   0.00000  Uiso   1.00
C612   C     0.83389   0.30465   0.97094   0.00000  Uiso   1.00
C613   C     0.85015   0.25910   0.00321   0.00000  Uiso   1.00
C614   C     0.89524   0.28298   0.03023   0.00000  Uiso   1.00
C615   C     0.90304   0.23297   0.05743   0.00000  Uiso   1.00
C616   C     0.85878   0.25415   0.94134   0.00000  Uiso   1.00
C617   C     0.91112   0.27388   0.91633   0.00000  Uiso   1.00
C618   C     0.92618   0.21970   0.89143   0.00000  Uiso   1.00
C619   C     0.74729   0.31074   0.96843   0.00000  Uiso   1.00
C620   C     0.70591   0.37804   0.96620   0.00000  Uiso   1.00
C621   C     0.62711   0.37151   0.96410   0.00000  Uiso   1.00
H622   H     0.73951   0.11787   0.97129   0.00000  Uiso   1.00
H623   H     0.79397   0.08256   0.03060   0.00000  Uiso   1.00
H624   H     0.80983   0.07346   0.91671   0.00000  Uiso   1.00
H625   H     0.60465   0.17762   0.96658   0.00000  Uiso   1.00
H626   H     0.87026   0.07486   0.09629   0.00000  Uiso   1.00
H627   H     0.90370   0.05568   0.85615   0.00000  Uiso   1.00
H628   H     0.47103   0.27531   0.96129   0.00000  Uiso   1.00
H629   H     0.86194   0.36017   0.97083   0.00000  Uiso   1.00
H630   H     0.92312   0.33816   0.03012   0.00000  Uiso   1.00
H631   H     0.93899   0.32906   0.91623   0.00000  Uiso   1.00
H632   H     0.73381   0.43321   0.96609   0.00000  Uiso   1.00
H633   H     0.97508   0.28231   0.09590   0.00000  Uiso   1.00
H634   H     0.00852   0.26313   0.85575   0.00000  Uiso   1.00
H635   H     0.57586   0.48276   0.96090   0.00000  Uiso   1.00
O636   O     0.96073   0.15972   0.13510   0.00000  Uiso   1.00
O637   O     0.00458   0.13457   0.82004   0.00000  Uiso   1.00
O638   O     0.43694   0.42271   0.95798   0.00000  Uiso   1.00
N639   N     0.88652   0.12671   0.08807   0.00000  Uiso   1.00
N640   N     0.91779   0.10877   0.86355   0.00000  Uiso   1.00
N641   N     0.51328   0.31410   0.96184   0.00000  Uiso   1.00
N642   N     0.94293   0.23834   0.08786   0.00000  Uiso   1.00
N643   N     0.97420   0.22040   0.86334   0.00000  Uiso   1.00
N644   N     0.56969   0.42573   0.96163   0.00000  Uiso   1.00
C645   C     0.23245   0.82662   0.97119   0.00000  Uiso   1.00
C646   C     0.18589   0.81220   0.00335   0.00000  Uiso   1.00
C647   C     0.17815   0.86226   0.03051   0.00000  Uiso   1.00
C648   C     0.13305   0.83847   0.05756   0.00000  Uiso   1.00
C649   C     0.06620   0.82693   0.10751   0.00000  Uiso   1.00
C650   C     0.17725   0.81715   0.94147   0.00000  Uiso   1.00
C651   C     0.16227   0.87136   0.91660   0.00000  Uiso   1.00
C652   C     0.10991   0.85173   0.89157   0.00000  Uiso   1.00
C653   C     0.02971   0.84786   0.84544   0.00000  Uiso   1.00
C654   C     0.28873   0.76056   0.96857   0.00000  Uiso   1.00
C655   C     0.36749   0.76720   0.96647   0.00000  Uiso   1.00
C656   C     0.40899   0.69992   0.96424   0.00000  Uiso   1.00
C657   C     0.50187   0.60819   0.96018   0.00000  Uiso   1.00
C658   C     0.16611   0.69535   0.97094   0.00000  Uiso   1.00
C659   C     0.14985   0.74090   0.00321   0.00000  Uiso   1.00
C660   C     0.10476   0.71702   0.03023   0.00000  Uiso   1.00
C661   C     0.09696   0.76703   0.05743   0.00000  Uiso   1.00
C662   C     0.14122   0.74585   0.94134   0.00000  Uiso   1.00
C663   C     0.08888   0.72612   0.91633   0.00000  Uiso   1.00
C664   C     0.07382   0.78030   0.89143   0.00000  Uiso   1.00
C665   C     0.25271   0.68926   0.96843   0.00000  Uiso   1.00
C666   C     0.29409   0.62196   0.96620   0.00000  Uiso   1.00
C667   C     0.37289   0.62849   0.96410   0.00000  Uiso   1.00
H668   H     0.26049   0.88213   0.97129   0.00000  Uiso   1.00
H669   H     0.20603   0.91744   0.03060   0.00000  Uiso   1.00
H670   H     0.19017   0.92654   0.91671   0.00000  Uiso   1.00
H671   H     0.39535   0.82238   0.96658   0.00000  Uiso   1.00
H672   H     0.12974   0.92514   0.09629   0.00000  Uiso   1.00
H673   H     0.09630   0.94432   0.85615   0.00000  Uiso   1.00
H674   H     0.52897   0.72469   0.96129   0.00000  Uiso   1.00
H675   H     0.13806   0.63983   0.97083   0.00000  Uiso   1.00
H676   H     0.07688   0.66184   0.03012   0.00000  Uiso   1.00
H677   H     0.06101   0.67094   0.91623   0.00000  Uiso   1.00
H678   H     0.26619   0.56679   0.96609   0.00000  Uiso   1.00
H679   H     0.02492   0.71769   0.09590   0.00000  Uiso   1.00
H680   H     0.99148   0.73687   0.85575   0.00000  Uiso   1.00
H681   H     0.42414   0.51724   0.96090   0.00000  Uiso   1.00
O682   O     0.03927   0.84028   0.13510   0.00000  Uiso   1.00
O683   O     0.99542   0.86543   0.82004   0.00000  Uiso   1.00
O684   O     0.56306   0.57729   0.95798   0.00000  Uiso   1.00
N685   N     0.11348   0.87329   0.08807   0.00000  Uiso   1.00
N686   N     0.08221   0.89123   0.86355   0.00000  Uiso   1.00
N687   N     0.48672   0.68590   0.96184   0.00000  Uiso   1.00
N688   N     0.05707   0.76166   0.08786   0.00000  Uiso   1.00
N689   N     0.02580   0.77960   0.86334   0.00000  Uiso   1.00
N690   N     0.43031   0.57427   0.96163   0.00000  Uiso   1.00
C691   C     0.73245   0.32662   0.47119   0.00000  Uiso   1.00
C692   C     0.68589   0.31220   0.50335   0.00000  Uiso   1.00
C693   C     0.67815   0.36226   0.53051   0.00000  Uiso   1.00
C694   C     0.63305   0.33847   0.55756   0.00000  Uiso   1.00
C695   C     0.56620   0.32693   0.60751   0.00000  Uiso   1.00
C696   C     0.67725   0.31715   0.44147   0.00000  Uiso   1.00
C697   C     0.66227   0.37136   0.41660   0.00000  Uiso   1.00
C698   C     0.60991   0.35173   0.39157   0.00000  Uiso   1.00
C699   C     0.52971   0.34786   0.34544   0.00000  Uiso   1.00
C700   C     0.78873   0.26056   0.46857   0.00000  Uiso   1.00
C701   C     0.86749   0.26720   0.46647   0.00000  Uiso   1.00
C702   C     0.90899   0.19992   0.46424   0.00000  Uiso   1.00
C703   C     0.00187   0.10819   0.46018   0.00000  Uiso   1.00
C704   C     0.66611   0.19535   0.47094   0.00000  Uiso   1.00
C705   C     0.64985   0.24090   0.50321   0.00000  Uiso   1.00
C706   C     0.60476   0.21702   0.53023   0.00000  Uiso   1.00
C707   C     0.59696   0.26703   0.55743   0.00000  Uiso   1.00
C708   C     0.64122   0.24585   0.44134   0.00000  Uiso   1.00
C709   C     0.58888   0.22612   0.41633   0.00000  Uiso   1.00
C710   C     0.57382   0.28030   0.39143   0.00000  Uiso   1.00
C711   C     0.75271   0.18926   0.46843   0.00000  Uiso   1.00
C712   C     0.79409   0.12196   0.46620   0.00000  Uiso   1.00
C713   C     0.87289   0.12849   0.46410   0.00000  Uiso   1.00
H714   H     0.76049   0.38213   0.47129   0.00000  Uiso   1.00
H715   H     0.70603   0.41744   0.53060   0.00000  Uiso   1.00
H716   H     0.69017   0.42654   0.41671   0.00000  Uiso   1.00
H717   H     0.89535   0.32238   0.46658   0.00000  Uiso   1.00
H718   H     0.62974   0.42514   0.59629   0.00000  Uiso   1.00
H719   H     0.59630   0.44432   0.35615   0.00000  Uiso   1.00
H720   H     0.02897   0.22469   0.46129   0.00000  Uiso   1.00
H721   H     0.63806   0.13983   0.47083   0.00000  Uiso   1.00
H722   H     0.57688   0.16184   0.53012   0.00000  Uiso   1.00
H723   H     0.56101   0.17094   0.41623   0.00000  Uiso   1.00
H724   H     0.76619   0.06679   0.46609   0.00000  Uiso   1.00
H725   H     0.52492   0.21769   0.59590   0.00000  Uiso   1.00
H726   H     0.49148   0.23687   0.35575   0.00000  Uiso   1.00
H727   H     0.92414   0.01724   0.46090   0.00000  Uiso   1.00
O728   O     0.53927   0.34028   0.63510   0.00000  Uiso   1.00
O729   O     0.49542   0.36543   0.32004   0.00000  Uiso   1.00
O730   O     0.06306   0.07729   0.45798   0.00000  Uiso   1.00
N731   N     0.61348   0.37329   0.58807   0.00000  Uiso   1.00
N732   N     0.58221   0.39123   0.36355   0.00000  Uiso   1.00
N733   N     0.98672   0.18590   0.46184   0.00000  Uiso   1.00
N734   N     0.55707   0.26166   0.58786   0.00000  Uiso   1.00
N735   N     0.52580   0.27960   0.36334   0.00000  Uiso   1.00
N736   N     0.93031   0.07427   0.46163   0.00000  Uiso   1.00
