data_job_01379
_audit_creation_date              2018-12-19
_audit_creation_method            'Materials Studio'
_symmetry_space_group_name_H-M    'P1'
_symmetry_Int_Tables_number       1
_symmetry_cell_setting            triclinic
loop_
_symmetry_equiv_pos_as_xyz
  x,y,z
_cell_length_a                    12.5069
_cell_length_b                    22.0823
_cell_length_c                    33.2180
_cell_angle_alpha                 90.0000
_cell_angle_beta                  90.0000
_cell_angle_gamma                 90.0000
loop_
_atom_site_label
_atom_site_type_symbol
_atom_site_fract_x
_atom_site_fract_y
_atom_site_fract_z
_atom_site_U_iso_or_equiv
_atom_site_adp_type
_atom_site_occupancy
C1     C     0.97423   0.07299   0.64802   0.00000  Uiso   1.00
C2     C     0.07571   0.09676   0.66796   0.00000  Uiso   1.00
C3     C     0.10576   0.08690   0.70764   0.00000  Uiso   1.00
C4     C     0.20155   0.11251   0.72014   0.00000  Uiso   1.00
C5     C     0.34947   0.14423   0.75511   0.00000  Uiso   1.00
C6     C     0.91607   0.12843   0.63160   0.00000  Uiso   1.00
C7     C     0.81188   0.14519   0.64069   0.00000  Uiso   1.00
C8     C     0.77328   0.19746   0.62257   0.00000  Uiso   1.00
C9     C     0.67331   0.27833   0.60106   0.00000  Uiso   1.00
C10    C     0.01086   0.03699   0.61136   0.00000  Uiso   1.00
C11    C     0.98636   0.97686   0.60343   0.00000  Uiso   1.00
C12    C     0.02755   0.95215   0.56826   0.00000  Uiso   1.00
C13    C     0.07476   0.89103   0.51533   0.00000  Uiso   1.00
C14    C     0.09091   0.13602   0.59966   0.00000  Uiso   1.00
C15    C     0.13909   0.13099   0.64170   0.00000  Uiso   1.00
C16    C     0.23487   0.15663   0.65414   0.00000  Uiso   1.00
C17    C     0.26505   0.14680   0.69383   0.00000  Uiso   1.00
C18    C     0.97944   0.16267   0.60533   0.00000  Uiso   1.00
C19    C     0.94098   0.21492   0.58719   0.00000  Uiso   1.00
C20    C     0.83677   0.23176   0.59626   0.00000  Uiso   1.00
C21    C     0.07424   0.07122   0.58509   0.00000  Uiso   1.00
C22    C     0.11547   0.04659   0.54993   0.00000  Uiso   1.00
C23    C     0.09104   0.98644   0.54195   0.00000  Uiso   1.00
H24    H     0.92488   0.04635   0.66847   0.00000  Uiso   1.00
H25    H     0.05669   0.06041   0.72796   0.00000  Uiso   1.00
H26    H     0.76285   0.11869   0.66102   0.00000  Uiso   1.00
H27    H     0.93731   0.95039   0.62377   0.00000  Uiso   1.00
H28    H     0.23075   0.09111   0.78234   0.00000  Uiso   1.00
H29    H     0.61117   0.21399   0.64118   0.00000  Uiso   1.00
H30    H     0.97904   0.85909   0.56262   0.00000  Uiso   1.00
H31    H     0.14026   0.16267   0.57921   0.00000  Uiso   1.00
H32    H     0.28389   0.18312   0.63380   0.00000  Uiso   1.00
H33    H     0.99005   0.24140   0.56686   0.00000  Uiso   1.00
H34    H     0.16451   0.07310   0.52961   0.00000  Uiso   1.00
H35    H     0.41516   0.19071   0.70592   0.00000  Uiso   1.00
H36    H     0.79557   0.31359   0.56475   0.00000  Uiso   1.00
H37    H     0.16345   0.95869   0.48620   0.00000  Uiso   1.00
O38    O     0.41354   0.15228   0.78166   0.00000  Uiso   1.00
O39    O     0.60066   0.31348   0.59645   0.00000  Uiso   1.00
O40    O     0.08331   0.84786   0.49339   0.00000  Uiso   1.00
N41    N     0.25445   0.11173   0.75686   0.00000  Uiso   1.00
N42    N     0.67518   0.22662   0.62488   0.00000  Uiso   1.00
N43    N     0.01909   0.89483   0.55144   0.00000  Uiso   1.00
N44    N     0.35368   0.16533   0.71574   0.00000  Uiso   1.00
N45    N     0.77441   0.28022   0.58376   0.00000  Uiso   1.00
N46    N     0.11832   0.94842   0.51031   0.00000  Uiso   1.00
C47    C     0.98042   0.50599   0.85442   0.00000  Uiso   1.00
C48    C     0.08014   0.48235   0.83320   0.00000  Uiso   1.00
C49    C     0.10577   0.49148   0.79300   0.00000  Uiso   1.00
C50    C     0.20063   0.46613   0.77932   0.00000  Uiso   1.00
C51    C     0.34530   0.43446   0.74246   0.00000  Uiso   1.00
C52    C     0.92509   0.45061   0.87225   0.00000  Uiso   1.00
C53    C     0.82034   0.43306   0.86490   0.00000  Uiso   1.00
C54    C     0.78467   0.38099   0.88410   0.00000  Uiso   1.00
C55    C     0.68859   0.30006   0.90790   0.00000  Uiso   1.00
C56    C     0.02023   0.54304   0.89014   0.00000  Uiso   1.00
C57    C     0.99547   0.60319   0.89785   0.00000  Uiso   1.00
C58    C     0.03989   0.62894   0.93212   0.00000  Uiso   1.00
C59    C     0.09154   0.69152   0.98369   0.00000  Uiso   1.00
C60    C     0.10332   0.44474   0.90159   0.00000  Uiso   1.00
C61    C     0.14689   0.44908   0.85882   0.00000  Uiso   1.00
C62    C     0.24175   0.42371   0.84519   0.00000  Uiso   1.00
C63    C     0.26751   0.43280   0.80499   0.00000  Uiso   1.00
C64    C     0.99184   0.41734   0.89787   0.00000  Uiso   1.00
C65    C     0.95632   0.36529   0.91709   0.00000  Uiso   1.00
C66    C     0.85155   0.34766   0.90977   0.00000  Uiso   1.00
C67    C     0.08699   0.50977   0.91577   0.00000  Uiso   1.00
C68    C     0.13145   0.53543   0.95003   0.00000  Uiso   1.00
C69    C     0.10677   0.59561   0.95778   0.00000  Uiso   1.00
H70    H     0.92844   0.53189   0.83448   0.00000  Uiso   1.00
H71    H     0.05408   0.51723   0.77318   0.00000  Uiso   1.00
H72    H     0.76870   0.45881   0.84508   0.00000  Uiso   1.00
H73    H     0.94381   0.62892   0.87801   0.00000  Uiso   1.00
H74    H     0.22280   0.48628   0.71653   0.00000  Uiso   1.00
H75    H     0.62104   0.36312   0.86813   0.00000  Uiso   1.00
H76    H     0.99028   0.72183   0.93758   0.00000  Uiso   1.00
H77    H     0.15529   0.41884   0.92154   0.00000  Uiso   1.00
H78    H     0.29339   0.39797   0.86503   0.00000  Uiso   1.00
H79    H     0.00800   0.33956   0.93692   0.00000  Uiso   1.00
H80    H     0.18311   0.50967   0.96986   0.00000  Uiso   1.00
H81    H     0.41703   0.38948   0.79107   0.00000  Uiso   1.00
H82    H     0.81526   0.26633   0.94267   0.00000  Uiso   1.00
H83    H     0.18451   0.62504   0.01212   0.00000  Uiso   1.00
O84    O     0.40665   0.42617   0.71504   0.00000  Uiso   1.00
O85    O     0.61715   0.26461   0.91394   0.00000  Uiso   1.00
O86    O     0.10160   0.73523   0.00506   0.00000  Uiso   1.00
N87    N     0.24957   0.46637   0.74183   0.00000  Uiso   1.00
N88    N     0.68696   0.35122   0.88356   0.00000  Uiso   1.00
N89    N     0.03216   0.68658   0.94850   0.00000  Uiso   1.00
N90    N     0.35409   0.41429   0.78194   0.00000  Uiso   1.00
N91    N     0.79148   0.29914   0.92367   0.00000  Uiso   1.00
N92    N     0.13667   0.63450   0.98861   0.00000  Uiso   1.00
C93    C     0.52577   0.42701   0.14802   0.00000  Uiso   1.00
C94    C     0.42429   0.40324   0.16796   0.00000  Uiso   1.00
C95    C     0.39424   0.41310   0.20764   0.00000  Uiso   1.00
C96    C     0.29845   0.38749   0.22014   0.00000  Uiso   1.00
C97    C     0.15053   0.35577   0.25511   0.00000  Uiso   1.00
C98    C     0.58393   0.37157   0.13160   0.00000  Uiso   1.00
C99    C     0.68812   0.35481   0.14069   0.00000  Uiso   1.00
C100   C     0.72672   0.30254   0.12257   0.00000  Uiso   1.00
C101   C     0.82669   0.22167   0.10106   0.00000  Uiso   1.00
C102   C     0.48914   0.46301   0.11136   0.00000  Uiso   1.00
C103   C     0.51364   0.52314   0.10343   0.00000  Uiso   1.00
C104   C     0.47245   0.54785   0.06826   0.00000  Uiso   1.00
C105   C     0.42524   0.60897   0.01533   0.00000  Uiso   1.00
C106   C     0.40909   0.36398   0.09966   0.00000  Uiso   1.00
C107   C     0.36091   0.36901   0.14170   0.00000  Uiso   1.00
C108   C     0.26513   0.34337   0.15414   0.00000  Uiso   1.00
C109   C     0.23495   0.35320   0.19383   0.00000  Uiso   1.00
C110   C     0.52056   0.33733   0.10533   0.00000  Uiso   1.00
C111   C     0.55902   0.28508   0.08719   0.00000  Uiso   1.00
C112   C     0.66323   0.26824   0.09626   0.00000  Uiso   1.00
C113   C     0.42576   0.42878   0.08509   0.00000  Uiso   1.00
C114   C     0.38453   0.45341   0.04993   0.00000  Uiso   1.00
C115   C     0.40896   0.51356   0.04195   0.00000  Uiso   1.00
H116   H     0.57512   0.45365   0.16847   0.00000  Uiso   1.00
H117   H     0.44331   0.43959   0.22796   0.00000  Uiso   1.00
H118   H     0.73715   0.38131   0.16102   0.00000  Uiso   1.00
H119   H     0.56269   0.54961   0.12377   0.00000  Uiso   1.00
H120   H     0.26925   0.40889   0.28234   0.00000  Uiso   1.00
H121   H     0.88883   0.28601   0.14118   0.00000  Uiso   1.00
H122   H     0.52096   0.64091   0.06262   0.00000  Uiso   1.00
H123   H     0.35974   0.33733   0.07921   0.00000  Uiso   1.00
H124   H     0.21611   0.31688   0.13380   0.00000  Uiso   1.00
H125   H     0.50995   0.25860   0.06686   0.00000  Uiso   1.00
H126   H     0.33549   0.42690   0.02961   0.00000  Uiso   1.00
H127   H     0.08484   0.30929   0.20592   0.00000  Uiso   1.00
H128   H     0.70443   0.18641   0.06475   0.00000  Uiso   1.00
H129   H     0.33655   0.54131   0.98620   0.00000  Uiso   1.00
O130   O     0.08646   0.34772   0.28166   0.00000  Uiso   1.00
O131   O     0.89934   0.18652   0.09645   0.00000  Uiso   1.00
O132   O     0.41669   0.65214   0.99339   0.00000  Uiso   1.00
N133   N     0.24555   0.38827   0.25686   0.00000  Uiso   1.00
N134   N     0.82482   0.27338   0.12488   0.00000  Uiso   1.00
N135   N     0.48091   0.60517   0.05144   0.00000  Uiso   1.00
N136   N     0.14632   0.33467   0.21574   0.00000  Uiso   1.00
N137   N     0.72559   0.21978   0.08376   0.00000  Uiso   1.00
N138   N     0.38168   0.55158   0.01031   0.00000  Uiso   1.00
C139   C     0.51958   0.99401   0.35442   0.00000  Uiso   1.00
C140   C     0.41986   0.01765   0.33320   0.00000  Uiso   1.00
C141   C     0.39423   0.00852   0.29300   0.00000  Uiso   1.00
C142   C     0.29937   0.03387   0.27932   0.00000  Uiso   1.00
C143   C     0.15470   0.06554   0.24246   0.00000  Uiso   1.00
C144   C     0.57491   0.04939   0.37225   0.00000  Uiso   1.00
C145   C     0.67966   0.06694   0.36490   0.00000  Uiso   1.00
C146   C     0.71533   0.11901   0.38410   0.00000  Uiso   1.00
C147   C     0.81141   0.19994   0.40790   0.00000  Uiso   1.00
C148   C     0.47977   0.95696   0.39014   0.00000  Uiso   1.00
C149   C     0.50453   0.89681   0.39785   0.00000  Uiso   1.00
C150   C     0.46011   0.87106   0.43212   0.00000  Uiso   1.00
C151   C     0.40846   0.80848   0.48369   0.00000  Uiso   1.00
C152   C     0.39668   0.05526   0.40159   0.00000  Uiso   1.00
C153   C     0.35311   0.05092   0.35882   0.00000  Uiso   1.00
C154   C     0.25825   0.07629   0.34519   0.00000  Uiso   1.00
C155   C     0.23249   0.06720   0.30499   0.00000  Uiso   1.00
C156   C     0.50816   0.08266   0.39787   0.00000  Uiso   1.00
C157   C     0.54368   0.13471   0.41709   0.00000  Uiso   1.00
C158   C     0.64845   0.15234   0.40977   0.00000  Uiso   1.00
C159   C     0.41301   0.99023   0.41577   0.00000  Uiso   1.00
C160   C     0.36855   0.96457   0.45003   0.00000  Uiso   1.00
C161   C     0.39323   0.90439   0.45778   0.00000  Uiso   1.00
H162   H     0.57156   0.96811   0.33448   0.00000  Uiso   1.00
H163   H     0.44592   0.98277   0.27318   0.00000  Uiso   1.00
H164   H     0.73130   0.04119   0.34508   0.00000  Uiso   1.00
H165   H     0.55619   0.87108   0.37801   0.00000  Uiso   1.00
H166   H     0.27720   0.01372   0.21653   0.00000  Uiso   1.00
H167   H     0.87896   0.13688   0.36813   0.00000  Uiso   1.00
H168   H     0.50972   0.77817   0.43758   0.00000  Uiso   1.00
H169   H     0.34471   0.08116   0.42154   0.00000  Uiso   1.00
H170   H     0.20661   0.10203   0.36503   0.00000  Uiso   1.00
H171   H     0.49200   0.16044   0.43692   0.00000  Uiso   1.00
H172   H     0.31689   0.99033   0.46986   0.00000  Uiso   1.00
H173   H     0.08297   0.11052   0.29107   0.00000  Uiso   1.00
H174   H     0.68474   0.23367   0.44267   0.00000  Uiso   1.00
H175   H     0.31549   0.87496   0.51212   0.00000  Uiso   1.00
O176   O     0.09335   0.07383   0.21504   0.00000  Uiso   1.00
O177   O     0.88285   0.23539   0.41394   0.00000  Uiso   1.00
O178   O     0.39840   0.76477   0.50506   0.00000  Uiso   1.00
N179   N     0.25043   0.03363   0.24183   0.00000  Uiso   1.00
N180   N     0.81304   0.14878   0.38356   0.00000  Uiso   1.00
N181   N     0.46784   0.81342   0.44850   0.00000  Uiso   1.00
N182   N     0.14591   0.08571   0.28194   0.00000  Uiso   1.00
N183   N     0.70852   0.20086   0.42367   0.00000  Uiso   1.00
N184   N     0.36333   0.86550   0.48861   0.00000  Uiso   1.00
C185   C     0.02577   0.07299   0.85198   0.00000  Uiso   1.00
C186   C     0.92429   0.09676   0.83204   0.00000  Uiso   1.00
C187   C     0.89424   0.08690   0.79236   0.00000  Uiso   1.00
C188   C     0.79845   0.11251   0.77986   0.00000  Uiso   1.00
C189   C     0.65053   0.14423   0.74489   0.00000  Uiso   1.00
C190   C     0.08393   0.12843   0.86840   0.00000  Uiso   1.00
C191   C     0.18812   0.14519   0.85931   0.00000  Uiso   1.00
C192   C     0.22672   0.19746   0.87743   0.00000  Uiso   1.00
C193   C     0.32669   0.27833   0.89894   0.00000  Uiso   1.00
C194   C     0.98914   0.03699   0.88864   0.00000  Uiso   1.00
C195   C     0.01364   0.97686   0.89657   0.00000  Uiso   1.00
C196   C     0.97245   0.95215   0.93174   0.00000  Uiso   1.00
C197   C     0.92524   0.89103   0.98467   0.00000  Uiso   1.00
C198   C     0.90909   0.13602   0.90034   0.00000  Uiso   1.00
C199   C     0.86091   0.13099   0.85830   0.00000  Uiso   1.00
C200   C     0.76513   0.15663   0.84586   0.00000  Uiso   1.00
C201   C     0.73495   0.14680   0.80617   0.00000  Uiso   1.00
C202   C     0.02056   0.16267   0.89467   0.00000  Uiso   1.00
C203   C     0.05902   0.21492   0.91281   0.00000  Uiso   1.00
C204   C     0.16323   0.23176   0.90374   0.00000  Uiso   1.00
C205   C     0.92576   0.07122   0.91491   0.00000  Uiso   1.00
C206   C     0.88453   0.04659   0.95007   0.00000  Uiso   1.00
C207   C     0.90896   0.98644   0.95805   0.00000  Uiso   1.00
H208   H     0.07512   0.04635   0.83153   0.00000  Uiso   1.00
H209   H     0.94331   0.06041   0.77204   0.00000  Uiso   1.00
H210   H     0.23715   0.11869   0.83898   0.00000  Uiso   1.00
H211   H     0.06269   0.95039   0.87623   0.00000  Uiso   1.00
H212   H     0.76925   0.09111   0.71766   0.00000  Uiso   1.00
H213   H     0.38883   0.21399   0.85882   0.00000  Uiso   1.00
H214   H     0.02096   0.85909   0.93738   0.00000  Uiso   1.00
H215   H     0.85974   0.16267   0.92079   0.00000  Uiso   1.00
H216   H     0.71611   0.18312   0.86620   0.00000  Uiso   1.00
H217   H     0.00995   0.24140   0.93314   0.00000  Uiso   1.00
H218   H     0.83549   0.07310   0.97039   0.00000  Uiso   1.00
H219   H     0.58484   0.19071   0.79408   0.00000  Uiso   1.00
H220   H     0.20443   0.31359   0.93525   0.00000  Uiso   1.00
H221   H     0.83655   0.95869   0.01380   0.00000  Uiso   1.00
O222   O     0.58646   0.15228   0.71834   0.00000  Uiso   1.00
O223   O     0.39934   0.31348   0.90355   0.00000  Uiso   1.00
O224   O     0.91669   0.84786   0.00661   0.00000  Uiso   1.00
N225   N     0.74555   0.11173   0.74314   0.00000  Uiso   1.00
N226   N     0.32482   0.22662   0.87512   0.00000  Uiso   1.00
N227   N     0.98091   0.89483   0.94856   0.00000  Uiso   1.00
N228   N     0.64632   0.16533   0.78426   0.00000  Uiso   1.00
N229   N     0.22559   0.28022   0.91624   0.00000  Uiso   1.00
N230   N     0.88168   0.94842   0.98969   0.00000  Uiso   1.00
C231   C     0.01958   0.50599   0.64558   0.00000  Uiso   1.00
C232   C     0.91986   0.48235   0.66680   0.00000  Uiso   1.00
C233   C     0.89423   0.49148   0.70700   0.00000  Uiso   1.00
C234   C     0.79937   0.46613   0.72068   0.00000  Uiso   1.00
C235   C     0.65470   0.43446   0.75754   0.00000  Uiso   1.00
C236   C     0.07491   0.45061   0.62775   0.00000  Uiso   1.00
C237   C     0.17966   0.43306   0.63510   0.00000  Uiso   1.00
C238   C     0.21533   0.38099   0.61590   0.00000  Uiso   1.00
C239   C     0.31141   0.30006   0.59210   0.00000  Uiso   1.00
C240   C     0.97977   0.54304   0.60986   0.00000  Uiso   1.00
C241   C     0.00453   0.60319   0.60215   0.00000  Uiso   1.00
C242   C     0.96011   0.62894   0.56788   0.00000  Uiso   1.00
C243   C     0.90846   0.69152   0.51631   0.00000  Uiso   1.00
C244   C     0.89668   0.44474   0.59841   0.00000  Uiso   1.00
C245   C     0.85311   0.44908   0.64118   0.00000  Uiso   1.00
C246   C     0.75825   0.42371   0.65481   0.00000  Uiso   1.00
C247   C     0.73249   0.43280   0.69501   0.00000  Uiso   1.00
C248   C     0.00816   0.41734   0.60213   0.00000  Uiso   1.00
C249   C     0.04368   0.36529   0.58291   0.00000  Uiso   1.00
C250   C     0.14845   0.34766   0.59023   0.00000  Uiso   1.00
C251   C     0.91301   0.50977   0.58423   0.00000  Uiso   1.00
C252   C     0.86855   0.53543   0.54997   0.00000  Uiso   1.00
C253   C     0.89323   0.59561   0.54222   0.00000  Uiso   1.00
H254   H     0.07156   0.53189   0.66552   0.00000  Uiso   1.00
H255   H     0.94592   0.51723   0.72682   0.00000  Uiso   1.00
H256   H     0.23130   0.45881   0.65492   0.00000  Uiso   1.00
H257   H     0.05619   0.62892   0.62199   0.00000  Uiso   1.00
H258   H     0.77720   0.48628   0.78347   0.00000  Uiso   1.00
H259   H     0.37896   0.36312   0.63187   0.00000  Uiso   1.00
H260   H     0.00972   0.72183   0.56242   0.00000  Uiso   1.00
H261   H     0.84471   0.41884   0.57846   0.00000  Uiso   1.00
H262   H     0.70661   0.39797   0.63497   0.00000  Uiso   1.00
H263   H     0.99200   0.33956   0.56308   0.00000  Uiso   1.00
H264   H     0.81689   0.50967   0.53014   0.00000  Uiso   1.00
H265   H     0.58297   0.38948   0.70893   0.00000  Uiso   1.00
H266   H     0.18474   0.26633   0.55733   0.00000  Uiso   1.00
H267   H     0.81549   0.62504   0.48788   0.00000  Uiso   1.00
O268   O     0.59335   0.42617   0.78496   0.00000  Uiso   1.00
O269   O     0.38285   0.26461   0.58606   0.00000  Uiso   1.00
O270   O     0.89840   0.73523   0.49494   0.00000  Uiso   1.00
N271   N     0.75043   0.46637   0.75817   0.00000  Uiso   1.00
N272   N     0.31304   0.35122   0.61644   0.00000  Uiso   1.00
N273   N     0.96784   0.68658   0.55150   0.00000  Uiso   1.00
N274   N     0.64591   0.41429   0.71806   0.00000  Uiso   1.00
N275   N     0.20852   0.29914   0.57633   0.00000  Uiso   1.00
N276   N     0.86333   0.63450   0.51139   0.00000  Uiso   1.00
C277   C     0.47423   0.42701   0.35198   0.00000  Uiso   1.00
C278   C     0.57571   0.40324   0.33204   0.00000  Uiso   1.00
C279   C     0.60576   0.41310   0.29236   0.00000  Uiso   1.00
C280   C     0.70155   0.38749   0.27986   0.00000  Uiso   1.00
C281   C     0.84947   0.35577   0.24489   0.00000  Uiso   1.00
C282   C     0.41607   0.37157   0.36840   0.00000  Uiso   1.00
C283   C     0.31188   0.35481   0.35931   0.00000  Uiso   1.00
C284   C     0.27328   0.30254   0.37743   0.00000  Uiso   1.00
C285   C     0.17331   0.22167   0.39894   0.00000  Uiso   1.00
C286   C     0.51086   0.46301   0.38864   0.00000  Uiso   1.00
C287   C     0.48636   0.52314   0.39657   0.00000  Uiso   1.00
C288   C     0.52755   0.54785   0.43174   0.00000  Uiso   1.00
C289   C     0.57476   0.60897   0.48467   0.00000  Uiso   1.00
C290   C     0.59091   0.36398   0.40034   0.00000  Uiso   1.00
C291   C     0.63909   0.36901   0.35830   0.00000  Uiso   1.00
C292   C     0.73487   0.34337   0.34586   0.00000  Uiso   1.00
C293   C     0.76505   0.35320   0.30617   0.00000  Uiso   1.00
C294   C     0.47944   0.33733   0.39467   0.00000  Uiso   1.00
C295   C     0.44098   0.28508   0.41281   0.00000  Uiso   1.00
C296   C     0.33677   0.26824   0.40374   0.00000  Uiso   1.00
C297   C     0.57424   0.42878   0.41491   0.00000  Uiso   1.00
C298   C     0.61547   0.45341   0.45007   0.00000  Uiso   1.00
C299   C     0.59104   0.51356   0.45805   0.00000  Uiso   1.00
H300   H     0.42488   0.45365   0.33153   0.00000  Uiso   1.00
H301   H     0.55669   0.43959   0.27204   0.00000  Uiso   1.00
H302   H     0.26285   0.38131   0.33898   0.00000  Uiso   1.00
H303   H     0.43731   0.54961   0.37623   0.00000  Uiso   1.00
H304   H     0.73075   0.40889   0.21766   0.00000  Uiso   1.00
H305   H     0.11117   0.28601   0.35882   0.00000  Uiso   1.00
H306   H     0.47904   0.64091   0.43738   0.00000  Uiso   1.00
H307   H     0.64026   0.33733   0.42079   0.00000  Uiso   1.00
H308   H     0.78389   0.31688   0.36620   0.00000  Uiso   1.00
H309   H     0.49005   0.25860   0.43314   0.00000  Uiso   1.00
H310   H     0.66451   0.42690   0.47039   0.00000  Uiso   1.00
H311   H     0.91516   0.30929   0.29408   0.00000  Uiso   1.00
H312   H     0.29557   0.18641   0.43525   0.00000  Uiso   1.00
H313   H     0.66345   0.54131   0.51380   0.00000  Uiso   1.00
O314   O     0.91354   0.34772   0.21834   0.00000  Uiso   1.00
O315   O     0.10066   0.18652   0.40355   0.00000  Uiso   1.00
O316   O     0.58331   0.65214   0.50661   0.00000  Uiso   1.00
N317   N     0.75445   0.38827   0.24314   0.00000  Uiso   1.00
N318   N     0.17518   0.27338   0.37512   0.00000  Uiso   1.00
N319   N     0.51909   0.60517   0.44856   0.00000  Uiso   1.00
N320   N     0.85368   0.33467   0.28426   0.00000  Uiso   1.00
N321   N     0.27441   0.21978   0.41624   0.00000  Uiso   1.00
N322   N     0.61832   0.55158   0.48969   0.00000  Uiso   1.00
C323   C     0.48042   0.99401   0.14558   0.00000  Uiso   1.00
C324   C     0.58014   0.01765   0.16680   0.00000  Uiso   1.00
C325   C     0.60577   0.00852   0.20700   0.00000  Uiso   1.00
C326   C     0.70063   0.03387   0.22068   0.00000  Uiso   1.00
C327   C     0.84530   0.06554   0.25754   0.00000  Uiso   1.00
C328   C     0.42509   0.04939   0.12775   0.00000  Uiso   1.00
C329   C     0.32034   0.06694   0.13510   0.00000  Uiso   1.00
C330   C     0.28467   0.11901   0.11590   0.00000  Uiso   1.00
C331   C     0.18859   0.19994   0.09210   0.00000  Uiso   1.00
C332   C     0.52023   0.95696   0.10986   0.00000  Uiso   1.00
C333   C     0.49547   0.89681   0.10215   0.00000  Uiso   1.00
C334   C     0.53989   0.87106   0.06788   0.00000  Uiso   1.00
C335   C     0.59154   0.80848   0.01631   0.00000  Uiso   1.00
C336   C     0.60332   0.05526   0.09841   0.00000  Uiso   1.00
C337   C     0.64689   0.05092   0.14118   0.00000  Uiso   1.00
C338   C     0.74175   0.07629   0.15481   0.00000  Uiso   1.00
C339   C     0.76751   0.06720   0.19501   0.00000  Uiso   1.00
C340   C     0.49184   0.08266   0.10213   0.00000  Uiso   1.00
C341   C     0.45632   0.13471   0.08291   0.00000  Uiso   1.00
C342   C     0.35155   0.15234   0.09023   0.00000  Uiso   1.00
C343   C     0.58699   0.99023   0.08423   0.00000  Uiso   1.00
C344   C     0.63145   0.96457   0.04997   0.00000  Uiso   1.00
C345   C     0.60677   0.90439   0.04222   0.00000  Uiso   1.00
H346   H     0.42844   0.96811   0.16552   0.00000  Uiso   1.00
H347   H     0.55408   0.98277   0.22682   0.00000  Uiso   1.00
H348   H     0.26870   0.04119   0.15492   0.00000  Uiso   1.00
H349   H     0.44381   0.87108   0.12199   0.00000  Uiso   1.00
H350   H     0.72280   0.01372   0.28347   0.00000  Uiso   1.00
H351   H     0.12104   0.13688   0.13187   0.00000  Uiso   1.00
H352   H     0.49028   0.77817   0.06242   0.00000  Uiso   1.00
H353   H     0.65529   0.08116   0.07846   0.00000  Uiso   1.00
H354   H     0.79339   0.10203   0.13497   0.00000  Uiso   1.00
H355   H     0.50800   0.16044   0.06308   0.00000  Uiso   1.00
H356   H     0.68311   0.99033   0.03014   0.00000  Uiso   1.00
H357   H     0.91703   0.11052   0.20893   0.00000  Uiso   1.00
H358   H     0.31526   0.23367   0.05733   0.00000  Uiso   1.00
H359   H     0.68451   0.87496   0.98788   0.00000  Uiso   1.00
O360   O     0.90665   0.07383   0.28496   0.00000  Uiso   1.00
O361   O     0.11715   0.23539   0.08606   0.00000  Uiso   1.00
O362   O     0.60160   0.76477   0.99494   0.00000  Uiso   1.00
N363   N     0.74957   0.03363   0.25817   0.00000  Uiso   1.00
N364   N     0.18696   0.14878   0.11644   0.00000  Uiso   1.00
N365   N     0.53216   0.81342   0.05150   0.00000  Uiso   1.00
N366   N     0.85409   0.08571   0.21806   0.00000  Uiso   1.00
N367   N     0.29148   0.20086   0.07633   0.00000  Uiso   1.00
N368   N     0.63667   0.86550   0.01139   0.00000  Uiso   1.00
C369   C     0.02577   0.92701   0.35198   0.00000  Uiso   1.00
C370   C     0.92429   0.90324   0.33204   0.00000  Uiso   1.00
C371   C     0.89424   0.91310   0.29236   0.00000  Uiso   1.00
C372   C     0.79845   0.88749   0.27986   0.00000  Uiso   1.00
C373   C     0.65053   0.85577   0.24489   0.00000  Uiso   1.00
C374   C     0.08393   0.87157   0.36840   0.00000  Uiso   1.00
C375   C     0.18812   0.85481   0.35931   0.00000  Uiso   1.00
C376   C     0.22672   0.80254   0.37743   0.00000  Uiso   1.00
C377   C     0.32669   0.72167   0.39894   0.00000  Uiso   1.00
C378   C     0.98914   0.96301   0.38864   0.00000  Uiso   1.00
C379   C     0.01364   0.02314   0.39657   0.00000  Uiso   1.00
C380   C     0.97245   0.04785   0.43174   0.00000  Uiso   1.00
C381   C     0.92524   0.10897   0.48467   0.00000  Uiso   1.00
C382   C     0.90909   0.86398   0.40034   0.00000  Uiso   1.00
C383   C     0.86091   0.86901   0.35830   0.00000  Uiso   1.00
C384   C     0.76513   0.84337   0.34586   0.00000  Uiso   1.00
C385   C     0.73495   0.85320   0.30617   0.00000  Uiso   1.00
C386   C     0.02056   0.83733   0.39467   0.00000  Uiso   1.00
C387   C     0.05902   0.78508   0.41281   0.00000  Uiso   1.00
C388   C     0.16323   0.76824   0.40374   0.00000  Uiso   1.00
C389   C     0.92576   0.92878   0.41491   0.00000  Uiso   1.00
C390   C     0.88453   0.95341   0.45007   0.00000  Uiso   1.00
C391   C     0.90896   0.01356   0.45805   0.00000  Uiso   1.00
H392   H     0.07512   0.95365   0.33153   0.00000  Uiso   1.00
H393   H     0.94331   0.93959   0.27204   0.00000  Uiso   1.00
H394   H     0.23715   0.88131   0.33898   0.00000  Uiso   1.00
H395   H     0.06269   0.04961   0.37623   0.00000  Uiso   1.00
H396   H     0.76925   0.90889   0.21766   0.00000  Uiso   1.00
H397   H     0.38883   0.78601   0.35882   0.00000  Uiso   1.00
H398   H     0.02096   0.14091   0.43738   0.00000  Uiso   1.00
H399   H     0.85974   0.83733   0.42079   0.00000  Uiso   1.00
H400   H     0.71611   0.81688   0.36620   0.00000  Uiso   1.00
H401   H     0.00995   0.75860   0.43314   0.00000  Uiso   1.00
H402   H     0.83549   0.92690   0.47039   0.00000  Uiso   1.00
H403   H     0.58484   0.80929   0.29408   0.00000  Uiso   1.00
H404   H     0.20443   0.68641   0.43525   0.00000  Uiso   1.00
H405   H     0.83655   0.04131   0.51380   0.00000  Uiso   1.00
O406   O     0.58646   0.84772   0.21834   0.00000  Uiso   1.00
O407   O     0.39934   0.68652   0.40355   0.00000  Uiso   1.00
O408   O     0.91669   0.15214   0.50661   0.00000  Uiso   1.00
N409   N     0.74555   0.88827   0.24314   0.00000  Uiso   1.00
N410   N     0.32482   0.77338   0.37512   0.00000  Uiso   1.00
N411   N     0.98091   0.10517   0.44856   0.00000  Uiso   1.00
N412   N     0.64632   0.83467   0.28426   0.00000  Uiso   1.00
N413   N     0.22559   0.71978   0.41624   0.00000  Uiso   1.00
N414   N     0.88168   0.05158   0.48969   0.00000  Uiso   1.00
C415   C     0.01958   0.49401   0.14558   0.00000  Uiso   1.00
C416   C     0.91986   0.51765   0.16680   0.00000  Uiso   1.00
C417   C     0.89423   0.50852   0.20700   0.00000  Uiso   1.00
C418   C     0.79937   0.53387   0.22068   0.00000  Uiso   1.00
C419   C     0.65470   0.56554   0.25754   0.00000  Uiso   1.00
C420   C     0.07491   0.54939   0.12775   0.00000  Uiso   1.00
C421   C     0.17966   0.56694   0.13510   0.00000  Uiso   1.00
C422   C     0.21533   0.61901   0.11590   0.00000  Uiso   1.00
C423   C     0.31141   0.69994   0.09210   0.00000  Uiso   1.00
C424   C     0.97977   0.45696   0.10986   0.00000  Uiso   1.00
C425   C     0.00453   0.39681   0.10215   0.00000  Uiso   1.00
C426   C     0.96011   0.37106   0.06788   0.00000  Uiso   1.00
C427   C     0.90846   0.30848   0.01631   0.00000  Uiso   1.00
C428   C     0.89668   0.55526   0.09841   0.00000  Uiso   1.00
C429   C     0.85311   0.55092   0.14118   0.00000  Uiso   1.00
C430   C     0.75825   0.57629   0.15481   0.00000  Uiso   1.00
C431   C     0.73249   0.56720   0.19501   0.00000  Uiso   1.00
C432   C     0.00816   0.58266   0.10213   0.00000  Uiso   1.00
C433   C     0.04368   0.63471   0.08291   0.00000  Uiso   1.00
C434   C     0.14845   0.65234   0.09023   0.00000  Uiso   1.00
C435   C     0.91301   0.49023   0.08423   0.00000  Uiso   1.00
C436   C     0.86855   0.46457   0.04997   0.00000  Uiso   1.00
C437   C     0.89323   0.40439   0.04222   0.00000  Uiso   1.00
H438   H     0.07156   0.46811   0.16552   0.00000  Uiso   1.00
H439   H     0.94592   0.48277   0.22682   0.00000  Uiso   1.00
H440   H     0.23130   0.54119   0.15492   0.00000  Uiso   1.00
H441   H     0.05619   0.37108   0.12199   0.00000  Uiso   1.00
H442   H     0.77720   0.51372   0.28347   0.00000  Uiso   1.00
H443   H     0.37896   0.63688   0.13187   0.00000  Uiso   1.00
H444   H     0.00972   0.27817   0.06242   0.00000  Uiso   1.00
H445   H     0.84471   0.58116   0.07846   0.00000  Uiso   1.00
H446   H     0.70661   0.60203   0.13497   0.00000  Uiso   1.00
H447   H     0.99200   0.66044   0.06308   0.00000  Uiso   1.00
H448   H     0.81689   0.49033   0.03014   0.00000  Uiso   1.00
H449   H     0.58297   0.61052   0.20893   0.00000  Uiso   1.00
H450   H     0.18474   0.73367   0.05733   0.00000  Uiso   1.00
H451   H     0.81549   0.37496   0.98788   0.00000  Uiso   1.00
O452   O     0.59335   0.57383   0.28496   0.00000  Uiso   1.00
O453   O     0.38285   0.73539   0.08606   0.00000  Uiso   1.00
O454   O     0.89840   0.26477   0.99494   0.00000  Uiso   1.00
N455   N     0.75043   0.53363   0.25817   0.00000  Uiso   1.00
N456   N     0.31304   0.64878   0.11644   0.00000  Uiso   1.00
N457   N     0.96784   0.31342   0.05150   0.00000  Uiso   1.00
N458   N     0.64591   0.58571   0.21806   0.00000  Uiso   1.00
N459   N     0.20852   0.70086   0.07633   0.00000  Uiso   1.00
N460   N     0.86333   0.36550   0.01139   0.00000  Uiso   1.00
C461   C     0.47423   0.57299   0.85198   0.00000  Uiso   1.00
C462   C     0.57571   0.59676   0.83204   0.00000  Uiso   1.00
C463   C     0.60576   0.58690   0.79236   0.00000  Uiso   1.00
C464   C     0.70155   0.61251   0.77986   0.00000  Uiso   1.00
C465   C     0.84947   0.64423   0.74489   0.00000  Uiso   1.00
C466   C     0.41607   0.62843   0.86840   0.00000  Uiso   1.00
C467   C     0.31188   0.64519   0.85931   0.00000  Uiso   1.00
C468   C     0.27328   0.69746   0.87743   0.00000  Uiso   1.00
C469   C     0.17331   0.77833   0.89894   0.00000  Uiso   1.00
C470   C     0.51086   0.53699   0.88864   0.00000  Uiso   1.00
C471   C     0.48636   0.47686   0.89657   0.00000  Uiso   1.00
C472   C     0.52755   0.45215   0.93174   0.00000  Uiso   1.00
C473   C     0.57476   0.39103   0.98467   0.00000  Uiso   1.00
C474   C     0.59091   0.63602   0.90034   0.00000  Uiso   1.00
C475   C     0.63909   0.63099   0.85830   0.00000  Uiso   1.00
C476   C     0.73487   0.65663   0.84586   0.00000  Uiso   1.00
C477   C     0.76505   0.64680   0.80617   0.00000  Uiso   1.00
C478   C     0.47944   0.66267   0.89467   0.00000  Uiso   1.00
C479   C     0.44098   0.71492   0.91281   0.00000  Uiso   1.00
C480   C     0.33677   0.73176   0.90374   0.00000  Uiso   1.00
C481   C     0.57424   0.57122   0.91491   0.00000  Uiso   1.00
C482   C     0.61547   0.54659   0.95007   0.00000  Uiso   1.00
C483   C     0.59104   0.48644   0.95805   0.00000  Uiso   1.00
H484   H     0.42488   0.54635   0.83153   0.00000  Uiso   1.00
H485   H     0.55669   0.56041   0.77204   0.00000  Uiso   1.00
H486   H     0.26285   0.61869   0.83898   0.00000  Uiso   1.00
H487   H     0.43731   0.45039   0.87623   0.00000  Uiso   1.00
H488   H     0.73075   0.59111   0.71766   0.00000  Uiso   1.00
H489   H     0.11117   0.71399   0.85882   0.00000  Uiso   1.00
H490   H     0.47904   0.35909   0.93738   0.00000  Uiso   1.00
H491   H     0.64026   0.66267   0.92079   0.00000  Uiso   1.00
H492   H     0.78389   0.68312   0.86620   0.00000  Uiso   1.00
H493   H     0.49005   0.74140   0.93314   0.00000  Uiso   1.00
H494   H     0.66451   0.57310   0.97039   0.00000  Uiso   1.00
H495   H     0.91516   0.69071   0.79408   0.00000  Uiso   1.00
H496   H     0.29557   0.81359   0.93525   0.00000  Uiso   1.00
H497   H     0.66345   0.45869   0.01380   0.00000  Uiso   1.00
O498   O     0.91354   0.65228   0.71834   0.00000  Uiso   1.00
O499   O     0.10066   0.81348   0.90355   0.00000  Uiso   1.00
O500   O     0.58331   0.34786   0.00661   0.00000  Uiso   1.00
N501   N     0.75445   0.61173   0.74314   0.00000  Uiso   1.00
N502   N     0.17518   0.72662   0.87512   0.00000  Uiso   1.00
N503   N     0.51909   0.39483   0.94856   0.00000  Uiso   1.00
N504   N     0.85368   0.66533   0.78426   0.00000  Uiso   1.00
N505   N     0.27441   0.78022   0.91624   0.00000  Uiso   1.00
N506   N     0.61832   0.44842   0.98969   0.00000  Uiso   1.00
C507   C     0.48042   0.00599   0.64558   0.00000  Uiso   1.00
C508   C     0.58014   0.98235   0.66680   0.00000  Uiso   1.00
C509   C     0.60577   0.99148   0.70700   0.00000  Uiso   1.00
C510   C     0.70063   0.96613   0.72068   0.00000  Uiso   1.00
C511   C     0.84530   0.93446   0.75754   0.00000  Uiso   1.00
C512   C     0.42509   0.95061   0.62775   0.00000  Uiso   1.00
C513   C     0.32034   0.93306   0.63510   0.00000  Uiso   1.00
C514   C     0.28467   0.88099   0.61590   0.00000  Uiso   1.00
C515   C     0.18859   0.80006   0.59210   0.00000  Uiso   1.00
C516   C     0.52023   0.04304   0.60986   0.00000  Uiso   1.00
C517   C     0.49547   0.10319   0.60215   0.00000  Uiso   1.00
C518   C     0.53989   0.12894   0.56788   0.00000  Uiso   1.00
C519   C     0.59154   0.19152   0.51631   0.00000  Uiso   1.00
C520   C     0.60332   0.94474   0.59841   0.00000  Uiso   1.00
C521   C     0.64689   0.94908   0.64118   0.00000  Uiso   1.00
C522   C     0.74175   0.92371   0.65481   0.00000  Uiso   1.00
C523   C     0.76751   0.93280   0.69501   0.00000  Uiso   1.00
C524   C     0.49184   0.91734   0.60213   0.00000  Uiso   1.00
C525   C     0.45632   0.86529   0.58291   0.00000  Uiso   1.00
C526   C     0.35155   0.84766   0.59023   0.00000  Uiso   1.00
C527   C     0.58699   0.00977   0.58423   0.00000  Uiso   1.00
C528   C     0.63145   0.03543   0.54997   0.00000  Uiso   1.00
C529   C     0.60677   0.09561   0.54222   0.00000  Uiso   1.00
H530   H     0.42844   0.03189   0.66552   0.00000  Uiso   1.00
H531   H     0.55408   0.01723   0.72682   0.00000  Uiso   1.00
H532   H     0.26870   0.95881   0.65492   0.00000  Uiso   1.00
H533   H     0.44381   0.12892   0.62199   0.00000  Uiso   1.00
H534   H     0.72280   0.98628   0.78347   0.00000  Uiso   1.00
H535   H     0.12104   0.86312   0.63187   0.00000  Uiso   1.00
H536   H     0.49028   0.22183   0.56242   0.00000  Uiso   1.00
H537   H     0.65529   0.91884   0.57846   0.00000  Uiso   1.00
H538   H     0.79339   0.89797   0.63497   0.00000  Uiso   1.00
H539   H     0.50800   0.83956   0.56308   0.00000  Uiso   1.00
H540   H     0.68311   0.00967   0.53014   0.00000  Uiso   1.00
H541   H     0.91703   0.88948   0.70893   0.00000  Uiso   1.00
H542   H     0.31526   0.76633   0.55733   0.00000  Uiso   1.00
H543   H     0.68451   0.12504   0.48788   0.00000  Uiso   1.00
O544   O     0.90665   0.92617   0.78496   0.00000  Uiso   1.00
O545   O     0.11715   0.76461   0.58606   0.00000  Uiso   1.00
O546   O     0.60160   0.23523   0.49494   0.00000  Uiso   1.00
N547   N     0.74957   0.96637   0.75817   0.00000  Uiso   1.00
N548   N     0.18696   0.85122   0.61644   0.00000  Uiso   1.00
N549   N     0.53216   0.18658   0.55150   0.00000  Uiso   1.00
N550   N     0.85409   0.91429   0.71806   0.00000  Uiso   1.00
N551   N     0.29148   0.79914   0.57633   0.00000  Uiso   1.00
N552   N     0.63667   0.13450   0.51139   0.00000  Uiso   1.00
C553   C     0.97423   0.92701   0.14802   0.00000  Uiso   1.00
C554   C     0.07571   0.90324   0.16796   0.00000  Uiso   1.00
C555   C     0.10576   0.91310   0.20764   0.00000  Uiso   1.00
C556   C     0.20155   0.88749   0.22014   0.00000  Uiso   1.00
C557   C     0.34947   0.85577   0.25511   0.00000  Uiso   1.00
C558   C     0.91607   0.87157   0.13160   0.00000  Uiso   1.00
C559   C     0.81188   0.85481   0.14069   0.00000  Uiso   1.00
C560   C     0.77328   0.80254   0.12257   0.00000  Uiso   1.00
C561   C     0.67331   0.72167   0.10106   0.00000  Uiso   1.00
C562   C     0.01086   0.96301   0.11136   0.00000  Uiso   1.00
C563   C     0.98636   0.02314   0.10343   0.00000  Uiso   1.00
C564   C     0.02755   0.04785   0.06826   0.00000  Uiso   1.00
C565   C     0.07476   0.10897   0.01533   0.00000  Uiso   1.00
C566   C     0.09091   0.86398   0.09966   0.00000  Uiso   1.00
C567   C     0.13909   0.86901   0.14170   0.00000  Uiso   1.00
C568   C     0.23487   0.84337   0.15414   0.00000  Uiso   1.00
C569   C     0.26505   0.85320   0.19383   0.00000  Uiso   1.00
C570   C     0.97944   0.83733   0.10533   0.00000  Uiso   1.00
C571   C     0.94098   0.78508   0.08719   0.00000  Uiso   1.00
C572   C     0.83677   0.76824   0.09626   0.00000  Uiso   1.00
C573   C     0.07424   0.92878   0.08509   0.00000  Uiso   1.00
C574   C     0.11547   0.95341   0.04993   0.00000  Uiso   1.00
C575   C     0.09104   0.01356   0.04195   0.00000  Uiso   1.00
H576   H     0.92488   0.95365   0.16847   0.00000  Uiso   1.00
H577   H     0.05669   0.93959   0.22796   0.00000  Uiso   1.00
H578   H     0.76285   0.88131   0.16102   0.00000  Uiso   1.00
H579   H     0.93731   0.04961   0.12377   0.00000  Uiso   1.00
H580   H     0.23075   0.90889   0.28234   0.00000  Uiso   1.00
H581   H     0.61117   0.78601   0.14118   0.00000  Uiso   1.00
H582   H     0.97904   0.14091   0.06262   0.00000  Uiso   1.00
H583   H     0.14026   0.83733   0.07921   0.00000  Uiso   1.00
H584   H     0.28389   0.81688   0.13380   0.00000  Uiso   1.00
H585   H     0.99005   0.75860   0.06686   0.00000  Uiso   1.00
H586   H     0.16451   0.92690   0.02961   0.00000  Uiso   1.00
H587   H     0.41516   0.80929   0.20592   0.00000  Uiso   1.00
H588   H     0.79557   0.68641   0.06475   0.00000  Uiso   1.00
H589   H     0.16345   0.04131   0.98620   0.00000  Uiso   1.00
O590   O     0.41354   0.84772   0.28166   0.00000  Uiso   1.00
O591   O     0.60066   0.68652   0.09645   0.00000  Uiso   1.00
O592   O     0.08331   0.15214   0.99339   0.00000  Uiso   1.00
N593   N     0.25445   0.88827   0.25686   0.00000  Uiso   1.00
N594   N     0.67518   0.77338   0.12488   0.00000  Uiso   1.00
N595   N     0.01909   0.10517   0.05144   0.00000  Uiso   1.00
N596   N     0.35368   0.83467   0.21574   0.00000  Uiso   1.00
N597   N     0.77441   0.71978   0.08376   0.00000  Uiso   1.00
N598   N     0.11832   0.05158   0.01031   0.00000  Uiso   1.00
C599   C     0.98042   0.49401   0.35442   0.00000  Uiso   1.00
C600   C     0.08014   0.51765   0.33320   0.00000  Uiso   1.00
C601   C     0.10577   0.50852   0.29300   0.00000  Uiso   1.00
C602   C     0.20063   0.53387   0.27932   0.00000  Uiso   1.00
C603   C     0.34530   0.56554   0.24246   0.00000  Uiso   1.00
C604   C     0.92509   0.54939   0.37225   0.00000  Uiso   1.00
C605   C     0.82034   0.56694   0.36490   0.00000  Uiso   1.00
C606   C     0.78467   0.61901   0.38410   0.00000  Uiso   1.00
C607   C     0.68859   0.69994   0.40790   0.00000  Uiso   1.00
C608   C     0.02023   0.45696   0.39014   0.00000  Uiso   1.00
C609   C     0.99547   0.39681   0.39785   0.00000  Uiso   1.00
C610   C     0.03989   0.37106   0.43212   0.00000  Uiso   1.00
C611   C     0.09154   0.30848   0.48369   0.00000  Uiso   1.00
C612   C     0.10332   0.55526   0.40159   0.00000  Uiso   1.00
C613   C     0.14689   0.55092   0.35882   0.00000  Uiso   1.00
C614   C     0.24175   0.57629   0.34519   0.00000  Uiso   1.00
C615   C     0.26751   0.56720   0.30499   0.00000  Uiso   1.00
C616   C     0.99184   0.58266   0.39787   0.00000  Uiso   1.00
C617   C     0.95632   0.63471   0.41709   0.00000  Uiso   1.00
C618   C     0.85155   0.65234   0.40977   0.00000  Uiso   1.00
C619   C     0.08699   0.49023   0.41577   0.00000  Uiso   1.00
C620   C     0.13145   0.46457   0.45003   0.00000  Uiso   1.00
C621   C     0.10677   0.40439   0.45778   0.00000  Uiso   1.00
H622   H     0.92844   0.46811   0.33448   0.00000  Uiso   1.00
H623   H     0.05408   0.48277   0.27318   0.00000  Uiso   1.00
H624   H     0.76870   0.54119   0.34508   0.00000  Uiso   1.00
H625   H     0.94381   0.37108   0.37801   0.00000  Uiso   1.00
H626   H     0.22280   0.51372   0.21653   0.00000  Uiso   1.00
H627   H     0.62104   0.63688   0.36813   0.00000  Uiso   1.00
H628   H     0.99028   0.27817   0.43758   0.00000  Uiso   1.00
H629   H     0.15529   0.58116   0.42154   0.00000  Uiso   1.00
H630   H     0.29339   0.60203   0.36503   0.00000  Uiso   1.00
H631   H     0.00800   0.66044   0.43692   0.00000  Uiso   1.00
H632   H     0.18311   0.49033   0.46986   0.00000  Uiso   1.00
H633   H     0.41703   0.61052   0.29107   0.00000  Uiso   1.00
H634   H     0.81526   0.73367   0.44267   0.00000  Uiso   1.00
H635   H     0.18451   0.37496   0.51212   0.00000  Uiso   1.00
O636   O     0.40665   0.57383   0.21504   0.00000  Uiso   1.00
O637   O     0.61715   0.73539   0.41394   0.00000  Uiso   1.00
O638   O     0.10160   0.26477   0.50506   0.00000  Uiso   1.00
N639   N     0.24957   0.53363   0.24183   0.00000  Uiso   1.00
N640   N     0.68696   0.64878   0.38356   0.00000  Uiso   1.00
N641   N     0.03216   0.31342   0.44850   0.00000  Uiso   1.00
N642   N     0.35409   0.58571   0.28194   0.00000  Uiso   1.00
N643   N     0.79148   0.70086   0.42367   0.00000  Uiso   1.00
N644   N     0.13667   0.36550   0.48861   0.00000  Uiso   1.00
C645   C     0.52577   0.57299   0.64802   0.00000  Uiso   1.00
C646   C     0.42429   0.59676   0.66796   0.00000  Uiso   1.00
C647   C     0.39424   0.58690   0.70764   0.00000  Uiso   1.00
C648   C     0.29845   0.61251   0.72014   0.00000  Uiso   1.00
C649   C     0.15053   0.64423   0.75511   0.00000  Uiso   1.00
C650   C     0.58393   0.62843   0.63160   0.00000  Uiso   1.00
C651   C     0.68812   0.64519   0.64069   0.00000  Uiso   1.00
C652   C     0.72672   0.69746   0.62257   0.00000  Uiso   1.00
C653   C     0.82669   0.77833   0.60106   0.00000  Uiso   1.00
C654   C     0.48914   0.53699   0.61136   0.00000  Uiso   1.00
C655   C     0.51364   0.47686   0.60343   0.00000  Uiso   1.00
C656   C     0.47245   0.45215   0.56826   0.00000  Uiso   1.00
C657   C     0.42524   0.39103   0.51533   0.00000  Uiso   1.00
C658   C     0.40909   0.63602   0.59966   0.00000  Uiso   1.00
C659   C     0.36091   0.63099   0.64170   0.00000  Uiso   1.00
C660   C     0.26513   0.65663   0.65414   0.00000  Uiso   1.00
C661   C     0.23495   0.64680   0.69383   0.00000  Uiso   1.00
C662   C     0.52056   0.66267   0.60533   0.00000  Uiso   1.00
C663   C     0.55902   0.71492   0.58719   0.00000  Uiso   1.00
C664   C     0.66323   0.73176   0.59626   0.00000  Uiso   1.00
C665   C     0.42576   0.57122   0.58509   0.00000  Uiso   1.00
C666   C     0.38453   0.54659   0.54993   0.00000  Uiso   1.00
C667   C     0.40896   0.48644   0.54195   0.00000  Uiso   1.00
H668   H     0.57512   0.54635   0.66847   0.00000  Uiso   1.00
H669   H     0.44331   0.56041   0.72796   0.00000  Uiso   1.00
H670   H     0.73715   0.61869   0.66102   0.00000  Uiso   1.00
H671   H     0.56269   0.45039   0.62377   0.00000  Uiso   1.00
H672   H     0.26925   0.59111   0.78234   0.00000  Uiso   1.00
H673   H     0.88883   0.71399   0.64118   0.00000  Uiso   1.00
H674   H     0.52096   0.35909   0.56262   0.00000  Uiso   1.00
H675   H     0.35974   0.66267   0.57921   0.00000  Uiso   1.00
H676   H     0.21611   0.68312   0.63380   0.00000  Uiso   1.00
H677   H     0.50995   0.74140   0.56686   0.00000  Uiso   1.00
H678   H     0.33549   0.57310   0.52961   0.00000  Uiso   1.00
H679   H     0.08484   0.69071   0.70592   0.00000  Uiso   1.00
H680   H     0.70443   0.81359   0.56475   0.00000  Uiso   1.00
H681   H     0.33655   0.45869   0.48620   0.00000  Uiso   1.00
O682   O     0.08646   0.65228   0.78166   0.00000  Uiso   1.00
O683   O     0.89934   0.81348   0.59645   0.00000  Uiso   1.00
O684   O     0.41669   0.34786   0.49339   0.00000  Uiso   1.00
N685   N     0.24555   0.61173   0.75686   0.00000  Uiso   1.00
N686   N     0.82482   0.72662   0.62488   0.00000  Uiso   1.00
N687   N     0.48091   0.39483   0.55144   0.00000  Uiso   1.00
N688   N     0.14632   0.66533   0.71574   0.00000  Uiso   1.00
N689   N     0.72559   0.78022   0.58376   0.00000  Uiso   1.00
N690   N     0.38168   0.44842   0.51031   0.00000  Uiso   1.00
C691   C     0.51958   0.00599   0.85442   0.00000  Uiso   1.00
C692   C     0.41986   0.98235   0.83320   0.00000  Uiso   1.00
C693   C     0.39423   0.99148   0.79300   0.00000  Uiso   1.00
C694   C     0.29937   0.96613   0.77932   0.00000  Uiso   1.00
C695   C     0.15470   0.93446   0.74246   0.00000  Uiso   1.00
C696   C     0.57491   0.95061   0.87225   0.00000  Uiso   1.00
C697   C     0.67966   0.93306   0.86490   0.00000  Uiso   1.00
C698   C     0.71533   0.88099   0.88410   0.00000  Uiso   1.00
C699   C     0.81141   0.80006   0.90790   0.00000  Uiso   1.00
C700   C     0.47977   0.04304   0.89014   0.00000  Uiso   1.00
C701   C     0.50453   0.10319   0.89785   0.00000  Uiso   1.00
C702   C     0.46011   0.12894   0.93212   0.00000  Uiso   1.00
C703   C     0.40846   0.19152   0.98369   0.00000  Uiso   1.00
C704   C     0.39668   0.94474   0.90159   0.00000  Uiso   1.00
C705   C     0.35311   0.94908   0.85882   0.00000  Uiso   1.00
C706   C     0.25825   0.92371   0.84519   0.00000  Uiso   1.00
C707   C     0.23249   0.93280   0.80499   0.00000  Uiso   1.00
C708   C     0.50816   0.91734   0.89787   0.00000  Uiso   1.00
C709   C     0.54368   0.86529   0.91709   0.00000  Uiso   1.00
C710   C     0.64845   0.84766   0.90977   0.00000  Uiso   1.00
C711   C     0.41301   0.00977   0.91577   0.00000  Uiso   1.00
C712   C     0.36855   0.03543   0.95003   0.00000  Uiso   1.00
C713   C     0.39323   0.09561   0.95778   0.00000  Uiso   1.00
H714   H     0.57156   0.03189   0.83448   0.00000  Uiso   1.00
H715   H     0.44592   0.01723   0.77318   0.00000  Uiso   1.00
H716   H     0.73130   0.95881   0.84508   0.00000  Uiso   1.00
H717   H     0.55619   0.12892   0.87801   0.00000  Uiso   1.00
H718   H     0.27720   0.98628   0.71653   0.00000  Uiso   1.00
H719   H     0.87896   0.86312   0.86813   0.00000  Uiso   1.00
H720   H     0.50972   0.22183   0.93758   0.00000  Uiso   1.00
H721   H     0.34471   0.91884   0.92154   0.00000  Uiso   1.00
H722   H     0.20661   0.89797   0.86503   0.00000  Uiso   1.00
H723   H     0.49200   0.83956   0.93692   0.00000  Uiso   1.00
H724   H     0.31689   0.00967   0.96986   0.00000  Uiso   1.00
H725   H     0.08297   0.88948   0.79107   0.00000  Uiso   1.00
H726   H     0.68474   0.76633   0.94267   0.00000  Uiso   1.00
H727   H     0.31549   0.12504   0.01212   0.00000  Uiso   1.00
O728   O     0.09335   0.92617   0.71504   0.00000  Uiso   1.00
O729   O     0.88285   0.76461   0.91394   0.00000  Uiso   1.00
O730   O     0.39840   0.23523   0.00506   0.00000  Uiso   1.00
N731   N     0.25043   0.96637   0.74183   0.00000  Uiso   1.00
N732   N     0.81304   0.85122   0.88356   0.00000  Uiso   1.00
N733   N     0.46784   0.18658   0.94850   0.00000  Uiso   1.00
N734   N     0.14591   0.91429   0.78194   0.00000  Uiso   1.00
N735   N     0.70852   0.79914   0.92367   0.00000  Uiso   1.00
N736   N     0.36333   0.13450   0.98861   0.00000  Uiso   1.00
