data_job_03659
_audit_creation_date              2018-12-19
_audit_creation_method            'Materials Studio'
_symmetry_space_group_name_H-M    'P1'
_symmetry_Int_Tables_number       1
_symmetry_cell_setting            triclinic
loop_
_symmetry_equiv_pos_as_xyz
  x,y,z
_cell_length_a                    22.6303
_cell_length_b                    19.1297
_cell_length_c                    30.1640
_cell_angle_alpha                 90.0000
_cell_angle_beta                  90.0000
_cell_angle_gamma                 90.0000
loop_
_atom_site_label
_atom_site_type_symbol
_atom_site_fract_x
_atom_site_fract_y
_atom_site_fract_z
_atom_site_U_iso_or_equiv
_atom_site_adp_type
_atom_site_occupancy
C1     C     0.50921   0.43930   0.33534   0.00000  Uiso   1.00
C2     C     0.44363   0.44033   0.32374   0.00000  Uiso   1.00
C3     C     0.41732   0.40427   0.28904   0.00000  Uiso   1.00
C4     C     0.35671   0.41207   0.28395   0.00000  Uiso   1.00
C5     C     0.25991   0.40726   0.26158   0.00000  Uiso   1.00
C6     C     0.52935   0.51537   0.33483   0.00000  Uiso   1.00
C7     C     0.57513   0.54238   0.30945   0.00000  Uiso   1.00
C8     C     0.58668   0.61335   0.31369   0.00000  Uiso   1.00
C9     C     0.62300   0.72502   0.30855   0.00000  Uiso   1.00
C10    C     0.51293   0.41566   0.38354   0.00000  Uiso   1.00
C11    C     0.54492   0.35884   0.39912   0.00000  Uiso   1.00
C12    C     0.54266   0.34587   0.44438   0.00000  Uiso   1.00
C13    C     0.55349   0.30273   0.51487   0.00000  Uiso   1.00
C14    C     0.44834   0.51730   0.38800   0.00000  Uiso   1.00
C15    C     0.41057   0.48270   0.35235   0.00000  Uiso   1.00
C16    C     0.34997   0.49056   0.34731   0.00000  Uiso   1.00
C17    C     0.32358   0.45451   0.31261   0.00000  Uiso   1.00
C18    C     0.49629   0.55773   0.36343   0.00000  Uiso   1.00
C19    C     0.50778   0.62868   0.36771   0.00000  Uiso   1.00
C20    C     0.55356   0.65579   0.34235   0.00000  Uiso   1.00
C21    C     0.47987   0.45802   0.41214   0.00000  Uiso   1.00
C22    C     0.47756   0.44514   0.45738   0.00000  Uiso   1.00
C23    C     0.50954   0.38832   0.47303   0.00000  Uiso   1.00
H24    H     0.53495   0.40632   0.31307   0.00000  Uiso   1.00
H25    H     0.44293   0.37149   0.26691   0.00000  Uiso   1.00
H26    H     0.60071   0.50958   0.28732   0.00000  Uiso   1.00
H27    H     0.57050   0.32607   0.37697   0.00000  Uiso   1.00
H28    H     0.32632   0.35158   0.22834   0.00000  Uiso   1.00
H29    H     0.65903   0.64274   0.27138   0.00000  Uiso   1.00
H30    H     0.59533   0.25578   0.46044   0.00000  Uiso   1.00
H31    H     0.42259   0.55029   0.41027   0.00000  Uiso   1.00
H32    H     0.32440   0.52335   0.36945   0.00000  Uiso   1.00
H33    H     0.48218   0.66145   0.38986   0.00000  Uiso   1.00
H34    H     0.45197   0.47794   0.47951   0.00000  Uiso   1.00
H35    H     0.23012   0.47484   0.31157   0.00000  Uiso   1.00
H36    H     0.56283   0.76601   0.35461   0.00000  Uiso   1.00
H37    H     0.49913   0.37904   0.54366   0.00000  Uiso   1.00
O38    O     0.21565   0.39291   0.24134   0.00000  Uiso   1.00
O39    O     0.65216   0.77491   0.29781   0.00000  Uiso   1.00
O40    O     0.56859   0.26722   0.54585   0.00000  Uiso   1.00
N41    N     0.31715   0.38427   0.25354   0.00000  Uiso   1.00
N42    N     0.62821   0.65650   0.29377   0.00000  Uiso   1.00
N43    N     0.56867   0.29473   0.47053   0.00000  Uiso   1.00
N44    N     0.26539   0.45060   0.29832   0.00000  Uiso   1.00
N45    N     0.57644   0.72282   0.33855   0.00000  Uiso   1.00
N46    N     0.51690   0.36105   0.51531   0.00000  Uiso   1.00
C47    C     0.00921   0.93930   0.83534   0.00000  Uiso   1.00
C48    C     0.94363   0.94033   0.82374   0.00000  Uiso   1.00
C49    C     0.91732   0.90427   0.78904   0.00000  Uiso   1.00
C50    C     0.85671   0.91207   0.78395   0.00000  Uiso   1.00
C51    C     0.75991   0.90726   0.76158   0.00000  Uiso   1.00
C52    C     0.02935   0.01537   0.83483   0.00000  Uiso   1.00
C53    C     0.07513   0.04238   0.80945   0.00000  Uiso   1.00
C54    C     0.08668   0.11335   0.81369   0.00000  Uiso   1.00
C55    C     0.12300   0.22502   0.80855   0.00000  Uiso   1.00
C56    C     0.01293   0.91566   0.88354   0.00000  Uiso   1.00
C57    C     0.04492   0.85884   0.89912   0.00000  Uiso   1.00
C58    C     0.04266   0.84587   0.94438   0.00000  Uiso   1.00
C59    C     0.05349   0.80273   0.01487   0.00000  Uiso   1.00
C60    C     0.94834   0.01730   0.88800   0.00000  Uiso   1.00
C61    C     0.91057   0.98270   0.85235   0.00000  Uiso   1.00
C62    C     0.84997   0.99056   0.84731   0.00000  Uiso   1.00
C63    C     0.82358   0.95451   0.81261   0.00000  Uiso   1.00
C64    C     0.99629   0.05773   0.86343   0.00000  Uiso   1.00
C65    C     0.00778   0.12868   0.86771   0.00000  Uiso   1.00
C66    C     0.05356   0.15579   0.84235   0.00000  Uiso   1.00
C67    C     0.97987   0.95802   0.91214   0.00000  Uiso   1.00
C68    C     0.97756   0.94514   0.95738   0.00000  Uiso   1.00
C69    C     0.00954   0.88832   0.97303   0.00000  Uiso   1.00
H70    H     0.03495   0.90632   0.81307   0.00000  Uiso   1.00
H71    H     0.94293   0.87149   0.76691   0.00000  Uiso   1.00
H72    H     0.10071   0.00958   0.78732   0.00000  Uiso   1.00
H73    H     0.07050   0.82607   0.87697   0.00000  Uiso   1.00
H74    H     0.82632   0.85158   0.72834   0.00000  Uiso   1.00
H75    H     0.15903   0.14274   0.77138   0.00000  Uiso   1.00
H76    H     0.09533   0.75578   0.96044   0.00000  Uiso   1.00
H77    H     0.92259   0.05029   0.91027   0.00000  Uiso   1.00
H78    H     0.82440   0.02335   0.86945   0.00000  Uiso   1.00
H79    H     0.98218   0.16145   0.88986   0.00000  Uiso   1.00
H80    H     0.95197   0.97794   0.97951   0.00000  Uiso   1.00
H81    H     0.73012   0.97484   0.81157   0.00000  Uiso   1.00
H82    H     0.06283   0.26601   0.85461   0.00000  Uiso   1.00
H83    H     0.99913   0.87904   0.04366   0.00000  Uiso   1.00
O84    O     0.71565   0.89291   0.74134   0.00000  Uiso   1.00
O85    O     0.15216   0.27491   0.79781   0.00000  Uiso   1.00
O86    O     0.06859   0.76722   0.04585   0.00000  Uiso   1.00
N87    N     0.81715   0.88427   0.75354   0.00000  Uiso   1.00
N88    N     0.12821   0.15650   0.79377   0.00000  Uiso   1.00
N89    N     0.06867   0.79473   0.97053   0.00000  Uiso   1.00
N90    N     0.76539   0.95060   0.79832   0.00000  Uiso   1.00
N91    N     0.07644   0.22282   0.83855   0.00000  Uiso   1.00
N92    N     0.01690   0.86105   0.01531   0.00000  Uiso   1.00
C93    C     0.99079   0.56070   0.83534   0.00000  Uiso   1.00
C94    C     0.05637   0.55967   0.82374   0.00000  Uiso   1.00
C95    C     0.08268   0.59573   0.78904   0.00000  Uiso   1.00
C96    C     0.14329   0.58793   0.78395   0.00000  Uiso   1.00
C97    C     0.24009   0.59274   0.76158   0.00000  Uiso   1.00
C98    C     0.97065   0.48463   0.83483   0.00000  Uiso   1.00
C99    C     0.92487   0.45762   0.80945   0.00000  Uiso   1.00
C100   C     0.91332   0.38665   0.81369   0.00000  Uiso   1.00
C101   C     0.87700   0.27498   0.80855   0.00000  Uiso   1.00
C102   C     0.98707   0.58434   0.88354   0.00000  Uiso   1.00
C103   C     0.95508   0.64116   0.89912   0.00000  Uiso   1.00
C104   C     0.95734   0.65413   0.94438   0.00000  Uiso   1.00
C105   C     0.94651   0.69727   0.01487   0.00000  Uiso   1.00
C106   C     0.05166   0.48270   0.88800   0.00000  Uiso   1.00
C107   C     0.08943   0.51730   0.85235   0.00000  Uiso   1.00
C108   C     0.15003   0.50944   0.84731   0.00000  Uiso   1.00
C109   C     0.17642   0.54549   0.81261   0.00000  Uiso   1.00
C110   C     0.00371   0.44227   0.86343   0.00000  Uiso   1.00
C111   C     0.99222   0.37132   0.86771   0.00000  Uiso   1.00
C112   C     0.94644   0.34421   0.84235   0.00000  Uiso   1.00
C113   C     0.02013   0.54198   0.91214   0.00000  Uiso   1.00
C114   C     0.02244   0.55486   0.95738   0.00000  Uiso   1.00
C115   C     0.99046   0.61168   0.97303   0.00000  Uiso   1.00
H116   H     0.96505   0.59368   0.81307   0.00000  Uiso   1.00
H117   H     0.05707   0.62851   0.76691   0.00000  Uiso   1.00
H118   H     0.89929   0.49042   0.78732   0.00000  Uiso   1.00
H119   H     0.92950   0.67393   0.87697   0.00000  Uiso   1.00
H120   H     0.17368   0.64842   0.72834   0.00000  Uiso   1.00
H121   H     0.84097   0.35726   0.77138   0.00000  Uiso   1.00
H122   H     0.90467   0.74422   0.96044   0.00000  Uiso   1.00
H123   H     0.07741   0.44971   0.91027   0.00000  Uiso   1.00
H124   H     0.17560   0.47665   0.86945   0.00000  Uiso   1.00
H125   H     0.01782   0.33855   0.88986   0.00000  Uiso   1.00
H126   H     0.04803   0.52206   0.97951   0.00000  Uiso   1.00
H127   H     0.26988   0.52516   0.81157   0.00000  Uiso   1.00
H128   H     0.93717   0.23399   0.85461   0.00000  Uiso   1.00
H129   H     0.00087   0.62096   0.04366   0.00000  Uiso   1.00
O130   O     0.28435   0.60709   0.74134   0.00000  Uiso   1.00
O131   O     0.84784   0.22509   0.79781   0.00000  Uiso   1.00
O132   O     0.93141   0.73278   0.04585   0.00000  Uiso   1.00
N133   N     0.18285   0.61573   0.75354   0.00000  Uiso   1.00
N134   N     0.87179   0.34350   0.79377   0.00000  Uiso   1.00
N135   N     0.93133   0.70527   0.97053   0.00000  Uiso   1.00
N136   N     0.23461   0.54940   0.79832   0.00000  Uiso   1.00
N137   N     0.92356   0.27718   0.83855   0.00000  Uiso   1.00
N138   N     0.98310   0.63895   0.01531   0.00000  Uiso   1.00
C139   C     0.49079   0.06070   0.33534   0.00000  Uiso   1.00
C140   C     0.55637   0.05967   0.32374   0.00000  Uiso   1.00
C141   C     0.58268   0.09573   0.28904   0.00000  Uiso   1.00
C142   C     0.64329   0.08793   0.28395   0.00000  Uiso   1.00
C143   C     0.74009   0.09274   0.26158   0.00000  Uiso   1.00
C144   C     0.47065   0.98463   0.33483   0.00000  Uiso   1.00
C145   C     0.42487   0.95762   0.30945   0.00000  Uiso   1.00
C146   C     0.41332   0.88665   0.31369   0.00000  Uiso   1.00
C147   C     0.37700   0.77498   0.30855   0.00000  Uiso   1.00
C148   C     0.48707   0.08434   0.38354   0.00000  Uiso   1.00
C149   C     0.45508   0.14116   0.39912   0.00000  Uiso   1.00
C150   C     0.45734   0.15413   0.44438   0.00000  Uiso   1.00
C151   C     0.44651   0.19727   0.51487   0.00000  Uiso   1.00
C152   C     0.55166   0.98270   0.38800   0.00000  Uiso   1.00
C153   C     0.58943   0.01730   0.35235   0.00000  Uiso   1.00
C154   C     0.65003   0.00944   0.34731   0.00000  Uiso   1.00
C155   C     0.67642   0.04549   0.31261   0.00000  Uiso   1.00
C156   C     0.50371   0.94227   0.36343   0.00000  Uiso   1.00
C157   C     0.49222   0.87132   0.36771   0.00000  Uiso   1.00
C158   C     0.44644   0.84421   0.34235   0.00000  Uiso   1.00
C159   C     0.52013   0.04198   0.41214   0.00000  Uiso   1.00
C160   C     0.52244   0.05486   0.45738   0.00000  Uiso   1.00
C161   C     0.49046   0.11168   0.47303   0.00000  Uiso   1.00
H162   H     0.46505   0.09368   0.31307   0.00000  Uiso   1.00
H163   H     0.55707   0.12851   0.26691   0.00000  Uiso   1.00
H164   H     0.39929   0.99042   0.28732   0.00000  Uiso   1.00
H165   H     0.42950   0.17393   0.37697   0.00000  Uiso   1.00
H166   H     0.67368   0.14842   0.22834   0.00000  Uiso   1.00
H167   H     0.34097   0.85726   0.27138   0.00000  Uiso   1.00
H168   H     0.40467   0.24422   0.46044   0.00000  Uiso   1.00
H169   H     0.57741   0.94971   0.41027   0.00000  Uiso   1.00
H170   H     0.67560   0.97665   0.36945   0.00000  Uiso   1.00
H171   H     0.51782   0.83855   0.38986   0.00000  Uiso   1.00
H172   H     0.54803   0.02206   0.47951   0.00000  Uiso   1.00
H173   H     0.76988   0.02516   0.31157   0.00000  Uiso   1.00
H174   H     0.43717   0.73399   0.35461   0.00000  Uiso   1.00
H175   H     0.50087   0.12096   0.54366   0.00000  Uiso   1.00
O176   O     0.78435   0.10709   0.24134   0.00000  Uiso   1.00
O177   O     0.34784   0.72509   0.29781   0.00000  Uiso   1.00
O178   O     0.43141   0.23278   0.54585   0.00000  Uiso   1.00
N179   N     0.68285   0.11573   0.25354   0.00000  Uiso   1.00
N180   N     0.37179   0.84350   0.29377   0.00000  Uiso   1.00
N181   N     0.43133   0.20527   0.47053   0.00000  Uiso   1.00
N182   N     0.73461   0.04940   0.29832   0.00000  Uiso   1.00
N183   N     0.42356   0.77718   0.33855   0.00000  Uiso   1.00
N184   N     0.48310   0.13895   0.51531   0.00000  Uiso   1.00
C185   C     0.49079   0.93930   0.16466   0.00000  Uiso   1.00
C186   C     0.55637   0.94033   0.17626   0.00000  Uiso   1.00
C187   C     0.58268   0.90427   0.21096   0.00000  Uiso   1.00
C188   C     0.64329   0.91207   0.21605   0.00000  Uiso   1.00
C189   C     0.74009   0.90726   0.23842   0.00000  Uiso   1.00
C190   C     0.47065   0.01537   0.16517   0.00000  Uiso   1.00
C191   C     0.42487   0.04238   0.19055   0.00000  Uiso   1.00
C192   C     0.41332   0.11335   0.18631   0.00000  Uiso   1.00
C193   C     0.37700   0.22502   0.19145   0.00000  Uiso   1.00
C194   C     0.48707   0.91566   0.11646   0.00000  Uiso   1.00
C195   C     0.45508   0.85884   0.10088   0.00000  Uiso   1.00
C196   C     0.45734   0.84587   0.05562   0.00000  Uiso   1.00
C197   C     0.44651   0.80273   0.98513   0.00000  Uiso   1.00
C198   C     0.55166   0.01730   0.11200   0.00000  Uiso   1.00
C199   C     0.58943   0.98270   0.14765   0.00000  Uiso   1.00
C200   C     0.65003   0.99056   0.15269   0.00000  Uiso   1.00
C201   C     0.67642   0.95451   0.18739   0.00000  Uiso   1.00
C202   C     0.50371   0.05773   0.13657   0.00000  Uiso   1.00
C203   C     0.49222   0.12868   0.13229   0.00000  Uiso   1.00
C204   C     0.44644   0.15579   0.15765   0.00000  Uiso   1.00
C205   C     0.52013   0.95802   0.08786   0.00000  Uiso   1.00
C206   C     0.52244   0.94514   0.04262   0.00000  Uiso   1.00
C207   C     0.49046   0.88832   0.02697   0.00000  Uiso   1.00
H208   H     0.46505   0.90632   0.18693   0.00000  Uiso   1.00
H209   H     0.55707   0.87149   0.23309   0.00000  Uiso   1.00
H210   H     0.39929   0.00958   0.21268   0.00000  Uiso   1.00
H211   H     0.42950   0.82607   0.12303   0.00000  Uiso   1.00
H212   H     0.67368   0.85158   0.27166   0.00000  Uiso   1.00
H213   H     0.34097   0.14274   0.22862   0.00000  Uiso   1.00
H214   H     0.40467   0.75578   0.03956   0.00000  Uiso   1.00
H215   H     0.57741   0.05029   0.08973   0.00000  Uiso   1.00
H216   H     0.67560   0.02335   0.13055   0.00000  Uiso   1.00
H217   H     0.51782   0.16145   0.11014   0.00000  Uiso   1.00
H218   H     0.54803   0.97794   0.02049   0.00000  Uiso   1.00
H219   H     0.76988   0.97484   0.18843   0.00000  Uiso   1.00
H220   H     0.43717   0.26601   0.14539   0.00000  Uiso   1.00
H221   H     0.50087   0.87904   0.95634   0.00000  Uiso   1.00
O222   O     0.78435   0.89291   0.25866   0.00000  Uiso   1.00
O223   O     0.34784   0.27491   0.20219   0.00000  Uiso   1.00
O224   O     0.43141   0.76722   0.95415   0.00000  Uiso   1.00
N225   N     0.68285   0.88427   0.24646   0.00000  Uiso   1.00
N226   N     0.37179   0.15650   0.20623   0.00000  Uiso   1.00
N227   N     0.43133   0.79473   0.02947   0.00000  Uiso   1.00
N228   N     0.73461   0.95060   0.20168   0.00000  Uiso   1.00
N229   N     0.42356   0.22282   0.16145   0.00000  Uiso   1.00
N230   N     0.48310   0.86105   0.98469   0.00000  Uiso   1.00
C231   C     0.99079   0.43930   0.66466   0.00000  Uiso   1.00
C232   C     0.05637   0.44033   0.67626   0.00000  Uiso   1.00
C233   C     0.08268   0.40427   0.71096   0.00000  Uiso   1.00
C234   C     0.14329   0.41207   0.71605   0.00000  Uiso   1.00
C235   C     0.24009   0.40726   0.73842   0.00000  Uiso   1.00
C236   C     0.97065   0.51537   0.66517   0.00000  Uiso   1.00
C237   C     0.92487   0.54238   0.69055   0.00000  Uiso   1.00
C238   C     0.91332   0.61335   0.68631   0.00000  Uiso   1.00
C239   C     0.87700   0.72502   0.69145   0.00000  Uiso   1.00
C240   C     0.98707   0.41566   0.61646   0.00000  Uiso   1.00
C241   C     0.95508   0.35884   0.60088   0.00000  Uiso   1.00
C242   C     0.95734   0.34587   0.55562   0.00000  Uiso   1.00
C243   C     0.94651   0.30273   0.48513   0.00000  Uiso   1.00
C244   C     0.05166   0.51730   0.61200   0.00000  Uiso   1.00
C245   C     0.08943   0.48270   0.64765   0.00000  Uiso   1.00
C246   C     0.15003   0.49056   0.65269   0.00000  Uiso   1.00
C247   C     0.17642   0.45451   0.68739   0.00000  Uiso   1.00
C248   C     0.00371   0.55773   0.63657   0.00000  Uiso   1.00
C249   C     0.99222   0.62868   0.63229   0.00000  Uiso   1.00
C250   C     0.94644   0.65579   0.65765   0.00000  Uiso   1.00
C251   C     0.02013   0.45802   0.58786   0.00000  Uiso   1.00
C252   C     0.02244   0.44514   0.54262   0.00000  Uiso   1.00
C253   C     0.99046   0.38832   0.52697   0.00000  Uiso   1.00
H254   H     0.96505   0.40632   0.68693   0.00000  Uiso   1.00
H255   H     0.05707   0.37149   0.73309   0.00000  Uiso   1.00
H256   H     0.89929   0.50958   0.71268   0.00000  Uiso   1.00
H257   H     0.92950   0.32607   0.62303   0.00000  Uiso   1.00
H258   H     0.17368   0.35158   0.77166   0.00000  Uiso   1.00
H259   H     0.84097   0.64274   0.72862   0.00000  Uiso   1.00
H260   H     0.90467   0.25578   0.53956   0.00000  Uiso   1.00
H261   H     0.07741   0.55029   0.58973   0.00000  Uiso   1.00
H262   H     0.17560   0.52335   0.63055   0.00000  Uiso   1.00
H263   H     0.01782   0.66145   0.61014   0.00000  Uiso   1.00
H264   H     0.04803   0.47794   0.52049   0.00000  Uiso   1.00
H265   H     0.26988   0.47484   0.68843   0.00000  Uiso   1.00
H266   H     0.93717   0.76601   0.64539   0.00000  Uiso   1.00
H267   H     0.00087   0.37904   0.45634   0.00000  Uiso   1.00
O268   O     0.28435   0.39291   0.75866   0.00000  Uiso   1.00
O269   O     0.84784   0.77491   0.70219   0.00000  Uiso   1.00
O270   O     0.93141   0.26722   0.45415   0.00000  Uiso   1.00
N271   N     0.18285   0.38427   0.74646   0.00000  Uiso   1.00
N272   N     0.87179   0.65650   0.70623   0.00000  Uiso   1.00
N273   N     0.93133   0.29473   0.52947   0.00000  Uiso   1.00
N274   N     0.23461   0.45060   0.70168   0.00000  Uiso   1.00
N275   N     0.92356   0.72282   0.66145   0.00000  Uiso   1.00
N276   N     0.98310   0.36105   0.48469   0.00000  Uiso   1.00
C277   C     0.00921   0.06070   0.66466   0.00000  Uiso   1.00
C278   C     0.94363   0.05967   0.67626   0.00000  Uiso   1.00
C279   C     0.91732   0.09573   0.71096   0.00000  Uiso   1.00
C280   C     0.85671   0.08793   0.71605   0.00000  Uiso   1.00
C281   C     0.75991   0.09274   0.73842   0.00000  Uiso   1.00
C282   C     0.02935   0.98463   0.66517   0.00000  Uiso   1.00
C283   C     0.07513   0.95762   0.69055   0.00000  Uiso   1.00
C284   C     0.08668   0.88665   0.68631   0.00000  Uiso   1.00
C285   C     0.12300   0.77498   0.69145   0.00000  Uiso   1.00
C286   C     0.01293   0.08434   0.61646   0.00000  Uiso   1.00
C287   C     0.04492   0.14116   0.60088   0.00000  Uiso   1.00
C288   C     0.04266   0.15413   0.55562   0.00000  Uiso   1.00
C289   C     0.05349   0.19727   0.48513   0.00000  Uiso   1.00
C290   C     0.94834   0.98270   0.61200   0.00000  Uiso   1.00
C291   C     0.91057   0.01730   0.64765   0.00000  Uiso   1.00
C292   C     0.84997   0.00944   0.65269   0.00000  Uiso   1.00
C293   C     0.82358   0.04549   0.68739   0.00000  Uiso   1.00
C294   C     0.99629   0.94227   0.63657   0.00000  Uiso   1.00
C295   C     0.00778   0.87132   0.63229   0.00000  Uiso   1.00
C296   C     0.05356   0.84421   0.65765   0.00000  Uiso   1.00
C297   C     0.97987   0.04198   0.58786   0.00000  Uiso   1.00
C298   C     0.97756   0.05486   0.54262   0.00000  Uiso   1.00
C299   C     0.00954   0.11168   0.52697   0.00000  Uiso   1.00
H300   H     0.03495   0.09368   0.68693   0.00000  Uiso   1.00
H301   H     0.94293   0.12851   0.73309   0.00000  Uiso   1.00
H302   H     0.10071   0.99042   0.71268   0.00000  Uiso   1.00
H303   H     0.07050   0.17393   0.62303   0.00000  Uiso   1.00
H304   H     0.82632   0.14842   0.77166   0.00000  Uiso   1.00
H305   H     0.15903   0.85726   0.72862   0.00000  Uiso   1.00
H306   H     0.09533   0.24422   0.53956   0.00000  Uiso   1.00
H307   H     0.92259   0.94971   0.58973   0.00000  Uiso   1.00
H308   H     0.82440   0.97665   0.63055   0.00000  Uiso   1.00
H309   H     0.98218   0.83855   0.61014   0.00000  Uiso   1.00
H310   H     0.95197   0.02206   0.52049   0.00000  Uiso   1.00
H311   H     0.73012   0.02516   0.68843   0.00000  Uiso   1.00
H312   H     0.06283   0.73399   0.64539   0.00000  Uiso   1.00
H313   H     0.99913   0.12096   0.45634   0.00000  Uiso   1.00
O314   O     0.71565   0.10709   0.75866   0.00000  Uiso   1.00
O315   O     0.15216   0.72509   0.70219   0.00000  Uiso   1.00
O316   O     0.06859   0.23278   0.45415   0.00000  Uiso   1.00
N317   N     0.81715   0.11573   0.74646   0.00000  Uiso   1.00
N318   N     0.12821   0.84350   0.70623   0.00000  Uiso   1.00
N319   N     0.06867   0.20527   0.52947   0.00000  Uiso   1.00
N320   N     0.76539   0.04940   0.70168   0.00000  Uiso   1.00
N321   N     0.07644   0.77718   0.66145   0.00000  Uiso   1.00
N322   N     0.01690   0.13895   0.48469   0.00000  Uiso   1.00
C323   C     0.50921   0.56070   0.16466   0.00000  Uiso   1.00
C324   C     0.44363   0.55967   0.17626   0.00000  Uiso   1.00
C325   C     0.41732   0.59573   0.21096   0.00000  Uiso   1.00
C326   C     0.35671   0.58793   0.21605   0.00000  Uiso   1.00
C327   C     0.25991   0.59274   0.23842   0.00000  Uiso   1.00
C328   C     0.52935   0.48463   0.16517   0.00000  Uiso   1.00
C329   C     0.57513   0.45762   0.19055   0.00000  Uiso   1.00
C330   C     0.58668   0.38665   0.18631   0.00000  Uiso   1.00
C331   C     0.62300   0.27498   0.19145   0.00000  Uiso   1.00
C332   C     0.51293   0.58434   0.11646   0.00000  Uiso   1.00
C333   C     0.54492   0.64116   0.10088   0.00000  Uiso   1.00
C334   C     0.54266   0.65413   0.05562   0.00000  Uiso   1.00
C335   C     0.55349   0.69727   0.98513   0.00000  Uiso   1.00
C336   C     0.44834   0.48270   0.11200   0.00000  Uiso   1.00
C337   C     0.41057   0.51730   0.14765   0.00000  Uiso   1.00
C338   C     0.34997   0.50944   0.15269   0.00000  Uiso   1.00
C339   C     0.32358   0.54549   0.18739   0.00000  Uiso   1.00
C340   C     0.49629   0.44227   0.13657   0.00000  Uiso   1.00
C341   C     0.50778   0.37132   0.13229   0.00000  Uiso   1.00
C342   C     0.55356   0.34421   0.15765   0.00000  Uiso   1.00
C343   C     0.47987   0.54198   0.08786   0.00000  Uiso   1.00
C344   C     0.47756   0.55486   0.04262   0.00000  Uiso   1.00
C345   C     0.50954   0.61168   0.02697   0.00000  Uiso   1.00
H346   H     0.53495   0.59368   0.18693   0.00000  Uiso   1.00
H347   H     0.44293   0.62851   0.23309   0.00000  Uiso   1.00
H348   H     0.60071   0.49042   0.21268   0.00000  Uiso   1.00
H349   H     0.57050   0.67393   0.12303   0.00000  Uiso   1.00
H350   H     0.32632   0.64842   0.27166   0.00000  Uiso   1.00
H351   H     0.65903   0.35726   0.22862   0.00000  Uiso   1.00
H352   H     0.59533   0.74422   0.03956   0.00000  Uiso   1.00
H353   H     0.42259   0.44971   0.08973   0.00000  Uiso   1.00
H354   H     0.32440   0.47665   0.13055   0.00000  Uiso   1.00
H355   H     0.48218   0.33855   0.11014   0.00000  Uiso   1.00
H356   H     0.45197   0.52206   0.02049   0.00000  Uiso   1.00
H357   H     0.23012   0.52516   0.18843   0.00000  Uiso   1.00
H358   H     0.56283   0.23399   0.14539   0.00000  Uiso   1.00
H359   H     0.49913   0.62096   0.95634   0.00000  Uiso   1.00
O360   O     0.21565   0.60709   0.25866   0.00000  Uiso   1.00
O361   O     0.65216   0.22509   0.20219   0.00000  Uiso   1.00
O362   O     0.56859   0.73278   0.95415   0.00000  Uiso   1.00
N363   N     0.31715   0.61573   0.24646   0.00000  Uiso   1.00
N364   N     0.62821   0.34350   0.20623   0.00000  Uiso   1.00
N365   N     0.56867   0.70527   0.02947   0.00000  Uiso   1.00
N366   N     0.26539   0.54940   0.20168   0.00000  Uiso   1.00
N367   N     0.57644   0.27718   0.16145   0.00000  Uiso   1.00
N368   N     0.51690   0.63895   0.98469   0.00000  Uiso   1.00
C369   C     0.49079   0.56070   0.66466   0.00000  Uiso   1.00
C370   C     0.55637   0.55967   0.67626   0.00000  Uiso   1.00
C371   C     0.58268   0.59573   0.71096   0.00000  Uiso   1.00
C372   C     0.64329   0.58793   0.71605   0.00000  Uiso   1.00
C373   C     0.74009   0.59274   0.73842   0.00000  Uiso   1.00
C374   C     0.47065   0.48463   0.66517   0.00000  Uiso   1.00
C375   C     0.42487   0.45762   0.69055   0.00000  Uiso   1.00
C376   C     0.41332   0.38665   0.68631   0.00000  Uiso   1.00
C377   C     0.37700   0.27498   0.69145   0.00000  Uiso   1.00
C378   C     0.48707   0.58434   0.61646   0.00000  Uiso   1.00
C379   C     0.45508   0.64116   0.60088   0.00000  Uiso   1.00
C380   C     0.45734   0.65413   0.55562   0.00000  Uiso   1.00
C381   C     0.44651   0.69727   0.48513   0.00000  Uiso   1.00
C382   C     0.55166   0.48270   0.61200   0.00000  Uiso   1.00
C383   C     0.58943   0.51730   0.64765   0.00000  Uiso   1.00
C384   C     0.65003   0.50944   0.65269   0.00000  Uiso   1.00
C385   C     0.67642   0.54549   0.68739   0.00000  Uiso   1.00
C386   C     0.50371   0.44227   0.63657   0.00000  Uiso   1.00
C387   C     0.49222   0.37132   0.63229   0.00000  Uiso   1.00
C388   C     0.44644   0.34421   0.65765   0.00000  Uiso   1.00
C389   C     0.52013   0.54198   0.58786   0.00000  Uiso   1.00
C390   C     0.52244   0.55486   0.54262   0.00000  Uiso   1.00
C391   C     0.49046   0.61168   0.52697   0.00000  Uiso   1.00
H392   H     0.46505   0.59368   0.68693   0.00000  Uiso   1.00
H393   H     0.55707   0.62851   0.73309   0.00000  Uiso   1.00
H394   H     0.39929   0.49042   0.71268   0.00000  Uiso   1.00
H395   H     0.42950   0.67393   0.62303   0.00000  Uiso   1.00
H396   H     0.67368   0.64842   0.77166   0.00000  Uiso   1.00
H397   H     0.34097   0.35726   0.72862   0.00000  Uiso   1.00
H398   H     0.40467   0.74422   0.53956   0.00000  Uiso   1.00
H399   H     0.57741   0.44971   0.58973   0.00000  Uiso   1.00
H400   H     0.67560   0.47665   0.63055   0.00000  Uiso   1.00
H401   H     0.51782   0.33855   0.61014   0.00000  Uiso   1.00
H402   H     0.54803   0.52206   0.52049   0.00000  Uiso   1.00
H403   H     0.76988   0.52516   0.68843   0.00000  Uiso   1.00
H404   H     0.43717   0.23399   0.64539   0.00000  Uiso   1.00
H405   H     0.50087   0.62096   0.45634   0.00000  Uiso   1.00
O406   O     0.78435   0.60709   0.75866   0.00000  Uiso   1.00
O407   O     0.34784   0.22509   0.70219   0.00000  Uiso   1.00
O408   O     0.43141   0.73278   0.45415   0.00000  Uiso   1.00
N409   N     0.68285   0.61573   0.74646   0.00000  Uiso   1.00
N410   N     0.37179   0.34350   0.70623   0.00000  Uiso   1.00
N411   N     0.43133   0.70527   0.52947   0.00000  Uiso   1.00
N412   N     0.73461   0.54940   0.70168   0.00000  Uiso   1.00
N413   N     0.42356   0.27718   0.66145   0.00000  Uiso   1.00
N414   N     0.48310   0.63895   0.48469   0.00000  Uiso   1.00
C415   C     0.99079   0.06070   0.16466   0.00000  Uiso   1.00
C416   C     0.05637   0.05967   0.17626   0.00000  Uiso   1.00
C417   C     0.08268   0.09573   0.21096   0.00000  Uiso   1.00
C418   C     0.14329   0.08793   0.21605   0.00000  Uiso   1.00
C419   C     0.24009   0.09274   0.23842   0.00000  Uiso   1.00
C420   C     0.97065   0.98463   0.16517   0.00000  Uiso   1.00
C421   C     0.92487   0.95762   0.19055   0.00000  Uiso   1.00
C422   C     0.91332   0.88665   0.18631   0.00000  Uiso   1.00
C423   C     0.87700   0.77498   0.19145   0.00000  Uiso   1.00
C424   C     0.98707   0.08434   0.11646   0.00000  Uiso   1.00
C425   C     0.95508   0.14116   0.10088   0.00000  Uiso   1.00
C426   C     0.95734   0.15413   0.05562   0.00000  Uiso   1.00
C427   C     0.94651   0.19727   0.98513   0.00000  Uiso   1.00
C428   C     0.05166   0.98270   0.11200   0.00000  Uiso   1.00
C429   C     0.08943   0.01730   0.14765   0.00000  Uiso   1.00
C430   C     0.15003   0.00944   0.15269   0.00000  Uiso   1.00
C431   C     0.17642   0.04549   0.18739   0.00000  Uiso   1.00
C432   C     0.00371   0.94227   0.13657   0.00000  Uiso   1.00
C433   C     0.99222   0.87132   0.13229   0.00000  Uiso   1.00
C434   C     0.94644   0.84421   0.15765   0.00000  Uiso   1.00
C435   C     0.02013   0.04198   0.08786   0.00000  Uiso   1.00
C436   C     0.02244   0.05486   0.04262   0.00000  Uiso   1.00
C437   C     0.99046   0.11168   0.02697   0.00000  Uiso   1.00
H438   H     0.96505   0.09368   0.18693   0.00000  Uiso   1.00
H439   H     0.05707   0.12851   0.23309   0.00000  Uiso   1.00
H440   H     0.89929   0.99042   0.21268   0.00000  Uiso   1.00
H441   H     0.92950   0.17393   0.12303   0.00000  Uiso   1.00
H442   H     0.17368   0.14842   0.27166   0.00000  Uiso   1.00
H443   H     0.84097   0.85726   0.22862   0.00000  Uiso   1.00
H444   H     0.90467   0.24422   0.03956   0.00000  Uiso   1.00
H445   H     0.07741   0.94971   0.08973   0.00000  Uiso   1.00
H446   H     0.17560   0.97665   0.13055   0.00000  Uiso   1.00
H447   H     0.01782   0.83855   0.11014   0.00000  Uiso   1.00
H448   H     0.04803   0.02206   0.02049   0.00000  Uiso   1.00
H449   H     0.26988   0.02516   0.18843   0.00000  Uiso   1.00
H450   H     0.93717   0.73399   0.14539   0.00000  Uiso   1.00
H451   H     0.00087   0.12096   0.95634   0.00000  Uiso   1.00
O452   O     0.28435   0.10709   0.25866   0.00000  Uiso   1.00
O453   O     0.84784   0.72509   0.20219   0.00000  Uiso   1.00
O454   O     0.93141   0.23278   0.95415   0.00000  Uiso   1.00
N455   N     0.18285   0.11573   0.24646   0.00000  Uiso   1.00
N456   N     0.87179   0.84350   0.20623   0.00000  Uiso   1.00
N457   N     0.93133   0.20527   0.02947   0.00000  Uiso   1.00
N458   N     0.23461   0.04940   0.20168   0.00000  Uiso   1.00
N459   N     0.92356   0.77718   0.16145   0.00000  Uiso   1.00
N460   N     0.98310   0.13895   0.98469   0.00000  Uiso   1.00
C461   C     0.00921   0.43930   0.16466   0.00000  Uiso   1.00
C462   C     0.94363   0.44033   0.17626   0.00000  Uiso   1.00
C463   C     0.91732   0.40427   0.21096   0.00000  Uiso   1.00
C464   C     0.85671   0.41207   0.21605   0.00000  Uiso   1.00
C465   C     0.75991   0.40726   0.23842   0.00000  Uiso   1.00
C466   C     0.02935   0.51537   0.16517   0.00000  Uiso   1.00
C467   C     0.07513   0.54238   0.19055   0.00000  Uiso   1.00
C468   C     0.08668   0.61335   0.18631   0.00000  Uiso   1.00
C469   C     0.12300   0.72502   0.19145   0.00000  Uiso   1.00
C470   C     0.01293   0.41566   0.11646   0.00000  Uiso   1.00
C471   C     0.04492   0.35884   0.10088   0.00000  Uiso   1.00
C472   C     0.04266   0.34587   0.05562   0.00000  Uiso   1.00
C473   C     0.05349   0.30273   0.98513   0.00000  Uiso   1.00
C474   C     0.94834   0.51730   0.11200   0.00000  Uiso   1.00
C475   C     0.91057   0.48270   0.14765   0.00000  Uiso   1.00
C476   C     0.84997   0.49056   0.15269   0.00000  Uiso   1.00
C477   C     0.82358   0.45451   0.18739   0.00000  Uiso   1.00
C478   C     0.99629   0.55773   0.13657   0.00000  Uiso   1.00
C479   C     0.00778   0.62868   0.13229   0.00000  Uiso   1.00
C480   C     0.05356   0.65579   0.15765   0.00000  Uiso   1.00
C481   C     0.97987   0.45802   0.08786   0.00000  Uiso   1.00
C482   C     0.97756   0.44514   0.04262   0.00000  Uiso   1.00
C483   C     0.00954   0.38832   0.02697   0.00000  Uiso   1.00
H484   H     0.03495   0.40632   0.18693   0.00000  Uiso   1.00
H485   H     0.94293   0.37149   0.23309   0.00000  Uiso   1.00
H486   H     0.10071   0.50958   0.21268   0.00000  Uiso   1.00
H487   H     0.07050   0.32607   0.12303   0.00000  Uiso   1.00
H488   H     0.82632   0.35158   0.27166   0.00000  Uiso   1.00
H489   H     0.15903   0.64274   0.22862   0.00000  Uiso   1.00
H490   H     0.09533   0.25578   0.03956   0.00000  Uiso   1.00
H491   H     0.92259   0.55029   0.08973   0.00000  Uiso   1.00
H492   H     0.82440   0.52335   0.13055   0.00000  Uiso   1.00
H493   H     0.98218   0.66145   0.11014   0.00000  Uiso   1.00
H494   H     0.95197   0.47794   0.02049   0.00000  Uiso   1.00
H495   H     0.73012   0.47484   0.18843   0.00000  Uiso   1.00
H496   H     0.06283   0.76601   0.14539   0.00000  Uiso   1.00
H497   H     0.99913   0.37904   0.95634   0.00000  Uiso   1.00
O498   O     0.71565   0.39291   0.25866   0.00000  Uiso   1.00
O499   O     0.15216   0.77491   0.20219   0.00000  Uiso   1.00
O500   O     0.06859   0.26722   0.95415   0.00000  Uiso   1.00
N501   N     0.81715   0.38427   0.24646   0.00000  Uiso   1.00
N502   N     0.12821   0.65650   0.20623   0.00000  Uiso   1.00
N503   N     0.06867   0.29473   0.02947   0.00000  Uiso   1.00
N504   N     0.76539   0.45060   0.20168   0.00000  Uiso   1.00
N505   N     0.07644   0.72282   0.16145   0.00000  Uiso   1.00
N506   N     0.01690   0.36105   0.98469   0.00000  Uiso   1.00
C507   C     0.50921   0.93930   0.66466   0.00000  Uiso   1.00
C508   C     0.44363   0.94033   0.67626   0.00000  Uiso   1.00
C509   C     0.41732   0.90427   0.71096   0.00000  Uiso   1.00
C510   C     0.35671   0.91207   0.71605   0.00000  Uiso   1.00
C511   C     0.25991   0.90726   0.73842   0.00000  Uiso   1.00
C512   C     0.52935   0.01537   0.66517   0.00000  Uiso   1.00
C513   C     0.57513   0.04238   0.69055   0.00000  Uiso   1.00
C514   C     0.58668   0.11335   0.68631   0.00000  Uiso   1.00
C515   C     0.62300   0.22502   0.69145   0.00000  Uiso   1.00
C516   C     0.51293   0.91566   0.61646   0.00000  Uiso   1.00
C517   C     0.54492   0.85884   0.60088   0.00000  Uiso   1.00
C518   C     0.54266   0.84587   0.55562   0.00000  Uiso   1.00
C519   C     0.55349   0.80273   0.48513   0.00000  Uiso   1.00
C520   C     0.44834   0.01730   0.61200   0.00000  Uiso   1.00
C521   C     0.41057   0.98270   0.64765   0.00000  Uiso   1.00
C522   C     0.34997   0.99056   0.65269   0.00000  Uiso   1.00
C523   C     0.32358   0.95451   0.68739   0.00000  Uiso   1.00
C524   C     0.49629   0.05773   0.63657   0.00000  Uiso   1.00
C525   C     0.50778   0.12868   0.63229   0.00000  Uiso   1.00
C526   C     0.55356   0.15579   0.65765   0.00000  Uiso   1.00
C527   C     0.47987   0.95802   0.58786   0.00000  Uiso   1.00
C528   C     0.47756   0.94514   0.54262   0.00000  Uiso   1.00
C529   C     0.50954   0.88832   0.52697   0.00000  Uiso   1.00
H530   H     0.53495   0.90632   0.68693   0.00000  Uiso   1.00
H531   H     0.44293   0.87149   0.73309   0.00000  Uiso   1.00
H532   H     0.60071   0.00958   0.71268   0.00000  Uiso   1.00
H533   H     0.57050   0.82607   0.62303   0.00000  Uiso   1.00
H534   H     0.32632   0.85158   0.77166   0.00000  Uiso   1.00
H535   H     0.65903   0.14274   0.72862   0.00000  Uiso   1.00
H536   H     0.59533   0.75578   0.53956   0.00000  Uiso   1.00
H537   H     0.42259   0.05029   0.58973   0.00000  Uiso   1.00
H538   H     0.32440   0.02335   0.63055   0.00000  Uiso   1.00
H539   H     0.48218   0.16145   0.61014   0.00000  Uiso   1.00
H540   H     0.45197   0.97794   0.52049   0.00000  Uiso   1.00
H541   H     0.23012   0.97484   0.68843   0.00000  Uiso   1.00
H542   H     0.56283   0.26601   0.64539   0.00000  Uiso   1.00
H543   H     0.49913   0.87904   0.45634   0.00000  Uiso   1.00
O544   O     0.21565   0.89291   0.75866   0.00000  Uiso   1.00
O545   O     0.65216   0.27491   0.70219   0.00000  Uiso   1.00
O546   O     0.56859   0.76722   0.45415   0.00000  Uiso   1.00
N547   N     0.31715   0.88427   0.74646   0.00000  Uiso   1.00
N548   N     0.62821   0.15650   0.70623   0.00000  Uiso   1.00
N549   N     0.56867   0.79473   0.52947   0.00000  Uiso   1.00
N550   N     0.26539   0.95060   0.70168   0.00000  Uiso   1.00
N551   N     0.57644   0.22282   0.66145   0.00000  Uiso   1.00
N552   N     0.51690   0.86105   0.48469   0.00000  Uiso   1.00
C553   C     0.50921   0.06070   0.83534   0.00000  Uiso   1.00
C554   C     0.44363   0.05967   0.82374   0.00000  Uiso   1.00
C555   C     0.41732   0.09573   0.78904   0.00000  Uiso   1.00
C556   C     0.35671   0.08793   0.78395   0.00000  Uiso   1.00
C557   C     0.25991   0.09274   0.76158   0.00000  Uiso   1.00
C558   C     0.52935   0.98463   0.83483   0.00000  Uiso   1.00
C559   C     0.57513   0.95762   0.80945   0.00000  Uiso   1.00
C560   C     0.58668   0.88665   0.81369   0.00000  Uiso   1.00
C561   C     0.62300   0.77498   0.80855   0.00000  Uiso   1.00
C562   C     0.51293   0.08434   0.88354   0.00000  Uiso   1.00
C563   C     0.54492   0.14116   0.89912   0.00000  Uiso   1.00
C564   C     0.54266   0.15413   0.94438   0.00000  Uiso   1.00
C565   C     0.55349   0.19727   0.01487   0.00000  Uiso   1.00
C566   C     0.44834   0.98270   0.88800   0.00000  Uiso   1.00
C567   C     0.41057   0.01730   0.85235   0.00000  Uiso   1.00
C568   C     0.34997   0.00944   0.84731   0.00000  Uiso   1.00
C569   C     0.32358   0.04549   0.81261   0.00000  Uiso   1.00
C570   C     0.49629   0.94227   0.86343   0.00000  Uiso   1.00
C571   C     0.50778   0.87132   0.86771   0.00000  Uiso   1.00
C572   C     0.55356   0.84421   0.84235   0.00000  Uiso   1.00
C573   C     0.47987   0.04198   0.91214   0.00000  Uiso   1.00
C574   C     0.47756   0.05486   0.95738   0.00000  Uiso   1.00
C575   C     0.50954   0.11168   0.97303   0.00000  Uiso   1.00
H576   H     0.53495   0.09368   0.81307   0.00000  Uiso   1.00
H577   H     0.44293   0.12851   0.76691   0.00000  Uiso   1.00
H578   H     0.60071   0.99042   0.78732   0.00000  Uiso   1.00
H579   H     0.57050   0.17393   0.87697   0.00000  Uiso   1.00
H580   H     0.32632   0.14842   0.72834   0.00000  Uiso   1.00
H581   H     0.65903   0.85726   0.77138   0.00000  Uiso   1.00
H582   H     0.59533   0.24422   0.96044   0.00000  Uiso   1.00
H583   H     0.42259   0.94971   0.91027   0.00000  Uiso   1.00
H584   H     0.32440   0.97665   0.86945   0.00000  Uiso   1.00
H585   H     0.48218   0.83855   0.88986   0.00000  Uiso   1.00
H586   H     0.45197   0.02206   0.97951   0.00000  Uiso   1.00
H587   H     0.23012   0.02516   0.81157   0.00000  Uiso   1.00
H588   H     0.56283   0.73399   0.85461   0.00000  Uiso   1.00
H589   H     0.49913   0.12096   0.04366   0.00000  Uiso   1.00
O590   O     0.21565   0.10709   0.74134   0.00000  Uiso   1.00
O591   O     0.65216   0.72509   0.79781   0.00000  Uiso   1.00
O592   O     0.56859   0.23278   0.04585   0.00000  Uiso   1.00
N593   N     0.31715   0.11573   0.75354   0.00000  Uiso   1.00
N594   N     0.62821   0.84350   0.79377   0.00000  Uiso   1.00
N595   N     0.56867   0.20527   0.97053   0.00000  Uiso   1.00
N596   N     0.26539   0.04940   0.79832   0.00000  Uiso   1.00
N597   N     0.57644   0.77718   0.83855   0.00000  Uiso   1.00
N598   N     0.51690   0.13895   0.01531   0.00000  Uiso   1.00
C599   C     0.00921   0.56070   0.33534   0.00000  Uiso   1.00
C600   C     0.94363   0.55967   0.32374   0.00000  Uiso   1.00
C601   C     0.91732   0.59573   0.28904   0.00000  Uiso   1.00
C602   C     0.85671   0.58793   0.28395   0.00000  Uiso   1.00
C603   C     0.75991   0.59274   0.26158   0.00000  Uiso   1.00
C604   C     0.02935   0.48463   0.33483   0.00000  Uiso   1.00
C605   C     0.07513   0.45762   0.30945   0.00000  Uiso   1.00
C606   C     0.08668   0.38665   0.31369   0.00000  Uiso   1.00
C607   C     0.12300   0.27498   0.30855   0.00000  Uiso   1.00
C608   C     0.01293   0.58434   0.38354   0.00000  Uiso   1.00
C609   C     0.04492   0.64116   0.39912   0.00000  Uiso   1.00
C610   C     0.04266   0.65413   0.44438   0.00000  Uiso   1.00
C611   C     0.05349   0.69727   0.51487   0.00000  Uiso   1.00
C612   C     0.94834   0.48270   0.38800   0.00000  Uiso   1.00
C613   C     0.91057   0.51730   0.35235   0.00000  Uiso   1.00
C614   C     0.84997   0.50944   0.34731   0.00000  Uiso   1.00
C615   C     0.82358   0.54549   0.31261   0.00000  Uiso   1.00
C616   C     0.99629   0.44227   0.36343   0.00000  Uiso   1.00
C617   C     0.00778   0.37132   0.36771   0.00000  Uiso   1.00
C618   C     0.05356   0.34421   0.34235   0.00000  Uiso   1.00
C619   C     0.97987   0.54198   0.41214   0.00000  Uiso   1.00
C620   C     0.97756   0.55486   0.45738   0.00000  Uiso   1.00
C621   C     0.00954   0.61168   0.47303   0.00000  Uiso   1.00
H622   H     0.03495   0.59368   0.31307   0.00000  Uiso   1.00
H623   H     0.94293   0.62851   0.26691   0.00000  Uiso   1.00
H624   H     0.10071   0.49042   0.28732   0.00000  Uiso   1.00
H625   H     0.07050   0.67393   0.37697   0.00000  Uiso   1.00
H626   H     0.82632   0.64842   0.22834   0.00000  Uiso   1.00
H627   H     0.15903   0.35726   0.27138   0.00000  Uiso   1.00
H628   H     0.09533   0.74422   0.46044   0.00000  Uiso   1.00
H629   H     0.92259   0.44971   0.41027   0.00000  Uiso   1.00
H630   H     0.82440   0.47665   0.36945   0.00000  Uiso   1.00
H631   H     0.98218   0.33855   0.38986   0.00000  Uiso   1.00
H632   H     0.95197   0.52206   0.47951   0.00000  Uiso   1.00
H633   H     0.73012   0.52516   0.31157   0.00000  Uiso   1.00
H634   H     0.06283   0.23399   0.35461   0.00000  Uiso   1.00
H635   H     0.99913   0.62096   0.54366   0.00000  Uiso   1.00
O636   O     0.71565   0.60709   0.24134   0.00000  Uiso   1.00
O637   O     0.15216   0.22509   0.29781   0.00000  Uiso   1.00
O638   O     0.06859   0.73278   0.54585   0.00000  Uiso   1.00
N639   N     0.81715   0.61573   0.25354   0.00000  Uiso   1.00
N640   N     0.12821   0.34350   0.29377   0.00000  Uiso   1.00
N641   N     0.06867   0.70527   0.47053   0.00000  Uiso   1.00
N642   N     0.76539   0.54940   0.29832   0.00000  Uiso   1.00
N643   N     0.07644   0.27718   0.33855   0.00000  Uiso   1.00
N644   N     0.01690   0.63895   0.51531   0.00000  Uiso   1.00
C645   C     0.99079   0.93930   0.33534   0.00000  Uiso   1.00
C646   C     0.05637   0.94033   0.32374   0.00000  Uiso   1.00
C647   C     0.08268   0.90427   0.28904   0.00000  Uiso   1.00
C648   C     0.14329   0.91207   0.28395   0.00000  Uiso   1.00
C649   C     0.24009   0.90726   0.26158   0.00000  Uiso   1.00
C650   C     0.97065   0.01537   0.33483   0.00000  Uiso   1.00
C651   C     0.92487   0.04238   0.30945   0.00000  Uiso   1.00
C652   C     0.91332   0.11335   0.31369   0.00000  Uiso   1.00
C653   C     0.87700   0.22502   0.30855   0.00000  Uiso   1.00
C654   C     0.98707   0.91566   0.38354   0.00000  Uiso   1.00
C655   C     0.95508   0.85884   0.39912   0.00000  Uiso   1.00
C656   C     0.95734   0.84587   0.44438   0.00000  Uiso   1.00
C657   C     0.94651   0.80273   0.51487   0.00000  Uiso   1.00
C658   C     0.05166   0.01730   0.38800   0.00000  Uiso   1.00
C659   C     0.08943   0.98270   0.35235   0.00000  Uiso   1.00
C660   C     0.15003   0.99056   0.34731   0.00000  Uiso   1.00
C661   C     0.17642   0.95451   0.31261   0.00000  Uiso   1.00
C662   C     0.00371   0.05773   0.36343   0.00000  Uiso   1.00
C663   C     0.99222   0.12868   0.36771   0.00000  Uiso   1.00
C664   C     0.94644   0.15579   0.34235   0.00000  Uiso   1.00
C665   C     0.02013   0.95802   0.41214   0.00000  Uiso   1.00
C666   C     0.02244   0.94514   0.45738   0.00000  Uiso   1.00
C667   C     0.99046   0.88832   0.47303   0.00000  Uiso   1.00
H668   H     0.96505   0.90632   0.31307   0.00000  Uiso   1.00
H669   H     0.05707   0.87149   0.26691   0.00000  Uiso   1.00
H670   H     0.89929   0.00958   0.28732   0.00000  Uiso   1.00
H671   H     0.92950   0.82607   0.37697   0.00000  Uiso   1.00
H672   H     0.17368   0.85158   0.22834   0.00000  Uiso   1.00
H673   H     0.84097   0.14274   0.27138   0.00000  Uiso   1.00
H674   H     0.90467   0.75578   0.46044   0.00000  Uiso   1.00
H675   H     0.07741   0.05029   0.41027   0.00000  Uiso   1.00
H676   H     0.17560   0.02335   0.36945   0.00000  Uiso   1.00
H677   H     0.01782   0.16145   0.38986   0.00000  Uiso   1.00
H678   H     0.04803   0.97794   0.47951   0.00000  Uiso   1.00
H679   H     0.26988   0.97484   0.31157   0.00000  Uiso   1.00
H680   H     0.93717   0.26601   0.35461   0.00000  Uiso   1.00
H681   H     0.00087   0.87904   0.54366   0.00000  Uiso   1.00
O682   O     0.28435   0.89291   0.24134   0.00000  Uiso   1.00
O683   O     0.84784   0.27491   0.29781   0.00000  Uiso   1.00
O684   O     0.93141   0.76722   0.54585   0.00000  Uiso   1.00
N685   N     0.18285   0.88427   0.25354   0.00000  Uiso   1.00
N686   N     0.87179   0.15650   0.29377   0.00000  Uiso   1.00
N687   N     0.93133   0.79473   0.47053   0.00000  Uiso   1.00
N688   N     0.23461   0.95060   0.29832   0.00000  Uiso   1.00
N689   N     0.92356   0.22282   0.33855   0.00000  Uiso   1.00
N690   N     0.98310   0.86105   0.51531   0.00000  Uiso   1.00
C691   C     0.49079   0.43930   0.83534   0.00000  Uiso   1.00
C692   C     0.55637   0.44033   0.82374   0.00000  Uiso   1.00
C693   C     0.58268   0.40427   0.78904   0.00000  Uiso   1.00
C694   C     0.64329   0.41207   0.78395   0.00000  Uiso   1.00
C695   C     0.74009   0.40726   0.76158   0.00000  Uiso   1.00
C696   C     0.47065   0.51537   0.83483   0.00000  Uiso   1.00
C697   C     0.42487   0.54238   0.80945   0.00000  Uiso   1.00
C698   C     0.41332   0.61335   0.81369   0.00000  Uiso   1.00
C699   C     0.37700   0.72502   0.80855   0.00000  Uiso   1.00
C700   C     0.48707   0.41566   0.88354   0.00000  Uiso   1.00
C701   C     0.45508   0.35884   0.89912   0.00000  Uiso   1.00
C702   C     0.45734   0.34587   0.94438   0.00000  Uiso   1.00
C703   C     0.44651   0.30273   0.01487   0.00000  Uiso   1.00
C704   C     0.55166   0.51730   0.88800   0.00000  Uiso   1.00
C705   C     0.58943   0.48270   0.85235   0.00000  Uiso   1.00
C706   C     0.65003   0.49056   0.84731   0.00000  Uiso   1.00
C707   C     0.67642   0.45451   0.81261   0.00000  Uiso   1.00
C708   C     0.50371   0.55773   0.86343   0.00000  Uiso   1.00
C709   C     0.49222   0.62868   0.86771   0.00000  Uiso   1.00
C710   C     0.44644   0.65579   0.84235   0.00000  Uiso   1.00
C711   C     0.52013   0.45802   0.91214   0.00000  Uiso   1.00
C712   C     0.52244   0.44514   0.95738   0.00000  Uiso   1.00
C713   C     0.49046   0.38832   0.97303   0.00000  Uiso   1.00
H714   H     0.46505   0.40632   0.81307   0.00000  Uiso   1.00
H715   H     0.55707   0.37149   0.76691   0.00000  Uiso   1.00
H716   H     0.39929   0.50958   0.78732   0.00000  Uiso   1.00
H717   H     0.42950   0.32607   0.87697   0.00000  Uiso   1.00
H718   H     0.67368   0.35158   0.72834   0.00000  Uiso   1.00
H719   H     0.34097   0.64274   0.77138   0.00000  Uiso   1.00
H720   H     0.40467   0.25578   0.96044   0.00000  Uiso   1.00
H721   H     0.57741   0.55029   0.91027   0.00000  Uiso   1.00
H722   H     0.67560   0.52335   0.86945   0.00000  Uiso   1.00
H723   H     0.51782   0.66145   0.88986   0.00000  Uiso   1.00
H724   H     0.54803   0.47794   0.97951   0.00000  Uiso   1.00
H725   H     0.76988   0.47484   0.81157   0.00000  Uiso   1.00
H726   H     0.43717   0.76601   0.85461   0.00000  Uiso   1.00
H727   H     0.50087   0.37904   0.04366   0.00000  Uiso   1.00
O728   O     0.78435   0.39291   0.74134   0.00000  Uiso   1.00
O729   O     0.34784   0.77491   0.79781   0.00000  Uiso   1.00
O730   O     0.43141   0.26722   0.04585   0.00000  Uiso   1.00
N731   N     0.68285   0.38427   0.75354   0.00000  Uiso   1.00
N732   N     0.37179   0.65650   0.79377   0.00000  Uiso   1.00
N733   N     0.43133   0.29473   0.97053   0.00000  Uiso   1.00
N734   N     0.73461   0.45060   0.79832   0.00000  Uiso   1.00
N735   N     0.42356   0.72282   0.83855   0.00000  Uiso   1.00
N736   N     0.48310   0.36105   0.01531   0.00000  Uiso   1.00
