data_job_03906
_audit_creation_date              2018-12-19
_audit_creation_method            'Materials Studio'
_symmetry_space_group_name_H-M    'P1'
_symmetry_Int_Tables_number       1
_symmetry_cell_setting            triclinic
loop_
_symmetry_equiv_pos_as_xyz
  x,y,z
_cell_length_a                    19.4752
_cell_length_b                    77.5794
_cell_length_c                    7.4664
_cell_angle_alpha                 90.0000
_cell_angle_beta                  90.0000
_cell_angle_gamma                 90.0000
loop_
_atom_site_label
_atom_site_type_symbol
_atom_site_fract_x
_atom_site_fract_y
_atom_site_fract_z
_atom_site_U_iso_or_equiv
_atom_site_adp_type
_atom_site_occupancy
C1     C     0.30852   0.68004   0.53591   0.00000  Uiso   1.00
C2     C     0.34986   0.69387   0.63310   0.00000  Uiso   1.00
C3     C     0.38055   0.70810   0.55385   0.00000  Uiso   1.00
C4     C     0.41613   0.71925   0.66585   0.00000  Uiso   1.00
C5     C     0.47963   0.74117   0.78867   0.00000  Uiso   1.00
C6     C     0.34308   0.66293   0.58023   0.00000  Uiso   1.00
C7     C     0.36806   0.65114   0.45651   0.00000  Uiso   1.00
C8     C     0.39793   0.63625   0.52401   0.00000  Uiso   1.00
C9     C     0.45086   0.61012   0.56473   0.00000  Uiso   1.00
C10    C     0.23852   0.67956   0.62727   0.00000  Uiso   1.00
C11    C     0.17558   0.68176   0.54312   0.00000  Uiso   1.00
C12    C     0.11741   0.68086   0.65022   0.00000  Uiso   1.00
C13    C     0.00800   0.68056   0.76400   0.00000  Uiso   1.00
C14    C     0.31712   0.67455   0.87573   0.00000  Uiso   1.00
C15    C     0.35453   0.69088   0.81768   0.00000  Uiso   1.00
C16    C     0.39006   0.70202   0.92983   0.00000  Uiso   1.00
C17    C     0.42080   0.71626   0.85076   0.00000  Uiso   1.00
C18    C     0.34775   0.65994   0.76480   0.00000  Uiso   1.00
C19    C     0.37758   0.64506   0.83249   0.00000  Uiso   1.00
C20    C     0.40260   0.63325   0.70891   0.00000  Uiso   1.00
C21    C     0.24319   0.67658   0.81185   0.00000  Uiso   1.00
C22    C     0.18510   0.67567   0.91910   0.00000  Uiso   1.00
C23    C     0.12209   0.67787   0.83513   0.00000  Uiso   1.00
H24    H     0.30489   0.68237   0.39221   0.00000  Uiso   1.00
H25    H     0.37693   0.71041   0.41100   0.00000  Uiso   1.00
H26    H     0.36444   0.65346   0.31369   0.00000  Uiso   1.00
H27    H     0.17199   0.68407   0.40028   0.00000  Uiso   1.00
H28    H     0.45888   0.74017   0.51323   0.00000  Uiso   1.00
H29    H     0.43252   0.62009   0.30803   0.00000  Uiso   1.00
H30    H     0.02671   0.68463   0.49063   0.00000  Uiso   1.00
H31    H     0.32075   0.67222   0.01944   0.00000  Uiso   1.00
H32    H     0.39367   0.69970   0.07266   0.00000  Uiso   1.00
H33    H     0.38118   0.64275   0.97533   0.00000  Uiso   1.00
H34    H     0.18873   0.67336   0.06193   0.00000  Uiso   1.00
H35    H     0.47247   0.73148   0.05025   0.00000  Uiso   1.00
H36    H     0.44611   0.61140   0.84504   0.00000  Uiso   1.00
H37    H     0.04030   0.67595   0.02765   0.00000  Uiso   1.00
O38    O     0.51338   0.75409   0.80542   0.00000  Uiso   1.00
O39    O     0.47878   0.59654   0.53620   0.00000  Uiso   1.00
O40    O     0.94636   0.68122   0.77577   0.00000  Uiso   1.00
N41    N     0.45206   0.73436   0.63232   0.00000  Uiso   1.00
N42    N     0.42743   0.62209   0.44047   0.00000  Uiso   1.00
N43    N     0.04802   0.68243   0.61118   0.00000  Uiso   1.00
N44    N     0.45938   0.72968   0.92129   0.00000  Uiso   1.00
N45    N     0.43474   0.61741   0.72943   0.00000  Uiso   1.00
N46    N     0.05534   0.67775   0.90014   0.00000  Uiso   1.00
C47    C     0.30852   0.18004   0.03591   0.00000  Uiso   1.00
C48    C     0.34986   0.19387   0.13310   0.00000  Uiso   1.00
C49    C     0.38055   0.20810   0.05385   0.00000  Uiso   1.00
C50    C     0.41613   0.21925   0.16585   0.00000  Uiso   1.00
C51    C     0.47963   0.24117   0.28867   0.00000  Uiso   1.00
C52    C     0.34308   0.16293   0.08023   0.00000  Uiso   1.00
C53    C     0.36806   0.15114   0.95651   0.00000  Uiso   1.00
C54    C     0.39793   0.13625   0.02401   0.00000  Uiso   1.00
C55    C     0.45086   0.11012   0.06473   0.00000  Uiso   1.00
C56    C     0.23852   0.17956   0.12727   0.00000  Uiso   1.00
C57    C     0.17558   0.18176   0.04312   0.00000  Uiso   1.00
C58    C     0.11741   0.18086   0.15022   0.00000  Uiso   1.00
C59    C     0.00800   0.18056   0.26400   0.00000  Uiso   1.00
C60    C     0.31712   0.17455   0.37573   0.00000  Uiso   1.00
C61    C     0.35453   0.19088   0.31768   0.00000  Uiso   1.00
C62    C     0.39006   0.20202   0.42983   0.00000  Uiso   1.00
C63    C     0.42080   0.21626   0.35076   0.00000  Uiso   1.00
C64    C     0.34775   0.15994   0.26480   0.00000  Uiso   1.00
C65    C     0.37758   0.14506   0.33249   0.00000  Uiso   1.00
C66    C     0.40260   0.13325   0.20891   0.00000  Uiso   1.00
C67    C     0.24319   0.17658   0.31185   0.00000  Uiso   1.00
C68    C     0.18510   0.17567   0.41910   0.00000  Uiso   1.00
C69    C     0.12209   0.17787   0.33513   0.00000  Uiso   1.00
H70    H     0.30489   0.18237   0.89221   0.00000  Uiso   1.00
H71    H     0.37693   0.21041   0.91100   0.00000  Uiso   1.00
H72    H     0.36444   0.15346   0.81369   0.00000  Uiso   1.00
H73    H     0.17199   0.18407   0.90028   0.00000  Uiso   1.00
H74    H     0.45888   0.24017   0.01323   0.00000  Uiso   1.00
H75    H     0.43252   0.12009   0.80803   0.00000  Uiso   1.00
H76    H     0.02671   0.18463   0.99063   0.00000  Uiso   1.00
H77    H     0.32075   0.17222   0.51944   0.00000  Uiso   1.00
H78    H     0.39367   0.19970   0.57266   0.00000  Uiso   1.00
H79    H     0.38118   0.14275   0.47533   0.00000  Uiso   1.00
H80    H     0.18873   0.17336   0.56193   0.00000  Uiso   1.00
H81    H     0.47247   0.23148   0.55025   0.00000  Uiso   1.00
H82    H     0.44611   0.11140   0.34504   0.00000  Uiso   1.00
H83    H     0.04030   0.17595   0.52765   0.00000  Uiso   1.00
O84    O     0.51338   0.25409   0.30542   0.00000  Uiso   1.00
O85    O     0.47878   0.09654   0.03620   0.00000  Uiso   1.00
O86    O     0.94636   0.18122   0.27577   0.00000  Uiso   1.00
N87    N     0.45206   0.23436   0.13232   0.00000  Uiso   1.00
N88    N     0.42743   0.12209   0.94047   0.00000  Uiso   1.00
N89    N     0.04802   0.18243   0.11118   0.00000  Uiso   1.00
N90    N     0.45938   0.22968   0.42129   0.00000  Uiso   1.00
N91    N     0.43474   0.11741   0.22943   0.00000  Uiso   1.00
N92    N     0.05534   0.17775   0.40014   0.00000  Uiso   1.00
C93    C     0.80852   0.68004   0.03591   0.00000  Uiso   1.00
C94    C     0.84986   0.69387   0.13310   0.00000  Uiso   1.00
C95    C     0.88055   0.70810   0.05385   0.00000  Uiso   1.00
C96    C     0.91613   0.71925   0.16585   0.00000  Uiso   1.00
C97    C     0.97963   0.74117   0.28867   0.00000  Uiso   1.00
C98    C     0.84308   0.66293   0.08023   0.00000  Uiso   1.00
C99    C     0.86806   0.65114   0.95651   0.00000  Uiso   1.00
C100   C     0.89793   0.63625   0.02401   0.00000  Uiso   1.00
C101   C     0.95086   0.61012   0.06473   0.00000  Uiso   1.00
C102   C     0.73852   0.67956   0.12727   0.00000  Uiso   1.00
C103   C     0.67558   0.68176   0.04312   0.00000  Uiso   1.00
C104   C     0.61741   0.68086   0.15022   0.00000  Uiso   1.00
C105   C     0.50800   0.68056   0.26400   0.00000  Uiso   1.00
C106   C     0.81712   0.67455   0.37573   0.00000  Uiso   1.00
C107   C     0.85453   0.69088   0.31768   0.00000  Uiso   1.00
C108   C     0.89006   0.70202   0.42983   0.00000  Uiso   1.00
C109   C     0.92080   0.71626   0.35076   0.00000  Uiso   1.00
C110   C     0.84775   0.65994   0.26480   0.00000  Uiso   1.00
C111   C     0.87758   0.64506   0.33249   0.00000  Uiso   1.00
C112   C     0.90260   0.63325   0.20891   0.00000  Uiso   1.00
C113   C     0.74319   0.67658   0.31185   0.00000  Uiso   1.00
C114   C     0.68510   0.67567   0.41910   0.00000  Uiso   1.00
C115   C     0.62209   0.67787   0.33513   0.00000  Uiso   1.00
H116   H     0.80489   0.68237   0.89221   0.00000  Uiso   1.00
H117   H     0.87693   0.71041   0.91100   0.00000  Uiso   1.00
H118   H     0.86444   0.65346   0.81369   0.00000  Uiso   1.00
H119   H     0.67199   0.68407   0.90028   0.00000  Uiso   1.00
H120   H     0.95888   0.74017   0.01323   0.00000  Uiso   1.00
H121   H     0.93252   0.62009   0.80803   0.00000  Uiso   1.00
H122   H     0.52671   0.68463   0.99063   0.00000  Uiso   1.00
H123   H     0.82075   0.67222   0.51944   0.00000  Uiso   1.00
H124   H     0.89367   0.69970   0.57266   0.00000  Uiso   1.00
H125   H     0.88118   0.64275   0.47533   0.00000  Uiso   1.00
H126   H     0.68873   0.67336   0.56193   0.00000  Uiso   1.00
H127   H     0.97247   0.73148   0.55025   0.00000  Uiso   1.00
H128   H     0.94611   0.61140   0.34504   0.00000  Uiso   1.00
H129   H     0.54030   0.67595   0.52765   0.00000  Uiso   1.00
O130   O     0.01338   0.75409   0.30542   0.00000  Uiso   1.00
O131   O     0.97878   0.59654   0.03620   0.00000  Uiso   1.00
O132   O     0.44636   0.68122   0.27577   0.00000  Uiso   1.00
N133   N     0.95206   0.73436   0.13232   0.00000  Uiso   1.00
N134   N     0.92743   0.62209   0.94047   0.00000  Uiso   1.00
N135   N     0.54802   0.68243   0.11118   0.00000  Uiso   1.00
N136   N     0.95938   0.72968   0.42129   0.00000  Uiso   1.00
N137   N     0.93474   0.61741   0.22943   0.00000  Uiso   1.00
N138   N     0.55534   0.67775   0.40014   0.00000  Uiso   1.00
C139   C     0.80852   0.18004   0.53591   0.00000  Uiso   1.00
C140   C     0.84986   0.19387   0.63310   0.00000  Uiso   1.00
C141   C     0.88055   0.20810   0.55385   0.00000  Uiso   1.00
C142   C     0.91613   0.21925   0.66585   0.00000  Uiso   1.00
C143   C     0.97963   0.24117   0.78867   0.00000  Uiso   1.00
C144   C     0.84308   0.16293   0.58023   0.00000  Uiso   1.00
C145   C     0.86806   0.15114   0.45651   0.00000  Uiso   1.00
C146   C     0.89793   0.13625   0.52401   0.00000  Uiso   1.00
C147   C     0.95086   0.11012   0.56473   0.00000  Uiso   1.00
C148   C     0.73852   0.17956   0.62727   0.00000  Uiso   1.00
C149   C     0.67558   0.18176   0.54312   0.00000  Uiso   1.00
C150   C     0.61741   0.18086   0.65022   0.00000  Uiso   1.00
C151   C     0.50800   0.18056   0.76400   0.00000  Uiso   1.00
C152   C     0.81712   0.17455   0.87573   0.00000  Uiso   1.00
C153   C     0.85453   0.19088   0.81768   0.00000  Uiso   1.00
C154   C     0.89006   0.20202   0.92983   0.00000  Uiso   1.00
C155   C     0.92080   0.21626   0.85076   0.00000  Uiso   1.00
C156   C     0.84775   0.15994   0.76480   0.00000  Uiso   1.00
C157   C     0.87758   0.14506   0.83249   0.00000  Uiso   1.00
C158   C     0.90260   0.13325   0.70891   0.00000  Uiso   1.00
C159   C     0.74319   0.17658   0.81185   0.00000  Uiso   1.00
C160   C     0.68510   0.17567   0.91910   0.00000  Uiso   1.00
C161   C     0.62209   0.17787   0.83513   0.00000  Uiso   1.00
H162   H     0.80489   0.18237   0.39221   0.00000  Uiso   1.00
H163   H     0.87693   0.21041   0.41100   0.00000  Uiso   1.00
H164   H     0.86444   0.15346   0.31369   0.00000  Uiso   1.00
H165   H     0.67199   0.18407   0.40028   0.00000  Uiso   1.00
H166   H     0.95888   0.24017   0.51323   0.00000  Uiso   1.00
H167   H     0.93252   0.12009   0.30803   0.00000  Uiso   1.00
H168   H     0.52671   0.18463   0.49063   0.00000  Uiso   1.00
H169   H     0.82075   0.17222   0.01944   0.00000  Uiso   1.00
H170   H     0.89367   0.19970   0.07266   0.00000  Uiso   1.00
H171   H     0.88118   0.14275   0.97533   0.00000  Uiso   1.00
H172   H     0.68873   0.17336   0.06193   0.00000  Uiso   1.00
H173   H     0.97247   0.23148   0.05025   0.00000  Uiso   1.00
H174   H     0.94611   0.11140   0.84504   0.00000  Uiso   1.00
H175   H     0.54030   0.17595   0.02765   0.00000  Uiso   1.00
O176   O     0.01338   0.25409   0.80542   0.00000  Uiso   1.00
O177   O     0.97878   0.09654   0.53620   0.00000  Uiso   1.00
O178   O     0.44636   0.18122   0.77577   0.00000  Uiso   1.00
N179   N     0.95206   0.23436   0.63232   0.00000  Uiso   1.00
N180   N     0.92743   0.12209   0.44047   0.00000  Uiso   1.00
N181   N     0.54802   0.18243   0.61118   0.00000  Uiso   1.00
N182   N     0.95938   0.22968   0.92129   0.00000  Uiso   1.00
N183   N     0.93474   0.11741   0.72943   0.00000  Uiso   1.00
N184   N     0.55534   0.17775   0.90014   0.00000  Uiso   1.00
C185   C     0.69148   0.31996   0.53591   0.00000  Uiso   1.00
C186   C     0.65014   0.30613   0.63310   0.00000  Uiso   1.00
C187   C     0.61945   0.29190   0.55385   0.00000  Uiso   1.00
C188   C     0.58387   0.28075   0.66585   0.00000  Uiso   1.00
C189   C     0.52037   0.25883   0.78867   0.00000  Uiso   1.00
C190   C     0.65692   0.33707   0.58023   0.00000  Uiso   1.00
C191   C     0.63194   0.34886   0.45651   0.00000  Uiso   1.00
C192   C     0.60207   0.36375   0.52401   0.00000  Uiso   1.00
C193   C     0.54914   0.38988   0.56473   0.00000  Uiso   1.00
C194   C     0.76148   0.32044   0.62727   0.00000  Uiso   1.00
C195   C     0.82442   0.31824   0.54312   0.00000  Uiso   1.00
C196   C     0.88259   0.31914   0.65022   0.00000  Uiso   1.00
C197   C     0.99200   0.31944   0.76400   0.00000  Uiso   1.00
C198   C     0.68288   0.32545   0.87573   0.00000  Uiso   1.00
C199   C     0.64547   0.30912   0.81768   0.00000  Uiso   1.00
C200   C     0.60994   0.29798   0.92983   0.00000  Uiso   1.00
C201   C     0.57920   0.28374   0.85076   0.00000  Uiso   1.00
C202   C     0.65225   0.34006   0.76480   0.00000  Uiso   1.00
C203   C     0.62242   0.35494   0.83249   0.00000  Uiso   1.00
C204   C     0.59740   0.36675   0.70891   0.00000  Uiso   1.00
C205   C     0.75681   0.32342   0.81185   0.00000  Uiso   1.00
C206   C     0.81490   0.32433   0.91910   0.00000  Uiso   1.00
C207   C     0.87791   0.32213   0.83513   0.00000  Uiso   1.00
H208   H     0.69511   0.31763   0.39221   0.00000  Uiso   1.00
H209   H     0.62307   0.28959   0.41100   0.00000  Uiso   1.00
H210   H     0.63556   0.34654   0.31369   0.00000  Uiso   1.00
H211   H     0.82801   0.31593   0.40028   0.00000  Uiso   1.00
H212   H     0.54112   0.25983   0.51323   0.00000  Uiso   1.00
H213   H     0.56748   0.37991   0.30803   0.00000  Uiso   1.00
H214   H     0.97329   0.31537   0.49063   0.00000  Uiso   1.00
H215   H     0.67925   0.32778   0.01944   0.00000  Uiso   1.00
H216   H     0.60633   0.30030   0.07266   0.00000  Uiso   1.00
H217   H     0.61882   0.35725   0.97533   0.00000  Uiso   1.00
H218   H     0.81127   0.32664   0.06193   0.00000  Uiso   1.00
H219   H     0.52753   0.26852   0.05025   0.00000  Uiso   1.00
H220   H     0.55389   0.38860   0.84504   0.00000  Uiso   1.00
H221   H     0.95970   0.32405   0.02765   0.00000  Uiso   1.00
O222   O     0.48662   0.24591   0.80542   0.00000  Uiso   1.00
O223   O     0.52122   0.40346   0.53620   0.00000  Uiso   1.00
O224   O     0.05364   0.31878   0.77577   0.00000  Uiso   1.00
N225   N     0.54794   0.26564   0.63232   0.00000  Uiso   1.00
N226   N     0.57257   0.37791   0.44047   0.00000  Uiso   1.00
N227   N     0.95198   0.31757   0.61118   0.00000  Uiso   1.00
N228   N     0.54062   0.27032   0.92129   0.00000  Uiso   1.00
N229   N     0.56526   0.38259   0.72943   0.00000  Uiso   1.00
N230   N     0.94466   0.32225   0.90014   0.00000  Uiso   1.00
C231   C     0.69148   0.81996   0.03591   0.00000  Uiso   1.00
C232   C     0.65014   0.80613   0.13310   0.00000  Uiso   1.00
C233   C     0.61945   0.79190   0.05385   0.00000  Uiso   1.00
C234   C     0.58387   0.78075   0.16585   0.00000  Uiso   1.00
C235   C     0.52037   0.75883   0.28867   0.00000  Uiso   1.00
C236   C     0.65692   0.83707   0.08023   0.00000  Uiso   1.00
C237   C     0.63194   0.84886   0.95651   0.00000  Uiso   1.00
C238   C     0.60207   0.86375   0.02401   0.00000  Uiso   1.00
C239   C     0.54914   0.88988   0.06473   0.00000  Uiso   1.00
C240   C     0.76148   0.82044   0.12727   0.00000  Uiso   1.00
C241   C     0.82442   0.81824   0.04312   0.00000  Uiso   1.00
C242   C     0.88259   0.81914   0.15022   0.00000  Uiso   1.00
C243   C     0.99200   0.81944   0.26400   0.00000  Uiso   1.00
C244   C     0.68288   0.82545   0.37573   0.00000  Uiso   1.00
C245   C     0.64547   0.80912   0.31768   0.00000  Uiso   1.00
C246   C     0.60994   0.79798   0.42983   0.00000  Uiso   1.00
C247   C     0.57920   0.78374   0.35076   0.00000  Uiso   1.00
C248   C     0.65225   0.84006   0.26480   0.00000  Uiso   1.00
C249   C     0.62242   0.85494   0.33249   0.00000  Uiso   1.00
C250   C     0.59740   0.86675   0.20891   0.00000  Uiso   1.00
C251   C     0.75681   0.82342   0.31185   0.00000  Uiso   1.00
C252   C     0.81490   0.82433   0.41910   0.00000  Uiso   1.00
C253   C     0.87791   0.82213   0.33513   0.00000  Uiso   1.00
H254   H     0.69511   0.81763   0.89221   0.00000  Uiso   1.00
H255   H     0.62307   0.78959   0.91100   0.00000  Uiso   1.00
H256   H     0.63556   0.84654   0.81369   0.00000  Uiso   1.00
H257   H     0.82801   0.81593   0.90028   0.00000  Uiso   1.00
H258   H     0.54112   0.75983   0.01323   0.00000  Uiso   1.00
H259   H     0.56748   0.87991   0.80803   0.00000  Uiso   1.00
H260   H     0.97329   0.81537   0.99063   0.00000  Uiso   1.00
H261   H     0.67925   0.82778   0.51944   0.00000  Uiso   1.00
H262   H     0.60633   0.80030   0.57266   0.00000  Uiso   1.00
H263   H     0.61882   0.85725   0.47533   0.00000  Uiso   1.00
H264   H     0.81127   0.82664   0.56193   0.00000  Uiso   1.00
H265   H     0.52753   0.76852   0.55025   0.00000  Uiso   1.00
H266   H     0.55389   0.88860   0.34504   0.00000  Uiso   1.00
H267   H     0.95970   0.82405   0.52765   0.00000  Uiso   1.00
O268   O     0.48662   0.74591   0.30542   0.00000  Uiso   1.00
O269   O     0.52122   0.90346   0.03620   0.00000  Uiso   1.00
O270   O     0.05364   0.81878   0.27577   0.00000  Uiso   1.00
N271   N     0.54794   0.76564   0.13232   0.00000  Uiso   1.00
N272   N     0.57257   0.87791   0.94047   0.00000  Uiso   1.00
N273   N     0.95198   0.81757   0.11118   0.00000  Uiso   1.00
N274   N     0.54062   0.77032   0.42129   0.00000  Uiso   1.00
N275   N     0.56526   0.88259   0.22943   0.00000  Uiso   1.00
N276   N     0.94466   0.82225   0.40014   0.00000  Uiso   1.00
C277   C     0.19148   0.31996   0.03591   0.00000  Uiso   1.00
C278   C     0.15014   0.30613   0.13310   0.00000  Uiso   1.00
C279   C     0.11945   0.29190   0.05385   0.00000  Uiso   1.00
C280   C     0.08387   0.28075   0.16585   0.00000  Uiso   1.00
C281   C     0.02037   0.25883   0.28867   0.00000  Uiso   1.00
C282   C     0.15692   0.33707   0.08023   0.00000  Uiso   1.00
C283   C     0.13194   0.34886   0.95651   0.00000  Uiso   1.00
C284   C     0.10207   0.36375   0.02401   0.00000  Uiso   1.00
C285   C     0.04914   0.38988   0.06473   0.00000  Uiso   1.00
C286   C     0.26148   0.32044   0.12727   0.00000  Uiso   1.00
C287   C     0.32442   0.31824   0.04312   0.00000  Uiso   1.00
C288   C     0.38259   0.31914   0.15022   0.00000  Uiso   1.00
C289   C     0.49200   0.31944   0.26400   0.00000  Uiso   1.00
C290   C     0.18288   0.32545   0.37573   0.00000  Uiso   1.00
C291   C     0.14547   0.30912   0.31768   0.00000  Uiso   1.00
C292   C     0.10994   0.29798   0.42983   0.00000  Uiso   1.00
C293   C     0.07920   0.28374   0.35076   0.00000  Uiso   1.00
C294   C     0.15225   0.34006   0.26480   0.00000  Uiso   1.00
C295   C     0.12242   0.35494   0.33249   0.00000  Uiso   1.00
C296   C     0.09740   0.36675   0.20891   0.00000  Uiso   1.00
C297   C     0.25681   0.32342   0.31185   0.00000  Uiso   1.00
C298   C     0.31490   0.32433   0.41910   0.00000  Uiso   1.00
C299   C     0.37791   0.32213   0.33513   0.00000  Uiso   1.00
H300   H     0.19511   0.31763   0.89221   0.00000  Uiso   1.00
H301   H     0.12307   0.28959   0.91100   0.00000  Uiso   1.00
H302   H     0.13556   0.34654   0.81369   0.00000  Uiso   1.00
H303   H     0.32801   0.31593   0.90028   0.00000  Uiso   1.00
H304   H     0.04112   0.25983   0.01323   0.00000  Uiso   1.00
H305   H     0.06748   0.37991   0.80803   0.00000  Uiso   1.00
H306   H     0.47329   0.31537   0.99063   0.00000  Uiso   1.00
H307   H     0.17925   0.32778   0.51944   0.00000  Uiso   1.00
H308   H     0.10633   0.30030   0.57266   0.00000  Uiso   1.00
H309   H     0.11882   0.35725   0.47533   0.00000  Uiso   1.00
H310   H     0.31127   0.32664   0.56193   0.00000  Uiso   1.00
H311   H     0.02753   0.26852   0.55025   0.00000  Uiso   1.00
H312   H     0.05389   0.38860   0.34504   0.00000  Uiso   1.00
H313   H     0.45970   0.32405   0.52765   0.00000  Uiso   1.00
O314   O     0.98662   0.24591   0.30542   0.00000  Uiso   1.00
O315   O     0.02122   0.40346   0.03620   0.00000  Uiso   1.00
O316   O     0.55364   0.31878   0.27577   0.00000  Uiso   1.00
N317   N     0.04794   0.26564   0.13232   0.00000  Uiso   1.00
N318   N     0.07257   0.37791   0.94047   0.00000  Uiso   1.00
N319   N     0.45198   0.31757   0.11118   0.00000  Uiso   1.00
N320   N     0.04062   0.27032   0.42129   0.00000  Uiso   1.00
N321   N     0.06526   0.38259   0.22943   0.00000  Uiso   1.00
N322   N     0.44466   0.32225   0.40014   0.00000  Uiso   1.00
C323   C     0.19148   0.81996   0.53591   0.00000  Uiso   1.00
C324   C     0.15014   0.80613   0.63310   0.00000  Uiso   1.00
C325   C     0.11945   0.79190   0.55385   0.00000  Uiso   1.00
C326   C     0.08387   0.78075   0.66585   0.00000  Uiso   1.00
C327   C     0.02037   0.75883   0.78867   0.00000  Uiso   1.00
C328   C     0.15692   0.83707   0.58023   0.00000  Uiso   1.00
C329   C     0.13194   0.84886   0.45651   0.00000  Uiso   1.00
C330   C     0.10207   0.86375   0.52401   0.00000  Uiso   1.00
C331   C     0.04914   0.88988   0.56473   0.00000  Uiso   1.00
C332   C     0.26148   0.82044   0.62727   0.00000  Uiso   1.00
C333   C     0.32442   0.81824   0.54312   0.00000  Uiso   1.00
C334   C     0.38259   0.81914   0.65022   0.00000  Uiso   1.00
C335   C     0.49200   0.81944   0.76400   0.00000  Uiso   1.00
C336   C     0.18288   0.82545   0.87573   0.00000  Uiso   1.00
C337   C     0.14547   0.80912   0.81768   0.00000  Uiso   1.00
C338   C     0.10994   0.79798   0.92983   0.00000  Uiso   1.00
C339   C     0.07920   0.78374   0.85076   0.00000  Uiso   1.00
C340   C     0.15225   0.84006   0.76480   0.00000  Uiso   1.00
C341   C     0.12242   0.85494   0.83249   0.00000  Uiso   1.00
C342   C     0.09740   0.86675   0.70891   0.00000  Uiso   1.00
C343   C     0.25681   0.82342   0.81185   0.00000  Uiso   1.00
C344   C     0.31490   0.82433   0.91910   0.00000  Uiso   1.00
C345   C     0.37791   0.82213   0.83513   0.00000  Uiso   1.00
H346   H     0.19511   0.81763   0.39221   0.00000  Uiso   1.00
H347   H     0.12307   0.78959   0.41100   0.00000  Uiso   1.00
H348   H     0.13556   0.84654   0.31369   0.00000  Uiso   1.00
H349   H     0.32801   0.81593   0.40028   0.00000  Uiso   1.00
H350   H     0.04112   0.75983   0.51323   0.00000  Uiso   1.00
H351   H     0.06748   0.87991   0.30803   0.00000  Uiso   1.00
H352   H     0.47329   0.81537   0.49063   0.00000  Uiso   1.00
H353   H     0.17925   0.82778   0.01944   0.00000  Uiso   1.00
H354   H     0.10633   0.80030   0.07266   0.00000  Uiso   1.00
H355   H     0.11882   0.85725   0.97533   0.00000  Uiso   1.00
H356   H     0.31127   0.82664   0.06193   0.00000  Uiso   1.00
H357   H     0.02753   0.76852   0.05025   0.00000  Uiso   1.00
H358   H     0.05389   0.88860   0.84504   0.00000  Uiso   1.00
H359   H     0.45970   0.82405   0.02765   0.00000  Uiso   1.00
O360   O     0.98662   0.74591   0.80542   0.00000  Uiso   1.00
O361   O     0.02122   0.90346   0.53620   0.00000  Uiso   1.00
O362   O     0.55364   0.81878   0.77577   0.00000  Uiso   1.00
N363   N     0.04794   0.76564   0.63232   0.00000  Uiso   1.00
N364   N     0.07257   0.87791   0.44047   0.00000  Uiso   1.00
N365   N     0.45198   0.81757   0.61118   0.00000  Uiso   1.00
N366   N     0.04062   0.77032   0.92129   0.00000  Uiso   1.00
N367   N     0.06526   0.88259   0.72943   0.00000  Uiso   1.00
N368   N     0.44466   0.82225   0.90014   0.00000  Uiso   1.00
C369   C     0.55852   0.56996   0.78591   0.00000  Uiso   1.00
C370   C     0.59986   0.55613   0.88310   0.00000  Uiso   1.00
C371   C     0.63055   0.54190   0.80385   0.00000  Uiso   1.00
C372   C     0.66613   0.53075   0.91585   0.00000  Uiso   1.00
C373   C     0.72963   0.50883   0.03867   0.00000  Uiso   1.00
C374   C     0.59308   0.58707   0.83023   0.00000  Uiso   1.00
C375   C     0.61806   0.59886   0.70651   0.00000  Uiso   1.00
C376   C     0.64793   0.61375   0.77401   0.00000  Uiso   1.00
C377   C     0.70086   0.63988   0.81473   0.00000  Uiso   1.00
C378   C     0.48852   0.57044   0.87727   0.00000  Uiso   1.00
C379   C     0.42558   0.56824   0.79312   0.00000  Uiso   1.00
C380   C     0.36741   0.56914   0.90022   0.00000  Uiso   1.00
C381   C     0.25800   0.56944   0.01400   0.00000  Uiso   1.00
C382   C     0.56712   0.57545   0.12573   0.00000  Uiso   1.00
C383   C     0.60453   0.55912   0.06768   0.00000  Uiso   1.00
C384   C     0.64006   0.54798   0.17983   0.00000  Uiso   1.00
C385   C     0.67080   0.53374   0.10076   0.00000  Uiso   1.00
C386   C     0.59775   0.59006   0.01480   0.00000  Uiso   1.00
C387   C     0.62758   0.60494   0.08249   0.00000  Uiso   1.00
C388   C     0.65260   0.61675   0.95891   0.00000  Uiso   1.00
C389   C     0.49319   0.57342   0.06185   0.00000  Uiso   1.00
C390   C     0.43510   0.57433   0.16910   0.00000  Uiso   1.00
C391   C     0.37209   0.57213   0.08513   0.00000  Uiso   1.00
H392   H     0.55489   0.56763   0.64221   0.00000  Uiso   1.00
H393   H     0.62693   0.53959   0.66100   0.00000  Uiso   1.00
H394   H     0.61444   0.59654   0.56369   0.00000  Uiso   1.00
H395   H     0.42199   0.56593   0.65028   0.00000  Uiso   1.00
H396   H     0.70888   0.50983   0.76323   0.00000  Uiso   1.00
H397   H     0.68252   0.62991   0.55803   0.00000  Uiso   1.00
H398   H     0.27671   0.56537   0.74063   0.00000  Uiso   1.00
H399   H     0.57075   0.57778   0.26944   0.00000  Uiso   1.00
H400   H     0.64367   0.55030   0.32266   0.00000  Uiso   1.00
H401   H     0.63118   0.60725   0.22533   0.00000  Uiso   1.00
H402   H     0.43873   0.57664   0.31193   0.00000  Uiso   1.00
H403   H     0.72247   0.51852   0.30025   0.00000  Uiso   1.00
H404   H     0.69611   0.63860   0.09504   0.00000  Uiso   1.00
H405   H     0.29030   0.57405   0.27765   0.00000  Uiso   1.00
O406   O     0.76338   0.49591   0.05542   0.00000  Uiso   1.00
O407   O     0.72878   0.65346   0.78620   0.00000  Uiso   1.00
O408   O     0.19636   0.56878   0.02577   0.00000  Uiso   1.00
N409   N     0.70206   0.51564   0.88232   0.00000  Uiso   1.00
N410   N     0.67743   0.62791   0.69047   0.00000  Uiso   1.00
N411   N     0.29802   0.56757   0.86118   0.00000  Uiso   1.00
N412   N     0.70938   0.52032   0.17129   0.00000  Uiso   1.00
N413   N     0.68474   0.63259   0.97943   0.00000  Uiso   1.00
N414   N     0.30534   0.57225   0.15014   0.00000  Uiso   1.00
C415   C     0.55852   0.06996   0.28591   0.00000  Uiso   1.00
C416   C     0.59986   0.05613   0.38310   0.00000  Uiso   1.00
C417   C     0.63055   0.04190   0.30385   0.00000  Uiso   1.00
C418   C     0.66613   0.03075   0.41585   0.00000  Uiso   1.00
C419   C     0.72963   0.00883   0.53867   0.00000  Uiso   1.00
C420   C     0.59308   0.08707   0.33023   0.00000  Uiso   1.00
C421   C     0.61806   0.09886   0.20651   0.00000  Uiso   1.00
C422   C     0.64793   0.11375   0.27401   0.00000  Uiso   1.00
C423   C     0.70086   0.13988   0.31473   0.00000  Uiso   1.00
C424   C     0.48852   0.07044   0.37727   0.00000  Uiso   1.00
C425   C     0.42558   0.06824   0.29312   0.00000  Uiso   1.00
C426   C     0.36741   0.06914   0.40022   0.00000  Uiso   1.00
C427   C     0.25800   0.06944   0.51400   0.00000  Uiso   1.00
C428   C     0.56712   0.07545   0.62573   0.00000  Uiso   1.00
C429   C     0.60453   0.05912   0.56768   0.00000  Uiso   1.00
C430   C     0.64006   0.04798   0.67983   0.00000  Uiso   1.00
C431   C     0.67080   0.03374   0.60076   0.00000  Uiso   1.00
C432   C     0.59775   0.09006   0.51480   0.00000  Uiso   1.00
C433   C     0.62758   0.10494   0.58249   0.00000  Uiso   1.00
C434   C     0.65260   0.11675   0.45891   0.00000  Uiso   1.00
C435   C     0.49319   0.07342   0.56185   0.00000  Uiso   1.00
C436   C     0.43510   0.07433   0.66910   0.00000  Uiso   1.00
C437   C     0.37209   0.07213   0.58513   0.00000  Uiso   1.00
H438   H     0.55489   0.06763   0.14221   0.00000  Uiso   1.00
H439   H     0.62693   0.03959   0.16100   0.00000  Uiso   1.00
H440   H     0.61444   0.09654   0.06369   0.00000  Uiso   1.00
H441   H     0.42199   0.06593   0.15028   0.00000  Uiso   1.00
H442   H     0.70888   0.00983   0.26323   0.00000  Uiso   1.00
H443   H     0.68252   0.12991   0.05803   0.00000  Uiso   1.00
H444   H     0.27671   0.06537   0.24063   0.00000  Uiso   1.00
H445   H     0.57075   0.07778   0.76944   0.00000  Uiso   1.00
H446   H     0.64367   0.05030   0.82266   0.00000  Uiso   1.00
H447   H     0.63118   0.10725   0.72533   0.00000  Uiso   1.00
H448   H     0.43873   0.07664   0.81193   0.00000  Uiso   1.00
H449   H     0.72247   0.01852   0.80025   0.00000  Uiso   1.00
H450   H     0.69611   0.13860   0.59504   0.00000  Uiso   1.00
H451   H     0.29030   0.07405   0.77765   0.00000  Uiso   1.00
O452   O     0.76338   0.99591   0.55542   0.00000  Uiso   1.00
O453   O     0.72878   0.15346   0.28620   0.00000  Uiso   1.00
O454   O     0.19636   0.06878   0.52577   0.00000  Uiso   1.00
N455   N     0.70206   0.01564   0.38232   0.00000  Uiso   1.00
N456   N     0.67743   0.12791   0.19047   0.00000  Uiso   1.00
N457   N     0.29802   0.06757   0.36118   0.00000  Uiso   1.00
N458   N     0.70938   0.02032   0.67129   0.00000  Uiso   1.00
N459   N     0.68474   0.13259   0.47943   0.00000  Uiso   1.00
N460   N     0.30534   0.07225   0.65014   0.00000  Uiso   1.00
C461   C     0.05852   0.56996   0.28591   0.00000  Uiso   1.00
C462   C     0.09986   0.55613   0.38310   0.00000  Uiso   1.00
C463   C     0.13055   0.54190   0.30385   0.00000  Uiso   1.00
C464   C     0.16613   0.53075   0.41585   0.00000  Uiso   1.00
C465   C     0.22963   0.50883   0.53867   0.00000  Uiso   1.00
C466   C     0.09308   0.58707   0.33023   0.00000  Uiso   1.00
C467   C     0.11806   0.59886   0.20651   0.00000  Uiso   1.00
C468   C     0.14793   0.61375   0.27401   0.00000  Uiso   1.00
C469   C     0.20086   0.63988   0.31473   0.00000  Uiso   1.00
C470   C     0.98852   0.57044   0.37727   0.00000  Uiso   1.00
C471   C     0.92558   0.56824   0.29312   0.00000  Uiso   1.00
C472   C     0.86741   0.56914   0.40022   0.00000  Uiso   1.00
C473   C     0.75800   0.56944   0.51400   0.00000  Uiso   1.00
C474   C     0.06712   0.57545   0.62573   0.00000  Uiso   1.00
C475   C     0.10453   0.55912   0.56768   0.00000  Uiso   1.00
C476   C     0.14006   0.54798   0.67983   0.00000  Uiso   1.00
C477   C     0.17080   0.53374   0.60076   0.00000  Uiso   1.00
C478   C     0.09775   0.59006   0.51480   0.00000  Uiso   1.00
C479   C     0.12758   0.60494   0.58249   0.00000  Uiso   1.00
C480   C     0.15260   0.61675   0.45891   0.00000  Uiso   1.00
C481   C     0.99319   0.57342   0.56185   0.00000  Uiso   1.00
C482   C     0.93510   0.57433   0.66910   0.00000  Uiso   1.00
C483   C     0.87209   0.57213   0.58513   0.00000  Uiso   1.00
H484   H     0.05489   0.56763   0.14221   0.00000  Uiso   1.00
H485   H     0.12693   0.53959   0.16100   0.00000  Uiso   1.00
H486   H     0.11444   0.59654   0.06369   0.00000  Uiso   1.00
H487   H     0.92199   0.56593   0.15028   0.00000  Uiso   1.00
H488   H     0.20888   0.50983   0.26323   0.00000  Uiso   1.00
H489   H     0.18252   0.62991   0.05803   0.00000  Uiso   1.00
H490   H     0.77671   0.56537   0.24063   0.00000  Uiso   1.00
H491   H     0.07075   0.57778   0.76944   0.00000  Uiso   1.00
H492   H     0.14367   0.55030   0.82266   0.00000  Uiso   1.00
H493   H     0.13118   0.60725   0.72533   0.00000  Uiso   1.00
H494   H     0.93873   0.57664   0.81193   0.00000  Uiso   1.00
H495   H     0.22247   0.51852   0.80025   0.00000  Uiso   1.00
H496   H     0.19611   0.63860   0.59504   0.00000  Uiso   1.00
H497   H     0.79030   0.57405   0.77765   0.00000  Uiso   1.00
O498   O     0.26338   0.49591   0.55542   0.00000  Uiso   1.00
O499   O     0.22878   0.65346   0.28620   0.00000  Uiso   1.00
O500   O     0.69636   0.56878   0.52577   0.00000  Uiso   1.00
N501   N     0.20206   0.51564   0.38232   0.00000  Uiso   1.00
N502   N     0.17743   0.62791   0.19047   0.00000  Uiso   1.00
N503   N     0.79802   0.56757   0.36118   0.00000  Uiso   1.00
N504   N     0.20938   0.52032   0.67129   0.00000  Uiso   1.00
N505   N     0.18474   0.63259   0.47943   0.00000  Uiso   1.00
N506   N     0.80534   0.57225   0.65014   0.00000  Uiso   1.00
C507   C     0.05852   0.06996   0.78591   0.00000  Uiso   1.00
C508   C     0.09986   0.05613   0.88310   0.00000  Uiso   1.00
C509   C     0.13055   0.04190   0.80385   0.00000  Uiso   1.00
C510   C     0.16613   0.03075   0.91585   0.00000  Uiso   1.00
C511   C     0.22963   0.00883   0.03867   0.00000  Uiso   1.00
C512   C     0.09308   0.08707   0.83023   0.00000  Uiso   1.00
C513   C     0.11806   0.09886   0.70651   0.00000  Uiso   1.00
C514   C     0.14793   0.11375   0.77401   0.00000  Uiso   1.00
C515   C     0.20086   0.13988   0.81473   0.00000  Uiso   1.00
C516   C     0.98852   0.07044   0.87727   0.00000  Uiso   1.00
C517   C     0.92558   0.06824   0.79312   0.00000  Uiso   1.00
C518   C     0.86741   0.06914   0.90022   0.00000  Uiso   1.00
C519   C     0.75800   0.06944   0.01400   0.00000  Uiso   1.00
C520   C     0.06712   0.07545   0.12573   0.00000  Uiso   1.00
C521   C     0.10453   0.05912   0.06768   0.00000  Uiso   1.00
C522   C     0.14006   0.04798   0.17983   0.00000  Uiso   1.00
C523   C     0.17080   0.03374   0.10076   0.00000  Uiso   1.00
C524   C     0.09775   0.09006   0.01480   0.00000  Uiso   1.00
C525   C     0.12758   0.10494   0.08249   0.00000  Uiso   1.00
C526   C     0.15260   0.11675   0.95891   0.00000  Uiso   1.00
C527   C     0.99319   0.07342   0.06185   0.00000  Uiso   1.00
C528   C     0.93510   0.07433   0.16910   0.00000  Uiso   1.00
C529   C     0.87209   0.07213   0.08513   0.00000  Uiso   1.00
H530   H     0.05489   0.06763   0.64221   0.00000  Uiso   1.00
H531   H     0.12693   0.03959   0.66100   0.00000  Uiso   1.00
H532   H     0.11444   0.09654   0.56369   0.00000  Uiso   1.00
H533   H     0.92199   0.06593   0.65028   0.00000  Uiso   1.00
H534   H     0.20888   0.00983   0.76323   0.00000  Uiso   1.00
H535   H     0.18252   0.12991   0.55803   0.00000  Uiso   1.00
H536   H     0.77671   0.06537   0.74063   0.00000  Uiso   1.00
H537   H     0.07075   0.07778   0.26944   0.00000  Uiso   1.00
H538   H     0.14367   0.05030   0.32266   0.00000  Uiso   1.00
H539   H     0.13118   0.10725   0.22533   0.00000  Uiso   1.00
H540   H     0.93873   0.07664   0.31193   0.00000  Uiso   1.00
H541   H     0.22247   0.01852   0.30025   0.00000  Uiso   1.00
H542   H     0.19611   0.13860   0.09504   0.00000  Uiso   1.00
H543   H     0.79030   0.07405   0.27765   0.00000  Uiso   1.00
O544   O     0.26338   0.99591   0.05542   0.00000  Uiso   1.00
O545   O     0.22878   0.15346   0.78620   0.00000  Uiso   1.00
O546   O     0.69636   0.06878   0.02577   0.00000  Uiso   1.00
N547   N     0.20206   0.01564   0.88232   0.00000  Uiso   1.00
N548   N     0.17743   0.12791   0.69047   0.00000  Uiso   1.00
N549   N     0.79802   0.06757   0.86118   0.00000  Uiso   1.00
N550   N     0.20938   0.02032   0.17129   0.00000  Uiso   1.00
N551   N     0.18474   0.13259   0.97943   0.00000  Uiso   1.00
N552   N     0.80534   0.07225   0.15014   0.00000  Uiso   1.00
C553   C     0.94148   0.93004   0.78591   0.00000  Uiso   1.00
C554   C     0.90014   0.94387   0.88310   0.00000  Uiso   1.00
C555   C     0.86945   0.95810   0.80385   0.00000  Uiso   1.00
C556   C     0.83387   0.96925   0.91585   0.00000  Uiso   1.00
C557   C     0.77037   0.99117   0.03867   0.00000  Uiso   1.00
C558   C     0.90692   0.91293   0.83023   0.00000  Uiso   1.00
C559   C     0.88194   0.90114   0.70651   0.00000  Uiso   1.00
C560   C     0.85207   0.88625   0.77401   0.00000  Uiso   1.00
C561   C     0.79914   0.86012   0.81473   0.00000  Uiso   1.00
C562   C     0.01148   0.92956   0.87727   0.00000  Uiso   1.00
C563   C     0.07442   0.93176   0.79312   0.00000  Uiso   1.00
C564   C     0.13259   0.93086   0.90022   0.00000  Uiso   1.00
C565   C     0.24200   0.93056   0.01400   0.00000  Uiso   1.00
C566   C     0.93288   0.92455   0.12573   0.00000  Uiso   1.00
C567   C     0.89547   0.94088   0.06768   0.00000  Uiso   1.00
C568   C     0.85994   0.95202   0.17983   0.00000  Uiso   1.00
C569   C     0.82920   0.96626   0.10076   0.00000  Uiso   1.00
C570   C     0.90225   0.90994   0.01480   0.00000  Uiso   1.00
C571   C     0.87242   0.89506   0.08249   0.00000  Uiso   1.00
C572   C     0.84740   0.88325   0.95891   0.00000  Uiso   1.00
C573   C     0.00681   0.92658   0.06185   0.00000  Uiso   1.00
C574   C     0.06490   0.92567   0.16910   0.00000  Uiso   1.00
C575   C     0.12791   0.92787   0.08513   0.00000  Uiso   1.00
H576   H     0.94511   0.93237   0.64221   0.00000  Uiso   1.00
H577   H     0.87307   0.96041   0.66100   0.00000  Uiso   1.00
H578   H     0.88556   0.90346   0.56369   0.00000  Uiso   1.00
H579   H     0.07801   0.93407   0.65028   0.00000  Uiso   1.00
H580   H     0.79112   0.99017   0.76323   0.00000  Uiso   1.00
H581   H     0.81748   0.87009   0.55803   0.00000  Uiso   1.00
H582   H     0.22329   0.93463   0.74063   0.00000  Uiso   1.00
H583   H     0.92925   0.92222   0.26944   0.00000  Uiso   1.00
H584   H     0.85633   0.94970   0.32266   0.00000  Uiso   1.00
H585   H     0.86882   0.89275   0.22533   0.00000  Uiso   1.00
H586   H     0.06127   0.92336   0.31193   0.00000  Uiso   1.00
H587   H     0.77753   0.98148   0.30025   0.00000  Uiso   1.00
H588   H     0.80389   0.86140   0.09504   0.00000  Uiso   1.00
H589   H     0.20970   0.92595   0.27765   0.00000  Uiso   1.00
O590   O     0.73662   0.00409   0.05542   0.00000  Uiso   1.00
O591   O     0.77122   0.84654   0.78620   0.00000  Uiso   1.00
O592   O     0.30364   0.93122   0.02577   0.00000  Uiso   1.00
N593   N     0.79794   0.98436   0.88232   0.00000  Uiso   1.00
N594   N     0.82257   0.87209   0.69047   0.00000  Uiso   1.00
N595   N     0.20198   0.93243   0.86118   0.00000  Uiso   1.00
N596   N     0.79062   0.97968   0.17129   0.00000  Uiso   1.00
N597   N     0.81526   0.86741   0.97943   0.00000  Uiso   1.00
N598   N     0.19466   0.92775   0.15014   0.00000  Uiso   1.00
C599   C     0.94148   0.43004   0.28591   0.00000  Uiso   1.00
C600   C     0.90014   0.44387   0.38310   0.00000  Uiso   1.00
C601   C     0.86945   0.45810   0.30385   0.00000  Uiso   1.00
C602   C     0.83387   0.46925   0.41585   0.00000  Uiso   1.00
C603   C     0.77037   0.49117   0.53867   0.00000  Uiso   1.00
C604   C     0.90692   0.41293   0.33023   0.00000  Uiso   1.00
C605   C     0.88194   0.40114   0.20651   0.00000  Uiso   1.00
C606   C     0.85207   0.38625   0.27401   0.00000  Uiso   1.00
C607   C     0.79914   0.36012   0.31473   0.00000  Uiso   1.00
C608   C     0.01148   0.42956   0.37727   0.00000  Uiso   1.00
C609   C     0.07442   0.43176   0.29312   0.00000  Uiso   1.00
C610   C     0.13259   0.43086   0.40022   0.00000  Uiso   1.00
C611   C     0.24200   0.43056   0.51400   0.00000  Uiso   1.00
C612   C     0.93288   0.42455   0.62573   0.00000  Uiso   1.00
C613   C     0.89547   0.44088   0.56768   0.00000  Uiso   1.00
C614   C     0.85994   0.45202   0.67983   0.00000  Uiso   1.00
C615   C     0.82920   0.46626   0.60076   0.00000  Uiso   1.00
C616   C     0.90225   0.40994   0.51480   0.00000  Uiso   1.00
C617   C     0.87242   0.39506   0.58249   0.00000  Uiso   1.00
C618   C     0.84740   0.38325   0.45891   0.00000  Uiso   1.00
C619   C     0.00681   0.42658   0.56185   0.00000  Uiso   1.00
C620   C     0.06490   0.42567   0.66910   0.00000  Uiso   1.00
C621   C     0.12791   0.42787   0.58513   0.00000  Uiso   1.00
H622   H     0.94511   0.43237   0.14221   0.00000  Uiso   1.00
H623   H     0.87307   0.46041   0.16100   0.00000  Uiso   1.00
H624   H     0.88556   0.40346   0.06369   0.00000  Uiso   1.00
H625   H     0.07801   0.43407   0.15028   0.00000  Uiso   1.00
H626   H     0.79112   0.49017   0.26323   0.00000  Uiso   1.00
H627   H     0.81748   0.37009   0.05803   0.00000  Uiso   1.00
H628   H     0.22329   0.43463   0.24063   0.00000  Uiso   1.00
H629   H     0.92925   0.42222   0.76944   0.00000  Uiso   1.00
H630   H     0.85633   0.44970   0.82266   0.00000  Uiso   1.00
H631   H     0.86882   0.39275   0.72533   0.00000  Uiso   1.00
H632   H     0.06127   0.42336   0.81193   0.00000  Uiso   1.00
H633   H     0.77753   0.48148   0.80025   0.00000  Uiso   1.00
H634   H     0.80389   0.36140   0.59504   0.00000  Uiso   1.00
H635   H     0.20970   0.42595   0.77765   0.00000  Uiso   1.00
O636   O     0.73662   0.50409   0.55542   0.00000  Uiso   1.00
O637   O     0.77122   0.34654   0.28620   0.00000  Uiso   1.00
O638   O     0.30364   0.43122   0.52577   0.00000  Uiso   1.00
N639   N     0.79794   0.48436   0.38232   0.00000  Uiso   1.00
N640   N     0.82257   0.37209   0.19047   0.00000  Uiso   1.00
N641   N     0.20198   0.43243   0.36118   0.00000  Uiso   1.00
N642   N     0.79062   0.47968   0.67129   0.00000  Uiso   1.00
N643   N     0.81526   0.36741   0.47943   0.00000  Uiso   1.00
N644   N     0.19466   0.42775   0.65014   0.00000  Uiso   1.00
C645   C     0.44148   0.93004   0.28591   0.00000  Uiso   1.00
C646   C     0.40014   0.94387   0.38310   0.00000  Uiso   1.00
C647   C     0.36945   0.95810   0.30385   0.00000  Uiso   1.00
C648   C     0.33387   0.96925   0.41585   0.00000  Uiso   1.00
C649   C     0.27037   0.99117   0.53867   0.00000  Uiso   1.00
C650   C     0.40692   0.91293   0.33023   0.00000  Uiso   1.00
C651   C     0.38194   0.90114   0.20651   0.00000  Uiso   1.00
C652   C     0.35207   0.88625   0.27401   0.00000  Uiso   1.00
C653   C     0.29914   0.86012   0.31473   0.00000  Uiso   1.00
C654   C     0.51148   0.92956   0.37727   0.00000  Uiso   1.00
C655   C     0.57442   0.93176   0.29312   0.00000  Uiso   1.00
C656   C     0.63259   0.93086   0.40022   0.00000  Uiso   1.00
C657   C     0.74200   0.93056   0.51400   0.00000  Uiso   1.00
C658   C     0.43288   0.92455   0.62573   0.00000  Uiso   1.00
C659   C     0.39547   0.94088   0.56768   0.00000  Uiso   1.00
C660   C     0.35994   0.95202   0.67983   0.00000  Uiso   1.00
C661   C     0.32920   0.96626   0.60076   0.00000  Uiso   1.00
C662   C     0.40225   0.90994   0.51480   0.00000  Uiso   1.00
C663   C     0.37242   0.89506   0.58249   0.00000  Uiso   1.00
C664   C     0.34740   0.88325   0.45891   0.00000  Uiso   1.00
C665   C     0.50681   0.92658   0.56185   0.00000  Uiso   1.00
C666   C     0.56490   0.92567   0.66910   0.00000  Uiso   1.00
C667   C     0.62791   0.92787   0.58513   0.00000  Uiso   1.00
H668   H     0.44511   0.93237   0.14221   0.00000  Uiso   1.00
H669   H     0.37307   0.96041   0.16100   0.00000  Uiso   1.00
H670   H     0.38556   0.90346   0.06369   0.00000  Uiso   1.00
H671   H     0.57801   0.93407   0.15028   0.00000  Uiso   1.00
H672   H     0.29112   0.99017   0.26323   0.00000  Uiso   1.00
H673   H     0.31748   0.87009   0.05803   0.00000  Uiso   1.00
H674   H     0.72329   0.93463   0.24063   0.00000  Uiso   1.00
H675   H     0.42925   0.92222   0.76944   0.00000  Uiso   1.00
H676   H     0.35633   0.94970   0.82266   0.00000  Uiso   1.00
H677   H     0.36882   0.89275   0.72533   0.00000  Uiso   1.00
H678   H     0.56127   0.92336   0.81193   0.00000  Uiso   1.00
H679   H     0.27753   0.98148   0.80025   0.00000  Uiso   1.00
H680   H     0.30389   0.86140   0.59504   0.00000  Uiso   1.00
H681   H     0.70970   0.92595   0.77765   0.00000  Uiso   1.00
O682   O     0.23662   0.00409   0.55542   0.00000  Uiso   1.00
O683   O     0.27122   0.84654   0.28620   0.00000  Uiso   1.00
O684   O     0.80364   0.93122   0.52577   0.00000  Uiso   1.00
N685   N     0.29794   0.98436   0.38232   0.00000  Uiso   1.00
N686   N     0.32257   0.87209   0.19047   0.00000  Uiso   1.00
N687   N     0.70198   0.93243   0.36118   0.00000  Uiso   1.00
N688   N     0.29062   0.97968   0.67129   0.00000  Uiso   1.00
N689   N     0.31526   0.86741   0.47943   0.00000  Uiso   1.00
N690   N     0.69466   0.92775   0.65014   0.00000  Uiso   1.00
C691   C     0.44148   0.43004   0.78591   0.00000  Uiso   1.00
C692   C     0.40014   0.44387   0.88310   0.00000  Uiso   1.00
C693   C     0.36945   0.45810   0.80385   0.00000  Uiso   1.00
C694   C     0.33387   0.46925   0.91585   0.00000  Uiso   1.00
C695   C     0.27037   0.49117   0.03867   0.00000  Uiso   1.00
C696   C     0.40692   0.41293   0.83023   0.00000  Uiso   1.00
C697   C     0.38194   0.40114   0.70651   0.00000  Uiso   1.00
C698   C     0.35207   0.38625   0.77401   0.00000  Uiso   1.00
C699   C     0.29914   0.36012   0.81473   0.00000  Uiso   1.00
C700   C     0.51148   0.42956   0.87727   0.00000  Uiso   1.00
C701   C     0.57442   0.43176   0.79312   0.00000  Uiso   1.00
C702   C     0.63259   0.43086   0.90022   0.00000  Uiso   1.00
C703   C     0.74200   0.43056   0.01400   0.00000  Uiso   1.00
C704   C     0.43288   0.42455   0.12573   0.00000  Uiso   1.00
C705   C     0.39547   0.44088   0.06768   0.00000  Uiso   1.00
C706   C     0.35994   0.45202   0.17983   0.00000  Uiso   1.00
C707   C     0.32920   0.46626   0.10076   0.00000  Uiso   1.00
C708   C     0.40225   0.40994   0.01480   0.00000  Uiso   1.00
C709   C     0.37242   0.39506   0.08249   0.00000  Uiso   1.00
C710   C     0.34740   0.38325   0.95891   0.00000  Uiso   1.00
C711   C     0.50681   0.42658   0.06185   0.00000  Uiso   1.00
C712   C     0.56490   0.42567   0.16910   0.00000  Uiso   1.00
C713   C     0.62791   0.42787   0.08513   0.00000  Uiso   1.00
H714   H     0.44511   0.43237   0.64221   0.00000  Uiso   1.00
H715   H     0.37307   0.46041   0.66100   0.00000  Uiso   1.00
H716   H     0.38556   0.40346   0.56369   0.00000  Uiso   1.00
H717   H     0.57801   0.43407   0.65028   0.00000  Uiso   1.00
H718   H     0.29112   0.49017   0.76323   0.00000  Uiso   1.00
H719   H     0.31748   0.37009   0.55803   0.00000  Uiso   1.00
H720   H     0.72329   0.43463   0.74063   0.00000  Uiso   1.00
H721   H     0.42925   0.42222   0.26944   0.00000  Uiso   1.00
H722   H     0.35633   0.44970   0.32266   0.00000  Uiso   1.00
H723   H     0.36882   0.39275   0.22533   0.00000  Uiso   1.00
H724   H     0.56127   0.42336   0.31193   0.00000  Uiso   1.00
H725   H     0.27753   0.48148   0.30025   0.00000  Uiso   1.00
H726   H     0.30389   0.36140   0.09504   0.00000  Uiso   1.00
H727   H     0.70970   0.42595   0.27765   0.00000  Uiso   1.00
O728   O     0.23662   0.50409   0.05542   0.00000  Uiso   1.00
O729   O     0.27122   0.34654   0.78620   0.00000  Uiso   1.00
O730   O     0.80364   0.43122   0.02577   0.00000  Uiso   1.00
N731   N     0.29794   0.48436   0.88232   0.00000  Uiso   1.00
N732   N     0.32257   0.37209   0.69047   0.00000  Uiso   1.00
N733   N     0.70198   0.43243   0.86118   0.00000  Uiso   1.00
N734   N     0.29062   0.47968   0.17129   0.00000  Uiso   1.00
N735   N     0.31526   0.36741   0.97943   0.00000  Uiso   1.00
N736   N     0.69466   0.42775   0.15014   0.00000  Uiso   1.00
