data_job_05322
_audit_creation_date              2018-12-19
_audit_creation_method            'Materials Studio'
_symmetry_space_group_name_H-M    'P1'
_symmetry_Int_Tables_number       1
_symmetry_cell_setting            triclinic
loop_
_symmetry_equiv_pos_as_xyz
  x,y,z
_cell_length_a                    16.0912
_cell_length_b                    16.0912
_cell_length_c                    34.0082
_cell_angle_alpha                 90.0000
_cell_angle_beta                  90.0000
_cell_angle_gamma                 90.0000
loop_
_atom_site_label
_atom_site_type_symbol
_atom_site_fract_x
_atom_site_fract_y
_atom_site_fract_z
_atom_site_U_iso_or_equiv
_atom_site_adp_type
_atom_site_occupancy
C1     C     0.86583   0.71081   0.36793   0.00000  Uiso   1.00
C2     C     0.87646   0.80127   0.38033   0.00000  Uiso   1.00
C3     C     0.87022   0.83144   0.41844   0.00000  Uiso   1.00
C4     C     0.88199   0.91619   0.42368   0.00000  Uiso   1.00
C5     C     0.89580   0.04865   0.44776   0.00000  Uiso   1.00
C6     C     0.79736   0.71041   0.33693   0.00000  Uiso   1.00
C7     C     0.72463   0.66418   0.33855   0.00000  Uiso   1.00
C8     C     0.66983   0.67244   0.30726   0.00000  Uiso   1.00
C9     C     0.56087   0.66379   0.26395   0.00000  Uiso   1.00
C10    C     0.94560   0.68715   0.34647   0.00000  Uiso   1.00
C11    C     0.99750   0.62134   0.35611   0.00000  Uiso   1.00
C12    C     0.06749   0.61001   0.33284   0.00000  Uiso   1.00
C13    C     0.18870   0.56524   0.30434   0.00000  Uiso   1.00
C14    C     0.89784   0.80768   0.30947   0.00000  Uiso   1.00
C15    C     0.89384   0.85388   0.34857   0.00000  Uiso   1.00
C16    C     0.90563   0.93861   0.35376   0.00000  Uiso   1.00
C17    C     0.89941   0.96890   0.39187   0.00000  Uiso   1.00
C18    C     0.81474   0.76302   0.30518   0.00000  Uiso   1.00
C19    C     0.76004   0.77135   0.27387   0.00000  Uiso   1.00
C20    C     0.68724   0.72515   0.27545   0.00000  Uiso   1.00
C21    C     0.96299   0.73976   0.31471   0.00000  Uiso   1.00
C22    C     0.03291   0.72852   0.29143   0.00000  Uiso   1.00
C23    C     0.08491   0.66271   0.30103   0.00000  Uiso   1.00
H24    H     0.85229   0.66985   0.39265   0.00000  Uiso   1.00
H25    H     0.85675   0.79070   0.44301   0.00000  Uiso   1.00
H26    H     0.71120   0.62346   0.36313   0.00000  Uiso   1.00
H27    H     0.98403   0.58064   0.38068   0.00000  Uiso   1.00
H28    H     0.86934   0.94790   0.48483   0.00000  Uiso   1.00
H29    H     0.56244   0.59524   0.31640   0.00000  Uiso   1.00
H30    H     0.13775   0.50494   0.35341   0.00000  Uiso   1.00
H31    H     0.91137   0.84864   0.28474   0.00000  Uiso   1.00
H32    H     0.91908   0.97931   0.32918   0.00000  Uiso   1.00
H33    H     0.77351   0.81206   0.24930   0.00000  Uiso   1.00
H34    H     0.04634   0.76924   0.26686   0.00000  Uiso   1.00
H35    H     0.91991   0.10098   0.39244   0.00000  Uiso   1.00
H36    H     0.61301   0.74831   0.22401   0.00000  Uiso   1.00
H37    H     0.18832   0.65801   0.26103   0.00000  Uiso   1.00
O38    O     0.89860   0.10717   0.46981   0.00000  Uiso   1.00
O39    O     0.49597   0.64449   0.24884   0.00000  Uiso   1.00
O40    O     0.25076   0.52601   0.29740   0.00000  Uiso   1.00
N41    N     0.88020   0.96599   0.45699   0.00000  Uiso   1.00
N42    N     0.59326   0.63629   0.29952   0.00000  Uiso   1.00
N43    N     0.13111   0.55185   0.33412   0.00000  Uiso   1.00
N44    N     0.90742   0.04836   0.40728   0.00000  Uiso   1.00
N45    N     0.62047   0.71866   0.24981   0.00000  Uiso   1.00
N46    N     0.15833   0.63422   0.28441   0.00000  Uiso   1.00
C47    C     0.36583   0.21081   0.86793   0.00000  Uiso   1.00
C48    C     0.37646   0.30127   0.88033   0.00000  Uiso   1.00
C49    C     0.37022   0.33144   0.91844   0.00000  Uiso   1.00
C50    C     0.38199   0.41619   0.92368   0.00000  Uiso   1.00
C51    C     0.39580   0.54865   0.94776   0.00000  Uiso   1.00
C52    C     0.29736   0.21041   0.83693   0.00000  Uiso   1.00
C53    C     0.22463   0.16418   0.83855   0.00000  Uiso   1.00
C54    C     0.16983   0.17244   0.80726   0.00000  Uiso   1.00
C55    C     0.06087   0.16379   0.76395   0.00000  Uiso   1.00
C56    C     0.44560   0.18715   0.84647   0.00000  Uiso   1.00
C57    C     0.49750   0.12134   0.85611   0.00000  Uiso   1.00
C58    C     0.56749   0.11001   0.83284   0.00000  Uiso   1.00
C59    C     0.68870   0.06524   0.80434   0.00000  Uiso   1.00
C60    C     0.39784   0.30768   0.80947   0.00000  Uiso   1.00
C61    C     0.39384   0.35388   0.84857   0.00000  Uiso   1.00
C62    C     0.40563   0.43861   0.85376   0.00000  Uiso   1.00
C63    C     0.39941   0.46890   0.89187   0.00000  Uiso   1.00
C64    C     0.31474   0.26302   0.80518   0.00000  Uiso   1.00
C65    C     0.26004   0.27135   0.77387   0.00000  Uiso   1.00
C66    C     0.18724   0.22515   0.77545   0.00000  Uiso   1.00
C67    C     0.46299   0.23976   0.81471   0.00000  Uiso   1.00
C68    C     0.53291   0.22852   0.79143   0.00000  Uiso   1.00
C69    C     0.58491   0.16271   0.80103   0.00000  Uiso   1.00
H70    H     0.35229   0.16985   0.89265   0.00000  Uiso   1.00
H71    H     0.35675   0.29070   0.94301   0.00000  Uiso   1.00
H72    H     0.21120   0.12346   0.86313   0.00000  Uiso   1.00
H73    H     0.48403   0.08064   0.88068   0.00000  Uiso   1.00
H74    H     0.36934   0.44790   0.98483   0.00000  Uiso   1.00
H75    H     0.06244   0.09524   0.81640   0.00000  Uiso   1.00
H76    H     0.63775   0.00494   0.85341   0.00000  Uiso   1.00
H77    H     0.41137   0.34864   0.78474   0.00000  Uiso   1.00
H78    H     0.41908   0.47931   0.82918   0.00000  Uiso   1.00
H79    H     0.27351   0.31206   0.74930   0.00000  Uiso   1.00
H80    H     0.54634   0.26924   0.76686   0.00000  Uiso   1.00
H81    H     0.41991   0.60098   0.89244   0.00000  Uiso   1.00
H82    H     0.11301   0.24831   0.72401   0.00000  Uiso   1.00
H83    H     0.68832   0.15801   0.76103   0.00000  Uiso   1.00
O84    O     0.39860   0.60717   0.96981   0.00000  Uiso   1.00
O85    O     0.99597   0.14449   0.74884   0.00000  Uiso   1.00
O86    O     0.75076   0.02601   0.79740   0.00000  Uiso   1.00
N87    N     0.38020   0.46599   0.95699   0.00000  Uiso   1.00
N88    N     0.09326   0.13629   0.79952   0.00000  Uiso   1.00
N89    N     0.63111   0.05185   0.83412   0.00000  Uiso   1.00
N90    N     0.40742   0.54836   0.90728   0.00000  Uiso   1.00
N91    N     0.12047   0.21866   0.74981   0.00000  Uiso   1.00
N92    N     0.65833   0.13422   0.78441   0.00000  Uiso   1.00
C93    C     0.63417   0.78919   0.86793   0.00000  Uiso   1.00
C94    C     0.62354   0.69873   0.88033   0.00000  Uiso   1.00
C95    C     0.62978   0.66856   0.91844   0.00000  Uiso   1.00
C96    C     0.61801   0.58381   0.92368   0.00000  Uiso   1.00
C97    C     0.60420   0.45135   0.94776   0.00000  Uiso   1.00
C98    C     0.70264   0.78959   0.83693   0.00000  Uiso   1.00
C99    C     0.77537   0.83582   0.83855   0.00000  Uiso   1.00
C100   C     0.83017   0.82756   0.80726   0.00000  Uiso   1.00
C101   C     0.93913   0.83621   0.76395   0.00000  Uiso   1.00
C102   C     0.55440   0.81285   0.84647   0.00000  Uiso   1.00
C103   C     0.50250   0.87866   0.85611   0.00000  Uiso   1.00
C104   C     0.43251   0.88999   0.83284   0.00000  Uiso   1.00
C105   C     0.31130   0.93476   0.80434   0.00000  Uiso   1.00
C106   C     0.60216   0.69232   0.80947   0.00000  Uiso   1.00
C107   C     0.60616   0.64612   0.84857   0.00000  Uiso   1.00
C108   C     0.59437   0.56139   0.85376   0.00000  Uiso   1.00
C109   C     0.60059   0.53110   0.89187   0.00000  Uiso   1.00
C110   C     0.68526   0.73698   0.80518   0.00000  Uiso   1.00
C111   C     0.73996   0.72865   0.77387   0.00000  Uiso   1.00
C112   C     0.81276   0.77485   0.77545   0.00000  Uiso   1.00
C113   C     0.53701   0.76024   0.81471   0.00000  Uiso   1.00
C114   C     0.46709   0.77148   0.79143   0.00000  Uiso   1.00
C115   C     0.41509   0.83729   0.80103   0.00000  Uiso   1.00
H116   H     0.64771   0.83015   0.89265   0.00000  Uiso   1.00
H117   H     0.64325   0.70930   0.94301   0.00000  Uiso   1.00
H118   H     0.78880   0.87654   0.86313   0.00000  Uiso   1.00
H119   H     0.51597   0.91936   0.88068   0.00000  Uiso   1.00
H120   H     0.63066   0.55210   0.98483   0.00000  Uiso   1.00
H121   H     0.93756   0.90476   0.81640   0.00000  Uiso   1.00
H122   H     0.36225   0.99506   0.85341   0.00000  Uiso   1.00
H123   H     0.58863   0.65136   0.78474   0.00000  Uiso   1.00
H124   H     0.58092   0.52069   0.82918   0.00000  Uiso   1.00
H125   H     0.72649   0.68794   0.74930   0.00000  Uiso   1.00
H126   H     0.45366   0.73076   0.76686   0.00000  Uiso   1.00
H127   H     0.58009   0.39902   0.89244   0.00000  Uiso   1.00
H128   H     0.88699   0.75169   0.72401   0.00000  Uiso   1.00
H129   H     0.31168   0.84199   0.76103   0.00000  Uiso   1.00
O130   O     0.60140   0.39283   0.96981   0.00000  Uiso   1.00
O131   O     0.00403   0.85551   0.74884   0.00000  Uiso   1.00
O132   O     0.24924   0.97399   0.79740   0.00000  Uiso   1.00
N133   N     0.61980   0.53401   0.95699   0.00000  Uiso   1.00
N134   N     0.90674   0.86371   0.79952   0.00000  Uiso   1.00
N135   N     0.36889   0.94815   0.83412   0.00000  Uiso   1.00
N136   N     0.59258   0.45164   0.90728   0.00000  Uiso   1.00
N137   N     0.87953   0.78134   0.74981   0.00000  Uiso   1.00
N138   N     0.34167   0.86578   0.78441   0.00000  Uiso   1.00
C139   C     0.13417   0.28919   0.36793   0.00000  Uiso   1.00
C140   C     0.12354   0.19873   0.38033   0.00000  Uiso   1.00
C141   C     0.12978   0.16856   0.41844   0.00000  Uiso   1.00
C142   C     0.11801   0.08381   0.42368   0.00000  Uiso   1.00
C143   C     0.10420   0.95135   0.44776   0.00000  Uiso   1.00
C144   C     0.20264   0.28959   0.33693   0.00000  Uiso   1.00
C145   C     0.27537   0.33582   0.33855   0.00000  Uiso   1.00
C146   C     0.33017   0.32756   0.30726   0.00000  Uiso   1.00
C147   C     0.43913   0.33621   0.26395   0.00000  Uiso   1.00
C148   C     0.05440   0.31285   0.34647   0.00000  Uiso   1.00
C149   C     0.00250   0.37866   0.35611   0.00000  Uiso   1.00
C150   C     0.93251   0.38999   0.33284   0.00000  Uiso   1.00
C151   C     0.81130   0.43476   0.30434   0.00000  Uiso   1.00
C152   C     0.10216   0.19232   0.30947   0.00000  Uiso   1.00
C153   C     0.10616   0.14612   0.34857   0.00000  Uiso   1.00
C154   C     0.09437   0.06139   0.35376   0.00000  Uiso   1.00
C155   C     0.10059   0.03110   0.39187   0.00000  Uiso   1.00
C156   C     0.18526   0.23698   0.30518   0.00000  Uiso   1.00
C157   C     0.23996   0.22865   0.27387   0.00000  Uiso   1.00
C158   C     0.31276   0.27485   0.27545   0.00000  Uiso   1.00
C159   C     0.03701   0.26024   0.31471   0.00000  Uiso   1.00
C160   C     0.96709   0.27148   0.29143   0.00000  Uiso   1.00
C161   C     0.91509   0.33729   0.30103   0.00000  Uiso   1.00
H162   H     0.14771   0.33015   0.39265   0.00000  Uiso   1.00
H163   H     0.14325   0.20930   0.44301   0.00000  Uiso   1.00
H164   H     0.28880   0.37654   0.36313   0.00000  Uiso   1.00
H165   H     0.01597   0.41936   0.38068   0.00000  Uiso   1.00
H166   H     0.13066   0.05210   0.48483   0.00000  Uiso   1.00
H167   H     0.43756   0.40476   0.31640   0.00000  Uiso   1.00
H168   H     0.86225   0.49506   0.35341   0.00000  Uiso   1.00
H169   H     0.08863   0.15136   0.28474   0.00000  Uiso   1.00
H170   H     0.08092   0.02069   0.32918   0.00000  Uiso   1.00
H171   H     0.22649   0.18794   0.24930   0.00000  Uiso   1.00
H172   H     0.95366   0.23076   0.26686   0.00000  Uiso   1.00
H173   H     0.08009   0.89902   0.39244   0.00000  Uiso   1.00
H174   H     0.38699   0.25169   0.22401   0.00000  Uiso   1.00
H175   H     0.81168   0.34199   0.26103   0.00000  Uiso   1.00
O176   O     0.10140   0.89283   0.46981   0.00000  Uiso   1.00
O177   O     0.50403   0.35551   0.24884   0.00000  Uiso   1.00
O178   O     0.74924   0.47399   0.29740   0.00000  Uiso   1.00
N179   N     0.11980   0.03401   0.45699   0.00000  Uiso   1.00
N180   N     0.40674   0.36371   0.29952   0.00000  Uiso   1.00
N181   N     0.86889   0.44815   0.33412   0.00000  Uiso   1.00
N182   N     0.09258   0.95164   0.40728   0.00000  Uiso   1.00
N183   N     0.37953   0.28134   0.24981   0.00000  Uiso   1.00
N184   N     0.84167   0.36578   0.28441   0.00000  Uiso   1.00
C185   C     0.28919   0.36583   0.61793   0.00000  Uiso   1.00
C186   C     0.19873   0.37646   0.63033   0.00000  Uiso   1.00
C187   C     0.16856   0.37022   0.66844   0.00000  Uiso   1.00
C188   C     0.08381   0.38199   0.67368   0.00000  Uiso   1.00
C189   C     0.95135   0.39580   0.69776   0.00000  Uiso   1.00
C190   C     0.28959   0.29736   0.58693   0.00000  Uiso   1.00
C191   C     0.33582   0.22463   0.58855   0.00000  Uiso   1.00
C192   C     0.32756   0.16983   0.55726   0.00000  Uiso   1.00
C193   C     0.33621   0.06087   0.51395   0.00000  Uiso   1.00
C194   C     0.31285   0.44560   0.59647   0.00000  Uiso   1.00
C195   C     0.37866   0.49750   0.60611   0.00000  Uiso   1.00
C196   C     0.38999   0.56749   0.58284   0.00000  Uiso   1.00
C197   C     0.43476   0.68870   0.55434   0.00000  Uiso   1.00
C198   C     0.19232   0.39784   0.55947   0.00000  Uiso   1.00
C199   C     0.14612   0.39384   0.59857   0.00000  Uiso   1.00
C200   C     0.06139   0.40563   0.60376   0.00000  Uiso   1.00
C201   C     0.03110   0.39941   0.64187   0.00000  Uiso   1.00
C202   C     0.23698   0.31474   0.55518   0.00000  Uiso   1.00
C203   C     0.22865   0.26004   0.52387   0.00000  Uiso   1.00
C204   C     0.27485   0.18724   0.52545   0.00000  Uiso   1.00
C205   C     0.26024   0.46299   0.56471   0.00000  Uiso   1.00
C206   C     0.27148   0.53291   0.54143   0.00000  Uiso   1.00
C207   C     0.33729   0.58491   0.55103   0.00000  Uiso   1.00
H208   H     0.33015   0.35229   0.64265   0.00000  Uiso   1.00
H209   H     0.20930   0.35675   0.69301   0.00000  Uiso   1.00
H210   H     0.37654   0.21120   0.61313   0.00000  Uiso   1.00
H211   H     0.41936   0.48403   0.63068   0.00000  Uiso   1.00
H212   H     0.05210   0.36934   0.73483   0.00000  Uiso   1.00
H213   H     0.40476   0.06244   0.56640   0.00000  Uiso   1.00
H214   H     0.49506   0.63775   0.60341   0.00000  Uiso   1.00
H215   H     0.15136   0.41137   0.53474   0.00000  Uiso   1.00
H216   H     0.02069   0.41908   0.57918   0.00000  Uiso   1.00
H217   H     0.18794   0.27351   0.49930   0.00000  Uiso   1.00
H218   H     0.23076   0.54634   0.51686   0.00000  Uiso   1.00
H219   H     0.89902   0.41991   0.64244   0.00000  Uiso   1.00
H220   H     0.25169   0.11301   0.47401   0.00000  Uiso   1.00
H221   H     0.34199   0.68832   0.51103   0.00000  Uiso   1.00
O222   O     0.89283   0.39860   0.71981   0.00000  Uiso   1.00
O223   O     0.35551   0.99597   0.49884   0.00000  Uiso   1.00
O224   O     0.47399   0.75076   0.54740   0.00000  Uiso   1.00
N225   N     0.03401   0.38020   0.70699   0.00000  Uiso   1.00
N226   N     0.36371   0.09326   0.54952   0.00000  Uiso   1.00
N227   N     0.44815   0.63111   0.58412   0.00000  Uiso   1.00
N228   N     0.95164   0.40742   0.65728   0.00000  Uiso   1.00
N229   N     0.28134   0.12047   0.49981   0.00000  Uiso   1.00
N230   N     0.36578   0.65833   0.53441   0.00000  Uiso   1.00
C231   C     0.78919   0.86583   0.11793   0.00000  Uiso   1.00
C232   C     0.69873   0.87646   0.13033   0.00000  Uiso   1.00
C233   C     0.66856   0.87022   0.16844   0.00000  Uiso   1.00
C234   C     0.58381   0.88199   0.17368   0.00000  Uiso   1.00
C235   C     0.45135   0.89580   0.19776   0.00000  Uiso   1.00
C236   C     0.78959   0.79736   0.08693   0.00000  Uiso   1.00
C237   C     0.83582   0.72463   0.08855   0.00000  Uiso   1.00
C238   C     0.82756   0.66983   0.05726   0.00000  Uiso   1.00
C239   C     0.83621   0.56087   0.01395   0.00000  Uiso   1.00
C240   C     0.81285   0.94560   0.09647   0.00000  Uiso   1.00
C241   C     0.87866   0.99750   0.10611   0.00000  Uiso   1.00
C242   C     0.88999   0.06749   0.08284   0.00000  Uiso   1.00
C243   C     0.93476   0.18870   0.05434   0.00000  Uiso   1.00
C244   C     0.69232   0.89784   0.05947   0.00000  Uiso   1.00
C245   C     0.64612   0.89384   0.09857   0.00000  Uiso   1.00
C246   C     0.56139   0.90563   0.10376   0.00000  Uiso   1.00
C247   C     0.53110   0.89941   0.14187   0.00000  Uiso   1.00
C248   C     0.73698   0.81474   0.05518   0.00000  Uiso   1.00
C249   C     0.72865   0.76004   0.02387   0.00000  Uiso   1.00
C250   C     0.77485   0.68724   0.02545   0.00000  Uiso   1.00
C251   C     0.76024   0.96299   0.06471   0.00000  Uiso   1.00
C252   C     0.77148   0.03291   0.04143   0.00000  Uiso   1.00
C253   C     0.83729   0.08491   0.05103   0.00000  Uiso   1.00
H254   H     0.83015   0.85229   0.14265   0.00000  Uiso   1.00
H255   H     0.70930   0.85675   0.19301   0.00000  Uiso   1.00
H256   H     0.87654   0.71120   0.11313   0.00000  Uiso   1.00
H257   H     0.91936   0.98403   0.13068   0.00000  Uiso   1.00
H258   H     0.55210   0.86934   0.23483   0.00000  Uiso   1.00
H259   H     0.90476   0.56244   0.06640   0.00000  Uiso   1.00
H260   H     0.99506   0.13775   0.10341   0.00000  Uiso   1.00
H261   H     0.65136   0.91137   0.03474   0.00000  Uiso   1.00
H262   H     0.52069   0.91908   0.07918   0.00000  Uiso   1.00
H263   H     0.68794   0.77351   0.99930   0.00000  Uiso   1.00
H264   H     0.73076   0.04634   0.01686   0.00000  Uiso   1.00
H265   H     0.39902   0.91991   0.14244   0.00000  Uiso   1.00
H266   H     0.75169   0.61301   0.97401   0.00000  Uiso   1.00
H267   H     0.84199   0.18832   0.01103   0.00000  Uiso   1.00
O268   O     0.39283   0.89860   0.21981   0.00000  Uiso   1.00
O269   O     0.85551   0.49597   0.99884   0.00000  Uiso   1.00
O270   O     0.97399   0.25076   0.04740   0.00000  Uiso   1.00
N271   N     0.53401   0.88020   0.20699   0.00000  Uiso   1.00
N272   N     0.86371   0.59326   0.04952   0.00000  Uiso   1.00
N273   N     0.94815   0.13111   0.08412   0.00000  Uiso   1.00
N274   N     0.45164   0.90742   0.15728   0.00000  Uiso   1.00
N275   N     0.78134   0.62047   0.99981   0.00000  Uiso   1.00
N276   N     0.86578   0.15833   0.03441   0.00000  Uiso   1.00
C277   C     0.21081   0.13417   0.11793   0.00000  Uiso   1.00
C278   C     0.30127   0.12354   0.13033   0.00000  Uiso   1.00
C279   C     0.33144   0.12978   0.16844   0.00000  Uiso   1.00
C280   C     0.41619   0.11801   0.17368   0.00000  Uiso   1.00
C281   C     0.54865   0.10420   0.19776   0.00000  Uiso   1.00
C282   C     0.21041   0.20264   0.08693   0.00000  Uiso   1.00
C283   C     0.16418   0.27537   0.08855   0.00000  Uiso   1.00
C284   C     0.17244   0.33017   0.05726   0.00000  Uiso   1.00
C285   C     0.16379   0.43913   0.01395   0.00000  Uiso   1.00
C286   C     0.18715   0.05440   0.09647   0.00000  Uiso   1.00
C287   C     0.12134   0.00250   0.10611   0.00000  Uiso   1.00
C288   C     0.11001   0.93251   0.08284   0.00000  Uiso   1.00
C289   C     0.06524   0.81130   0.05434   0.00000  Uiso   1.00
C290   C     0.30768   0.10216   0.05947   0.00000  Uiso   1.00
C291   C     0.35388   0.10616   0.09857   0.00000  Uiso   1.00
C292   C     0.43861   0.09437   0.10376   0.00000  Uiso   1.00
C293   C     0.46890   0.10059   0.14187   0.00000  Uiso   1.00
C294   C     0.26302   0.18526   0.05518   0.00000  Uiso   1.00
C295   C     0.27135   0.23996   0.02387   0.00000  Uiso   1.00
C296   C     0.22515   0.31276   0.02545   0.00000  Uiso   1.00
C297   C     0.23976   0.03701   0.06471   0.00000  Uiso   1.00
C298   C     0.22852   0.96709   0.04143   0.00000  Uiso   1.00
C299   C     0.16271   0.91509   0.05103   0.00000  Uiso   1.00
H300   H     0.16985   0.14771   0.14265   0.00000  Uiso   1.00
H301   H     0.29070   0.14325   0.19301   0.00000  Uiso   1.00
H302   H     0.12346   0.28880   0.11313   0.00000  Uiso   1.00
H303   H     0.08064   0.01597   0.13068   0.00000  Uiso   1.00
H304   H     0.44790   0.13066   0.23483   0.00000  Uiso   1.00
H305   H     0.09524   0.43756   0.06640   0.00000  Uiso   1.00
H306   H     0.00494   0.86225   0.10341   0.00000  Uiso   1.00
H307   H     0.34864   0.08863   0.03474   0.00000  Uiso   1.00
H308   H     0.47931   0.08092   0.07918   0.00000  Uiso   1.00
H309   H     0.31206   0.22649   0.99930   0.00000  Uiso   1.00
H310   H     0.26924   0.95366   0.01686   0.00000  Uiso   1.00
H311   H     0.60098   0.08009   0.14244   0.00000  Uiso   1.00
H312   H     0.24831   0.38699   0.97401   0.00000  Uiso   1.00
H313   H     0.15801   0.81168   0.01103   0.00000  Uiso   1.00
O314   O     0.60717   0.10140   0.21981   0.00000  Uiso   1.00
O315   O     0.14449   0.50403   0.99884   0.00000  Uiso   1.00
O316   O     0.02601   0.74924   0.04740   0.00000  Uiso   1.00
N317   N     0.46599   0.11980   0.20699   0.00000  Uiso   1.00
N318   N     0.13629   0.40674   0.04952   0.00000  Uiso   1.00
N319   N     0.05185   0.86889   0.08412   0.00000  Uiso   1.00
N320   N     0.54836   0.09258   0.15728   0.00000  Uiso   1.00
N321   N     0.21866   0.37953   0.99981   0.00000  Uiso   1.00
N322   N     0.13422   0.84167   0.03441   0.00000  Uiso   1.00
C323   C     0.71081   0.63417   0.61793   0.00000  Uiso   1.00
C324   C     0.80127   0.62354   0.63033   0.00000  Uiso   1.00
C325   C     0.83144   0.62978   0.66844   0.00000  Uiso   1.00
C326   C     0.91619   0.61801   0.67368   0.00000  Uiso   1.00
C327   C     0.04865   0.60420   0.69776   0.00000  Uiso   1.00
C328   C     0.71041   0.70264   0.58693   0.00000  Uiso   1.00
C329   C     0.66418   0.77537   0.58855   0.00000  Uiso   1.00
C330   C     0.67244   0.83017   0.55726   0.00000  Uiso   1.00
C331   C     0.66379   0.93913   0.51395   0.00000  Uiso   1.00
C332   C     0.68715   0.55440   0.59647   0.00000  Uiso   1.00
C333   C     0.62134   0.50250   0.60611   0.00000  Uiso   1.00
C334   C     0.61001   0.43251   0.58284   0.00000  Uiso   1.00
C335   C     0.56524   0.31130   0.55434   0.00000  Uiso   1.00
C336   C     0.80768   0.60216   0.55947   0.00000  Uiso   1.00
C337   C     0.85388   0.60616   0.59857   0.00000  Uiso   1.00
C338   C     0.93861   0.59437   0.60376   0.00000  Uiso   1.00
C339   C     0.96890   0.60059   0.64187   0.00000  Uiso   1.00
C340   C     0.76302   0.68526   0.55518   0.00000  Uiso   1.00
C341   C     0.77135   0.73996   0.52387   0.00000  Uiso   1.00
C342   C     0.72515   0.81276   0.52545   0.00000  Uiso   1.00
C343   C     0.73976   0.53701   0.56471   0.00000  Uiso   1.00
C344   C     0.72852   0.46709   0.54143   0.00000  Uiso   1.00
C345   C     0.66271   0.41509   0.55103   0.00000  Uiso   1.00
H346   H     0.66985   0.64771   0.64265   0.00000  Uiso   1.00
H347   H     0.79070   0.64325   0.69301   0.00000  Uiso   1.00
H348   H     0.62346   0.78880   0.61313   0.00000  Uiso   1.00
H349   H     0.58064   0.51597   0.63068   0.00000  Uiso   1.00
H350   H     0.94790   0.63066   0.73483   0.00000  Uiso   1.00
H351   H     0.59524   0.93756   0.56640   0.00000  Uiso   1.00
H352   H     0.50494   0.36225   0.60341   0.00000  Uiso   1.00
H353   H     0.84864   0.58863   0.53474   0.00000  Uiso   1.00
H354   H     0.97931   0.58092   0.57918   0.00000  Uiso   1.00
H355   H     0.81206   0.72649   0.49930   0.00000  Uiso   1.00
H356   H     0.76924   0.45366   0.51686   0.00000  Uiso   1.00
H357   H     0.10098   0.58009   0.64244   0.00000  Uiso   1.00
H358   H     0.74831   0.88699   0.47401   0.00000  Uiso   1.00
H359   H     0.65801   0.31168   0.51103   0.00000  Uiso   1.00
O360   O     0.10717   0.60140   0.71981   0.00000  Uiso   1.00
O361   O     0.64449   0.00403   0.49884   0.00000  Uiso   1.00
O362   O     0.52601   0.24924   0.54740   0.00000  Uiso   1.00
N363   N     0.96599   0.61980   0.70699   0.00000  Uiso   1.00
N364   N     0.63629   0.90674   0.54952   0.00000  Uiso   1.00
N365   N     0.55185   0.36889   0.58412   0.00000  Uiso   1.00
N366   N     0.04836   0.59258   0.65728   0.00000  Uiso   1.00
N367   N     0.71866   0.87953   0.49981   0.00000  Uiso   1.00
N368   N     0.63422   0.34167   0.53441   0.00000  Uiso   1.00
C369   C     0.13417   0.78919   0.88207   0.00000  Uiso   1.00
C370   C     0.12354   0.69873   0.86967   0.00000  Uiso   1.00
C371   C     0.12978   0.66856   0.83156   0.00000  Uiso   1.00
C372   C     0.11801   0.58381   0.82632   0.00000  Uiso   1.00
C373   C     0.10420   0.45135   0.80224   0.00000  Uiso   1.00
C374   C     0.20264   0.78959   0.91307   0.00000  Uiso   1.00
C375   C     0.27537   0.83582   0.91145   0.00000  Uiso   1.00
C376   C     0.33017   0.82756   0.94274   0.00000  Uiso   1.00
C377   C     0.43913   0.83621   0.98605   0.00000  Uiso   1.00
C378   C     0.05440   0.81285   0.90353   0.00000  Uiso   1.00
C379   C     0.00250   0.87866   0.89389   0.00000  Uiso   1.00
C380   C     0.93251   0.88999   0.91716   0.00000  Uiso   1.00
C381   C     0.81130   0.93476   0.94566   0.00000  Uiso   1.00
C382   C     0.10216   0.69232   0.94053   0.00000  Uiso   1.00
C383   C     0.10616   0.64612   0.90143   0.00000  Uiso   1.00
C384   C     0.09437   0.56139   0.89624   0.00000  Uiso   1.00
C385   C     0.10059   0.53110   0.85813   0.00000  Uiso   1.00
C386   C     0.18526   0.73698   0.94482   0.00000  Uiso   1.00
C387   C     0.23996   0.72865   0.97613   0.00000  Uiso   1.00
C388   C     0.31276   0.77485   0.97455   0.00000  Uiso   1.00
C389   C     0.03701   0.76024   0.93529   0.00000  Uiso   1.00
C390   C     0.96709   0.77148   0.95857   0.00000  Uiso   1.00
C391   C     0.91509   0.83729   0.94897   0.00000  Uiso   1.00
H392   H     0.14771   0.83015   0.85735   0.00000  Uiso   1.00
H393   H     0.14325   0.70930   0.80699   0.00000  Uiso   1.00
H394   H     0.28880   0.87654   0.88687   0.00000  Uiso   1.00
H395   H     0.01597   0.91936   0.86932   0.00000  Uiso   1.00
H396   H     0.13066   0.55210   0.76517   0.00000  Uiso   1.00
H397   H     0.43756   0.90476   0.93360   0.00000  Uiso   1.00
H398   H     0.86225   0.99506   0.89659   0.00000  Uiso   1.00
H399   H     0.08863   0.65136   0.96526   0.00000  Uiso   1.00
H400   H     0.08092   0.52069   0.92082   0.00000  Uiso   1.00
H401   H     0.22649   0.68794   0.00070   0.00000  Uiso   1.00
H402   H     0.95366   0.73076   0.98314   0.00000  Uiso   1.00
H403   H     0.08009   0.39902   0.85756   0.00000  Uiso   1.00
H404   H     0.38699   0.75169   0.02599   0.00000  Uiso   1.00
H405   H     0.81168   0.84199   0.98897   0.00000  Uiso   1.00
O406   O     0.10140   0.39283   0.78019   0.00000  Uiso   1.00
O407   O     0.50403   0.85551   0.00116   0.00000  Uiso   1.00
O408   O     0.74924   0.97399   0.95260   0.00000  Uiso   1.00
N409   N     0.11980   0.53401   0.79301   0.00000  Uiso   1.00
N410   N     0.40674   0.86371   0.95048   0.00000  Uiso   1.00
N411   N     0.86889   0.94815   0.91588   0.00000  Uiso   1.00
N412   N     0.09258   0.45164   0.84272   0.00000  Uiso   1.00
N413   N     0.37953   0.78134   0.00019   0.00000  Uiso   1.00
N414   N     0.84167   0.86578   0.96559   0.00000  Uiso   1.00
C415   C     0.63417   0.28919   0.38207   0.00000  Uiso   1.00
C416   C     0.62354   0.19873   0.36967   0.00000  Uiso   1.00
C417   C     0.62978   0.16856   0.33156   0.00000  Uiso   1.00
C418   C     0.61801   0.08381   0.32632   0.00000  Uiso   1.00
C419   C     0.60420   0.95135   0.30224   0.00000  Uiso   1.00
C420   C     0.70264   0.28959   0.41307   0.00000  Uiso   1.00
C421   C     0.77537   0.33582   0.41145   0.00000  Uiso   1.00
C422   C     0.83017   0.32756   0.44274   0.00000  Uiso   1.00
C423   C     0.93913   0.33621   0.48605   0.00000  Uiso   1.00
C424   C     0.55440   0.31285   0.40353   0.00000  Uiso   1.00
C425   C     0.50250   0.37866   0.39389   0.00000  Uiso   1.00
C426   C     0.43251   0.38999   0.41716   0.00000  Uiso   1.00
C427   C     0.31130   0.43476   0.44566   0.00000  Uiso   1.00
C428   C     0.60216   0.19232   0.44053   0.00000  Uiso   1.00
C429   C     0.60616   0.14612   0.40143   0.00000  Uiso   1.00
C430   C     0.59437   0.06139   0.39624   0.00000  Uiso   1.00
C431   C     0.60059   0.03110   0.35813   0.00000  Uiso   1.00
C432   C     0.68526   0.23698   0.44482   0.00000  Uiso   1.00
C433   C     0.73996   0.22865   0.47613   0.00000  Uiso   1.00
C434   C     0.81276   0.27485   0.47455   0.00000  Uiso   1.00
C435   C     0.53701   0.26024   0.43529   0.00000  Uiso   1.00
C436   C     0.46709   0.27148   0.45857   0.00000  Uiso   1.00
C437   C     0.41509   0.33729   0.44897   0.00000  Uiso   1.00
H438   H     0.64771   0.33015   0.35735   0.00000  Uiso   1.00
H439   H     0.64325   0.20930   0.30699   0.00000  Uiso   1.00
H440   H     0.78880   0.37654   0.38687   0.00000  Uiso   1.00
H441   H     0.51597   0.41936   0.36932   0.00000  Uiso   1.00
H442   H     0.63066   0.05210   0.26517   0.00000  Uiso   1.00
H443   H     0.93756   0.40476   0.43360   0.00000  Uiso   1.00
H444   H     0.36225   0.49506   0.39659   0.00000  Uiso   1.00
H445   H     0.58863   0.15136   0.46526   0.00000  Uiso   1.00
H446   H     0.58092   0.02069   0.42082   0.00000  Uiso   1.00
H447   H     0.72649   0.18794   0.50070   0.00000  Uiso   1.00
H448   H     0.45366   0.23076   0.48314   0.00000  Uiso   1.00
H449   H     0.58009   0.89902   0.35756   0.00000  Uiso   1.00
H450   H     0.88699   0.25169   0.52599   0.00000  Uiso   1.00
H451   H     0.31168   0.34199   0.48897   0.00000  Uiso   1.00
O452   O     0.60140   0.89283   0.28019   0.00000  Uiso   1.00
O453   O     0.00403   0.35551   0.50116   0.00000  Uiso   1.00
O454   O     0.24924   0.47399   0.45260   0.00000  Uiso   1.00
N455   N     0.61980   0.03401   0.29301   0.00000  Uiso   1.00
N456   N     0.90674   0.36371   0.45048   0.00000  Uiso   1.00
N457   N     0.36889   0.44815   0.41588   0.00000  Uiso   1.00
N458   N     0.59258   0.95164   0.34272   0.00000  Uiso   1.00
N459   N     0.87953   0.28134   0.50019   0.00000  Uiso   1.00
N460   N     0.34167   0.36578   0.46559   0.00000  Uiso   1.00
C461   C     0.36583   0.71081   0.38207   0.00000  Uiso   1.00
C462   C     0.37646   0.80127   0.36967   0.00000  Uiso   1.00
C463   C     0.37022   0.83144   0.33156   0.00000  Uiso   1.00
C464   C     0.38199   0.91619   0.32632   0.00000  Uiso   1.00
C465   C     0.39580   0.04865   0.30224   0.00000  Uiso   1.00
C466   C     0.29736   0.71041   0.41307   0.00000  Uiso   1.00
C467   C     0.22463   0.66418   0.41145   0.00000  Uiso   1.00
C468   C     0.16983   0.67244   0.44274   0.00000  Uiso   1.00
C469   C     0.06087   0.66379   0.48605   0.00000  Uiso   1.00
C470   C     0.44560   0.68715   0.40353   0.00000  Uiso   1.00
C471   C     0.49750   0.62134   0.39389   0.00000  Uiso   1.00
C472   C     0.56749   0.61001   0.41716   0.00000  Uiso   1.00
C473   C     0.68870   0.56524   0.44566   0.00000  Uiso   1.00
C474   C     0.39784   0.80768   0.44053   0.00000  Uiso   1.00
C475   C     0.39384   0.85388   0.40143   0.00000  Uiso   1.00
C476   C     0.40563   0.93861   0.39624   0.00000  Uiso   1.00
C477   C     0.39941   0.96890   0.35813   0.00000  Uiso   1.00
C478   C     0.31474   0.76302   0.44482   0.00000  Uiso   1.00
C479   C     0.26004   0.77135   0.47613   0.00000  Uiso   1.00
C480   C     0.18724   0.72515   0.47455   0.00000  Uiso   1.00
C481   C     0.46299   0.73976   0.43529   0.00000  Uiso   1.00
C482   C     0.53291   0.72852   0.45857   0.00000  Uiso   1.00
C483   C     0.58491   0.66271   0.44897   0.00000  Uiso   1.00
H484   H     0.35229   0.66985   0.35735   0.00000  Uiso   1.00
H485   H     0.35675   0.79070   0.30699   0.00000  Uiso   1.00
H486   H     0.21120   0.62346   0.38687   0.00000  Uiso   1.00
H487   H     0.48403   0.58064   0.36932   0.00000  Uiso   1.00
H488   H     0.36934   0.94790   0.26517   0.00000  Uiso   1.00
H489   H     0.06244   0.59524   0.43360   0.00000  Uiso   1.00
H490   H     0.63775   0.50494   0.39659   0.00000  Uiso   1.00
H491   H     0.41137   0.84864   0.46526   0.00000  Uiso   1.00
H492   H     0.41908   0.97931   0.42082   0.00000  Uiso   1.00
H493   H     0.27351   0.81206   0.50070   0.00000  Uiso   1.00
H494   H     0.54634   0.76924   0.48314   0.00000  Uiso   1.00
H495   H     0.41991   0.10098   0.35756   0.00000  Uiso   1.00
H496   H     0.11301   0.74831   0.52599   0.00000  Uiso   1.00
H497   H     0.68832   0.65801   0.48897   0.00000  Uiso   1.00
O498   O     0.39860   0.10717   0.28019   0.00000  Uiso   1.00
O499   O     0.99597   0.64449   0.50116   0.00000  Uiso   1.00
O500   O     0.75076   0.52601   0.45260   0.00000  Uiso   1.00
N501   N     0.38020   0.96599   0.29301   0.00000  Uiso   1.00
N502   N     0.09326   0.63629   0.45048   0.00000  Uiso   1.00
N503   N     0.63111   0.55185   0.41588   0.00000  Uiso   1.00
N504   N     0.40742   0.04836   0.34272   0.00000  Uiso   1.00
N505   N     0.12047   0.71866   0.50019   0.00000  Uiso   1.00
N506   N     0.65833   0.63422   0.46559   0.00000  Uiso   1.00
C507   C     0.86583   0.21081   0.88207   0.00000  Uiso   1.00
C508   C     0.87646   0.30127   0.86967   0.00000  Uiso   1.00
C509   C     0.87022   0.33144   0.83156   0.00000  Uiso   1.00
C510   C     0.88199   0.41619   0.82632   0.00000  Uiso   1.00
C511   C     0.89580   0.54865   0.80224   0.00000  Uiso   1.00
C512   C     0.79736   0.21041   0.91307   0.00000  Uiso   1.00
C513   C     0.72463   0.16418   0.91145   0.00000  Uiso   1.00
C514   C     0.66983   0.17244   0.94274   0.00000  Uiso   1.00
C515   C     0.56087   0.16379   0.98605   0.00000  Uiso   1.00
C516   C     0.94560   0.18715   0.90353   0.00000  Uiso   1.00
C517   C     0.99750   0.12134   0.89389   0.00000  Uiso   1.00
C518   C     0.06749   0.11001   0.91716   0.00000  Uiso   1.00
C519   C     0.18870   0.06524   0.94566   0.00000  Uiso   1.00
C520   C     0.89784   0.30768   0.94053   0.00000  Uiso   1.00
C521   C     0.89384   0.35388   0.90143   0.00000  Uiso   1.00
C522   C     0.90563   0.43861   0.89624   0.00000  Uiso   1.00
C523   C     0.89941   0.46890   0.85813   0.00000  Uiso   1.00
C524   C     0.81474   0.26302   0.94482   0.00000  Uiso   1.00
C525   C     0.76004   0.27135   0.97613   0.00000  Uiso   1.00
C526   C     0.68724   0.22515   0.97455   0.00000  Uiso   1.00
C527   C     0.96299   0.23976   0.93529   0.00000  Uiso   1.00
C528   C     0.03291   0.22852   0.95857   0.00000  Uiso   1.00
C529   C     0.08491   0.16271   0.94897   0.00000  Uiso   1.00
H530   H     0.85229   0.16985   0.85735   0.00000  Uiso   1.00
H531   H     0.85675   0.29070   0.80699   0.00000  Uiso   1.00
H532   H     0.71120   0.12346   0.88687   0.00000  Uiso   1.00
H533   H     0.98403   0.08064   0.86932   0.00000  Uiso   1.00
H534   H     0.86934   0.44790   0.76517   0.00000  Uiso   1.00
H535   H     0.56244   0.09524   0.93360   0.00000  Uiso   1.00
H536   H     0.13775   0.00494   0.89659   0.00000  Uiso   1.00
H537   H     0.91137   0.34864   0.96526   0.00000  Uiso   1.00
H538   H     0.91908   0.47931   0.92082   0.00000  Uiso   1.00
H539   H     0.77351   0.31206   0.00070   0.00000  Uiso   1.00
H540   H     0.04634   0.26924   0.98314   0.00000  Uiso   1.00
H541   H     0.91991   0.60098   0.85756   0.00000  Uiso   1.00
H542   H     0.61301   0.24831   0.02599   0.00000  Uiso   1.00
H543   H     0.18832   0.15801   0.98897   0.00000  Uiso   1.00
O544   O     0.89860   0.60717   0.78019   0.00000  Uiso   1.00
O545   O     0.49597   0.14449   0.00116   0.00000  Uiso   1.00
O546   O     0.25076   0.02601   0.95260   0.00000  Uiso   1.00
N547   N     0.88020   0.46599   0.79301   0.00000  Uiso   1.00
N548   N     0.59326   0.13629   0.95048   0.00000  Uiso   1.00
N549   N     0.13111   0.05185   0.91588   0.00000  Uiso   1.00
N550   N     0.90742   0.54836   0.84272   0.00000  Uiso   1.00
N551   N     0.62047   0.21866   0.00019   0.00000  Uiso   1.00
N552   N     0.15833   0.13422   0.96559   0.00000  Uiso   1.00
C553   C     0.71081   0.13417   0.63207   0.00000  Uiso   1.00
C554   C     0.80127   0.12354   0.61967   0.00000  Uiso   1.00
C555   C     0.83144   0.12978   0.58156   0.00000  Uiso   1.00
C556   C     0.91619   0.11801   0.57632   0.00000  Uiso   1.00
C557   C     0.04865   0.10420   0.55224   0.00000  Uiso   1.00
C558   C     0.71041   0.20264   0.66307   0.00000  Uiso   1.00
C559   C     0.66418   0.27537   0.66145   0.00000  Uiso   1.00
C560   C     0.67244   0.33017   0.69274   0.00000  Uiso   1.00
C561   C     0.66379   0.43913   0.73605   0.00000  Uiso   1.00
C562   C     0.68715   0.05440   0.65353   0.00000  Uiso   1.00
C563   C     0.62134   0.00250   0.64389   0.00000  Uiso   1.00
C564   C     0.61001   0.93251   0.66716   0.00000  Uiso   1.00
C565   C     0.56524   0.81130   0.69566   0.00000  Uiso   1.00
C566   C     0.80768   0.10216   0.69053   0.00000  Uiso   1.00
C567   C     0.85388   0.10616   0.65143   0.00000  Uiso   1.00
C568   C     0.93861   0.09437   0.64624   0.00000  Uiso   1.00
C569   C     0.96890   0.10059   0.60813   0.00000  Uiso   1.00
C570   C     0.76302   0.18526   0.69482   0.00000  Uiso   1.00
C571   C     0.77135   0.23996   0.72613   0.00000  Uiso   1.00
C572   C     0.72515   0.31276   0.72455   0.00000  Uiso   1.00
C573   C     0.73976   0.03701   0.68529   0.00000  Uiso   1.00
C574   C     0.72852   0.96709   0.70857   0.00000  Uiso   1.00
C575   C     0.66271   0.91509   0.69897   0.00000  Uiso   1.00
H576   H     0.66985   0.14771   0.60735   0.00000  Uiso   1.00
H577   H     0.79070   0.14325   0.55699   0.00000  Uiso   1.00
H578   H     0.62346   0.28880   0.63687   0.00000  Uiso   1.00
H579   H     0.58064   0.01597   0.61932   0.00000  Uiso   1.00
H580   H     0.94790   0.13066   0.51517   0.00000  Uiso   1.00
H581   H     0.59524   0.43756   0.68360   0.00000  Uiso   1.00
H582   H     0.50494   0.86225   0.64659   0.00000  Uiso   1.00
H583   H     0.84864   0.08863   0.71526   0.00000  Uiso   1.00
H584   H     0.97931   0.08092   0.67082   0.00000  Uiso   1.00
H585   H     0.81206   0.22649   0.75070   0.00000  Uiso   1.00
H586   H     0.76924   0.95366   0.73314   0.00000  Uiso   1.00
H587   H     0.10098   0.08009   0.60756   0.00000  Uiso   1.00
H588   H     0.74831   0.38699   0.77599   0.00000  Uiso   1.00
H589   H     0.65801   0.81168   0.73897   0.00000  Uiso   1.00
O590   O     0.10717   0.10140   0.53019   0.00000  Uiso   1.00
O591   O     0.64449   0.50403   0.75116   0.00000  Uiso   1.00
O592   O     0.52601   0.74924   0.70260   0.00000  Uiso   1.00
N593   N     0.96599   0.11980   0.54301   0.00000  Uiso   1.00
N594   N     0.63629   0.40674   0.70048   0.00000  Uiso   1.00
N595   N     0.55185   0.86889   0.66588   0.00000  Uiso   1.00
N596   N     0.04836   0.09258   0.59272   0.00000  Uiso   1.00
N597   N     0.71866   0.37953   0.75019   0.00000  Uiso   1.00
N598   N     0.63422   0.84167   0.71559   0.00000  Uiso   1.00
C599   C     0.21081   0.63417   0.13207   0.00000  Uiso   1.00
C600   C     0.30127   0.62354   0.11967   0.00000  Uiso   1.00
C601   C     0.33144   0.62978   0.08156   0.00000  Uiso   1.00
C602   C     0.41619   0.61801   0.07632   0.00000  Uiso   1.00
C603   C     0.54865   0.60420   0.05224   0.00000  Uiso   1.00
C604   C     0.21041   0.70264   0.16307   0.00000  Uiso   1.00
C605   C     0.16418   0.77537   0.16145   0.00000  Uiso   1.00
C606   C     0.17244   0.83017   0.19274   0.00000  Uiso   1.00
C607   C     0.16379   0.93913   0.23605   0.00000  Uiso   1.00
C608   C     0.18715   0.55440   0.15353   0.00000  Uiso   1.00
C609   C     0.12134   0.50250   0.14389   0.00000  Uiso   1.00
C610   C     0.11001   0.43251   0.16716   0.00000  Uiso   1.00
C611   C     0.06524   0.31130   0.19566   0.00000  Uiso   1.00
C612   C     0.30768   0.60216   0.19053   0.00000  Uiso   1.00
C613   C     0.35388   0.60616   0.15143   0.00000  Uiso   1.00
C614   C     0.43861   0.59437   0.14624   0.00000  Uiso   1.00
C615   C     0.46890   0.60059   0.10813   0.00000  Uiso   1.00
C616   C     0.26302   0.68526   0.19482   0.00000  Uiso   1.00
C617   C     0.27135   0.73996   0.22613   0.00000  Uiso   1.00
C618   C     0.22515   0.81276   0.22455   0.00000  Uiso   1.00
C619   C     0.23976   0.53701   0.18529   0.00000  Uiso   1.00
C620   C     0.22852   0.46709   0.20857   0.00000  Uiso   1.00
C621   C     0.16271   0.41509   0.19897   0.00000  Uiso   1.00
H622   H     0.16985   0.64771   0.10735   0.00000  Uiso   1.00
H623   H     0.29070   0.64325   0.05699   0.00000  Uiso   1.00
H624   H     0.12346   0.78880   0.13687   0.00000  Uiso   1.00
H625   H     0.08064   0.51597   0.11932   0.00000  Uiso   1.00
H626   H     0.44790   0.63066   0.01517   0.00000  Uiso   1.00
H627   H     0.09524   0.93756   0.18360   0.00000  Uiso   1.00
H628   H     0.00494   0.36225   0.14659   0.00000  Uiso   1.00
H629   H     0.34864   0.58863   0.21526   0.00000  Uiso   1.00
H630   H     0.47931   0.58092   0.17082   0.00000  Uiso   1.00
H631   H     0.31206   0.72649   0.25070   0.00000  Uiso   1.00
H632   H     0.26924   0.45366   0.23314   0.00000  Uiso   1.00
H633   H     0.60098   0.58009   0.10756   0.00000  Uiso   1.00
H634   H     0.24831   0.88699   0.27599   0.00000  Uiso   1.00
H635   H     0.15801   0.31168   0.23897   0.00000  Uiso   1.00
O636   O     0.60717   0.60140   0.03019   0.00000  Uiso   1.00
O637   O     0.14449   0.00403   0.25116   0.00000  Uiso   1.00
O638   O     0.02601   0.24924   0.20260   0.00000  Uiso   1.00
N639   N     0.46599   0.61980   0.04301   0.00000  Uiso   1.00
N640   N     0.13629   0.90674   0.20048   0.00000  Uiso   1.00
N641   N     0.05185   0.36889   0.16588   0.00000  Uiso   1.00
N642   N     0.54836   0.59258   0.09272   0.00000  Uiso   1.00
N643   N     0.21866   0.87953   0.25019   0.00000  Uiso   1.00
N644   N     0.13422   0.34167   0.21559   0.00000  Uiso   1.00
C645   C     0.78919   0.36583   0.13207   0.00000  Uiso   1.00
C646   C     0.69873   0.37646   0.11967   0.00000  Uiso   1.00
C647   C     0.66856   0.37022   0.08156   0.00000  Uiso   1.00
C648   C     0.58381   0.38199   0.07632   0.00000  Uiso   1.00
C649   C     0.45135   0.39580   0.05224   0.00000  Uiso   1.00
C650   C     0.78959   0.29736   0.16307   0.00000  Uiso   1.00
C651   C     0.83582   0.22463   0.16145   0.00000  Uiso   1.00
C652   C     0.82756   0.16983   0.19274   0.00000  Uiso   1.00
C653   C     0.83621   0.06087   0.23605   0.00000  Uiso   1.00
C654   C     0.81285   0.44560   0.15353   0.00000  Uiso   1.00
C655   C     0.87866   0.49750   0.14389   0.00000  Uiso   1.00
C656   C     0.88999   0.56749   0.16716   0.00000  Uiso   1.00
C657   C     0.93476   0.68870   0.19566   0.00000  Uiso   1.00
C658   C     0.69232   0.39784   0.19053   0.00000  Uiso   1.00
C659   C     0.64612   0.39384   0.15143   0.00000  Uiso   1.00
C660   C     0.56139   0.40563   0.14624   0.00000  Uiso   1.00
C661   C     0.53110   0.39941   0.10813   0.00000  Uiso   1.00
C662   C     0.73698   0.31474   0.19482   0.00000  Uiso   1.00
C663   C     0.72865   0.26004   0.22613   0.00000  Uiso   1.00
C664   C     0.77485   0.18724   0.22455   0.00000  Uiso   1.00
C665   C     0.76024   0.46299   0.18529   0.00000  Uiso   1.00
C666   C     0.77148   0.53291   0.20857   0.00000  Uiso   1.00
C667   C     0.83729   0.58491   0.19897   0.00000  Uiso   1.00
H668   H     0.83015   0.35229   0.10735   0.00000  Uiso   1.00
H669   H     0.70930   0.35675   0.05699   0.00000  Uiso   1.00
H670   H     0.87654   0.21120   0.13687   0.00000  Uiso   1.00
H671   H     0.91936   0.48403   0.11932   0.00000  Uiso   1.00
H672   H     0.55210   0.36934   0.01517   0.00000  Uiso   1.00
H673   H     0.90476   0.06244   0.18360   0.00000  Uiso   1.00
H674   H     0.99506   0.63775   0.14659   0.00000  Uiso   1.00
H675   H     0.65136   0.41137   0.21526   0.00000  Uiso   1.00
H676   H     0.52069   0.41908   0.17082   0.00000  Uiso   1.00
H677   H     0.68794   0.27351   0.25070   0.00000  Uiso   1.00
H678   H     0.73076   0.54634   0.23314   0.00000  Uiso   1.00
H679   H     0.39902   0.41991   0.10756   0.00000  Uiso   1.00
H680   H     0.75169   0.11301   0.27599   0.00000  Uiso   1.00
H681   H     0.84199   0.68832   0.23897   0.00000  Uiso   1.00
O682   O     0.39283   0.39860   0.03019   0.00000  Uiso   1.00
O683   O     0.85551   0.99597   0.25116   0.00000  Uiso   1.00
O684   O     0.97399   0.75076   0.20260   0.00000  Uiso   1.00
N685   N     0.53401   0.38020   0.04301   0.00000  Uiso   1.00
N686   N     0.86371   0.09326   0.20048   0.00000  Uiso   1.00
N687   N     0.94815   0.63111   0.16588   0.00000  Uiso   1.00
N688   N     0.45164   0.40742   0.09272   0.00000  Uiso   1.00
N689   N     0.78134   0.12047   0.25019   0.00000  Uiso   1.00
N690   N     0.86578   0.65833   0.21559   0.00000  Uiso   1.00
C691   C     0.28919   0.86583   0.63207   0.00000  Uiso   1.00
C692   C     0.19873   0.87646   0.61967   0.00000  Uiso   1.00
C693   C     0.16856   0.87022   0.58156   0.00000  Uiso   1.00
C694   C     0.08381   0.88199   0.57632   0.00000  Uiso   1.00
C695   C     0.95135   0.89580   0.55224   0.00000  Uiso   1.00
C696   C     0.28959   0.79736   0.66307   0.00000  Uiso   1.00
C697   C     0.33582   0.72463   0.66145   0.00000  Uiso   1.00
C698   C     0.32756   0.66983   0.69274   0.00000  Uiso   1.00
C699   C     0.33621   0.56087   0.73605   0.00000  Uiso   1.00
C700   C     0.31285   0.94560   0.65353   0.00000  Uiso   1.00
C701   C     0.37866   0.99750   0.64389   0.00000  Uiso   1.00
C702   C     0.38999   0.06749   0.66716   0.00000  Uiso   1.00
C703   C     0.43476   0.18870   0.69566   0.00000  Uiso   1.00
C704   C     0.19232   0.89784   0.69053   0.00000  Uiso   1.00
C705   C     0.14612   0.89384   0.65143   0.00000  Uiso   1.00
C706   C     0.06139   0.90563   0.64624   0.00000  Uiso   1.00
C707   C     0.03110   0.89941   0.60813   0.00000  Uiso   1.00
C708   C     0.23698   0.81474   0.69482   0.00000  Uiso   1.00
C709   C     0.22865   0.76004   0.72613   0.00000  Uiso   1.00
C710   C     0.27485   0.68724   0.72455   0.00000  Uiso   1.00
C711   C     0.26024   0.96299   0.68529   0.00000  Uiso   1.00
C712   C     0.27148   0.03291   0.70857   0.00000  Uiso   1.00
C713   C     0.33729   0.08491   0.69897   0.00000  Uiso   1.00
H714   H     0.33015   0.85229   0.60735   0.00000  Uiso   1.00
H715   H     0.20930   0.85675   0.55699   0.00000  Uiso   1.00
H716   H     0.37654   0.71120   0.63687   0.00000  Uiso   1.00
H717   H     0.41936   0.98403   0.61932   0.00000  Uiso   1.00
H718   H     0.05210   0.86934   0.51517   0.00000  Uiso   1.00
H719   H     0.40476   0.56244   0.68360   0.00000  Uiso   1.00
H720   H     0.49506   0.13775   0.64659   0.00000  Uiso   1.00
H721   H     0.15136   0.91137   0.71526   0.00000  Uiso   1.00
H722   H     0.02069   0.91908   0.67082   0.00000  Uiso   1.00
H723   H     0.18794   0.77351   0.75070   0.00000  Uiso   1.00
H724   H     0.23076   0.04634   0.73314   0.00000  Uiso   1.00
H725   H     0.89902   0.91991   0.60756   0.00000  Uiso   1.00
H726   H     0.25169   0.61301   0.77599   0.00000  Uiso   1.00
H727   H     0.34199   0.18832   0.73897   0.00000  Uiso   1.00
O728   O     0.89283   0.89860   0.53019   0.00000  Uiso   1.00
O729   O     0.35551   0.49597   0.75116   0.00000  Uiso   1.00
O730   O     0.47399   0.25076   0.70260   0.00000  Uiso   1.00
N731   N     0.03401   0.88020   0.54301   0.00000  Uiso   1.00
N732   N     0.36371   0.59326   0.70048   0.00000  Uiso   1.00
N733   N     0.44815   0.13111   0.66588   0.00000  Uiso   1.00
N734   N     0.95164   0.90742   0.59272   0.00000  Uiso   1.00
N735   N     0.28134   0.62047   0.75019   0.00000  Uiso   1.00
N736   N     0.36578   0.15833   0.71559   0.00000  Uiso   1.00
