data_job_03922
_audit_creation_date              2018-12-19
_audit_creation_method            'Materials Studio'
_symmetry_space_group_name_H-M    'P1'
_symmetry_Int_Tables_number       1
_symmetry_cell_setting            triclinic
loop_
_symmetry_equiv_pos_as_xyz
  x,y,z
_cell_length_a                    20.5876
_cell_length_b                    20.5876
_cell_length_c                    37.1116
_cell_angle_alpha                 90.0000
_cell_angle_beta                  90.0000
_cell_angle_gamma                 90.0000
loop_
_atom_site_label
_atom_site_type_symbol
_atom_site_fract_x
_atom_site_fract_y
_atom_site_fract_z
_atom_site_U_iso_or_equiv
_atom_site_adp_type
_atom_site_occupancy
C1     C     0.26288   0.82172   0.26084   0.00000  Uiso   1.00
C2     C     0.25436   0.89012   0.27589   0.00000  Uiso   1.00
C3     C     0.20644   0.90965   0.29984   0.00000  Uiso   1.00
C4     C     0.20689   0.97436   0.31038   0.00000  Uiso   1.00
C5     C     0.18653   0.07395   0.33571   0.00000  Uiso   1.00
C6     C     0.26123   0.82859   0.21994   0.00000  Uiso   1.00
C7     C     0.21908   0.79639   0.19686   0.00000  Uiso   1.00
C8     C     0.22532   0.80930   0.16030   0.00000  Uiso   1.00
C9     C     0.21565   0.81334   0.09876   0.00000  Uiso   1.00
C10    C     0.33202   0.80138   0.27033   0.00000  Uiso   1.00
C11    C     0.34940   0.74630   0.28961   0.00000  Uiso   1.00
C12    C     0.41525   0.73629   0.29547   0.00000  Uiso   1.00
C13    C     0.51550   0.69808   0.31217   0.00000  Uiso   1.00
C14    C     0.34893   0.90188   0.23696   0.00000  Uiso   1.00
C15    C     0.30110   0.93366   0.26291   0.00000  Uiso   1.00
C16    C     0.30163   0.99835   0.27342   0.00000  Uiso   1.00
C17    C     0.25372   0.01798   0.29739   0.00000  Uiso   1.00
C18    C     0.30796   0.87213   0.20696   0.00000  Uiso   1.00
C19    C     0.31428   0.88509   0.17043   0.00000  Uiso   1.00
C20    C     0.27214   0.85292   0.14730   0.00000  Uiso   1.00
C21    C     0.37876   0.84493   0.25736   0.00000  Uiso   1.00
C22    C     0.44460   0.83500   0.26319   0.00000  Uiso   1.00
C23    C     0.46207   0.77991   0.28247   0.00000  Uiso   1.00
H24    H     0.22650   0.78782   0.27094   0.00000  Uiso   1.00
H25    H     0.17027   0.87594   0.30987   0.00000  Uiso   1.00
H26    H     0.18292   0.76269   0.20690   0.00000  Uiso   1.00
H27    H     0.31322   0.71261   0.29964   0.00000  Uiso   1.00
H28    H     0.12853   0.99285   0.34731   0.00000  Uiso   1.00
H29    H     0.15521   0.75405   0.13019   0.00000  Uiso   1.00
H30    H     0.42998   0.64844   0.32575   0.00000  Uiso   1.00
H31    H     0.38531   0.93579   0.22686   0.00000  Uiso   1.00
H32    H     0.33781   0.03204   0.26338   0.00000  Uiso   1.00
H33    H     0.35045   0.91879   0.16040   0.00000  Uiso   1.00
H34    H     0.48075   0.86871   0.25314   0.00000  Uiso   1.00
H35    H     0.26451   0.11955   0.30957   0.00000  Uiso   1.00
H36    H     0.29119   0.88074   0.09245   0.00000  Uiso   1.00
H37    H     0.56595   0.77513   0.28801   0.00000  Uiso   1.00
O38    O     0.16239   0.11685   0.35325   0.00000  Uiso   1.00
O39    O     0.19740   0.80354   0.06840   0.00000  Uiso   1.00
O40    O     0.55788   0.66498   0.32496   0.00000  Uiso   1.00
N41    N     0.16706   0.00946   0.33342   0.00000  Uiso   1.00
N42    N     0.19200   0.78620   0.13043   0.00000  Uiso   1.00
N43    N     0.44888   0.68745   0.31325   0.00000  Uiso   1.00
N44    N     0.24023   0.07763   0.31312   0.00000  Uiso   1.00
N45    N     0.26517   0.85437   0.11012   0.00000  Uiso   1.00
N46    N     0.52205   0.75563   0.29294   0.00000  Uiso   1.00
C47    C     0.76288   0.32172   0.76084   0.00000  Uiso   1.00
C48    C     0.75436   0.39012   0.77589   0.00000  Uiso   1.00
C49    C     0.70644   0.40965   0.79984   0.00000  Uiso   1.00
C50    C     0.70689   0.47436   0.81038   0.00000  Uiso   1.00
C51    C     0.68653   0.57395   0.83571   0.00000  Uiso   1.00
C52    C     0.76123   0.32859   0.71994   0.00000  Uiso   1.00
C53    C     0.71908   0.29639   0.69686   0.00000  Uiso   1.00
C54    C     0.72532   0.30930   0.66030   0.00000  Uiso   1.00
C55    C     0.71565   0.31334   0.59876   0.00000  Uiso   1.00
C56    C     0.83202   0.30138   0.77033   0.00000  Uiso   1.00
C57    C     0.84940   0.24630   0.78961   0.00000  Uiso   1.00
C58    C     0.91525   0.23629   0.79547   0.00000  Uiso   1.00
C59    C     0.01550   0.19808   0.81217   0.00000  Uiso   1.00
C60    C     0.84893   0.40188   0.73696   0.00000  Uiso   1.00
C61    C     0.80110   0.43366   0.76291   0.00000  Uiso   1.00
C62    C     0.80163   0.49835   0.77342   0.00000  Uiso   1.00
C63    C     0.75372   0.51798   0.79739   0.00000  Uiso   1.00
C64    C     0.80796   0.37213   0.70696   0.00000  Uiso   1.00
C65    C     0.81428   0.38509   0.67043   0.00000  Uiso   1.00
C66    C     0.77214   0.35292   0.64730   0.00000  Uiso   1.00
C67    C     0.87876   0.34493   0.75736   0.00000  Uiso   1.00
C68    C     0.94460   0.33500   0.76319   0.00000  Uiso   1.00
C69    C     0.96207   0.27991   0.78247   0.00000  Uiso   1.00
H70    H     0.72650   0.28782   0.77094   0.00000  Uiso   1.00
H71    H     0.67027   0.37594   0.80987   0.00000  Uiso   1.00
H72    H     0.68292   0.26269   0.70690   0.00000  Uiso   1.00
H73    H     0.81322   0.21261   0.79964   0.00000  Uiso   1.00
H74    H     0.62853   0.49285   0.84731   0.00000  Uiso   1.00
H75    H     0.65521   0.25405   0.63019   0.00000  Uiso   1.00
H76    H     0.92998   0.14844   0.82575   0.00000  Uiso   1.00
H77    H     0.88531   0.43579   0.72686   0.00000  Uiso   1.00
H78    H     0.83781   0.53204   0.76338   0.00000  Uiso   1.00
H79    H     0.85045   0.41879   0.66040   0.00000  Uiso   1.00
H80    H     0.98075   0.36871   0.75314   0.00000  Uiso   1.00
H81    H     0.76451   0.61955   0.80957   0.00000  Uiso   1.00
H82    H     0.79119   0.38074   0.59245   0.00000  Uiso   1.00
H83    H     0.06595   0.27513   0.78801   0.00000  Uiso   1.00
O84    O     0.66239   0.61685   0.85325   0.00000  Uiso   1.00
O85    O     0.69740   0.30354   0.56840   0.00000  Uiso   1.00
O86    O     0.05788   0.16498   0.82496   0.00000  Uiso   1.00
N87    N     0.66706   0.50946   0.83342   0.00000  Uiso   1.00
N88    N     0.69200   0.28620   0.63043   0.00000  Uiso   1.00
N89    N     0.94888   0.18745   0.81325   0.00000  Uiso   1.00
N90    N     0.74023   0.57763   0.81312   0.00000  Uiso   1.00
N91    N     0.76517   0.35437   0.61012   0.00000  Uiso   1.00
N92    N     0.02205   0.25563   0.79294   0.00000  Uiso   1.00
C93    C     0.23712   0.67828   0.76084   0.00000  Uiso   1.00
C94    C     0.24564   0.60988   0.77589   0.00000  Uiso   1.00
C95    C     0.29356   0.59035   0.79984   0.00000  Uiso   1.00
C96    C     0.29311   0.52564   0.81038   0.00000  Uiso   1.00
C97    C     0.31347   0.42605   0.83571   0.00000  Uiso   1.00
C98    C     0.23877   0.67141   0.71994   0.00000  Uiso   1.00
C99    C     0.28092   0.70361   0.69686   0.00000  Uiso   1.00
C100   C     0.27468   0.69070   0.66030   0.00000  Uiso   1.00
C101   C     0.28435   0.68666   0.59876   0.00000  Uiso   1.00
C102   C     0.16798   0.69862   0.77033   0.00000  Uiso   1.00
C103   C     0.15060   0.75370   0.78961   0.00000  Uiso   1.00
C104   C     0.08475   0.76371   0.79547   0.00000  Uiso   1.00
C105   C     0.98450   0.80192   0.81217   0.00000  Uiso   1.00
C106   C     0.15107   0.59812   0.73696   0.00000  Uiso   1.00
C107   C     0.19890   0.56634   0.76291   0.00000  Uiso   1.00
C108   C     0.19837   0.50165   0.77342   0.00000  Uiso   1.00
C109   C     0.24628   0.48202   0.79739   0.00000  Uiso   1.00
C110   C     0.19204   0.62787   0.70696   0.00000  Uiso   1.00
C111   C     0.18572   0.61491   0.67043   0.00000  Uiso   1.00
C112   C     0.22786   0.64708   0.64730   0.00000  Uiso   1.00
C113   C     0.12124   0.65507   0.75736   0.00000  Uiso   1.00
C114   C     0.05540   0.66500   0.76319   0.00000  Uiso   1.00
C115   C     0.03793   0.72009   0.78247   0.00000  Uiso   1.00
H116   H     0.27350   0.71218   0.77094   0.00000  Uiso   1.00
H117   H     0.32973   0.62406   0.80987   0.00000  Uiso   1.00
H118   H     0.31708   0.73731   0.70690   0.00000  Uiso   1.00
H119   H     0.18678   0.78739   0.79964   0.00000  Uiso   1.00
H120   H     0.37147   0.50715   0.84731   0.00000  Uiso   1.00
H121   H     0.34479   0.74595   0.63019   0.00000  Uiso   1.00
H122   H     0.07002   0.85156   0.82575   0.00000  Uiso   1.00
H123   H     0.11469   0.56421   0.72686   0.00000  Uiso   1.00
H124   H     0.16219   0.46796   0.76338   0.00000  Uiso   1.00
H125   H     0.14955   0.58121   0.66040   0.00000  Uiso   1.00
H126   H     0.01925   0.63129   0.75314   0.00000  Uiso   1.00
H127   H     0.23549   0.38045   0.80957   0.00000  Uiso   1.00
H128   H     0.20881   0.61926   0.59245   0.00000  Uiso   1.00
H129   H     0.93405   0.72487   0.78801   0.00000  Uiso   1.00
O130   O     0.33761   0.38315   0.85325   0.00000  Uiso   1.00
O131   O     0.30260   0.69646   0.56840   0.00000  Uiso   1.00
O132   O     0.94212   0.83502   0.82496   0.00000  Uiso   1.00
N133   N     0.33294   0.49054   0.83342   0.00000  Uiso   1.00
N134   N     0.30800   0.71380   0.63043   0.00000  Uiso   1.00
N135   N     0.05112   0.81255   0.81325   0.00000  Uiso   1.00
N136   N     0.25977   0.42237   0.81312   0.00000  Uiso   1.00
N137   N     0.23483   0.64563   0.61012   0.00000  Uiso   1.00
N138   N     0.97795   0.74437   0.79294   0.00000  Uiso   1.00
C139   C     0.73712   0.17828   0.26084   0.00000  Uiso   1.00
C140   C     0.74564   0.10988   0.27589   0.00000  Uiso   1.00
C141   C     0.79356   0.09035   0.29984   0.00000  Uiso   1.00
C142   C     0.79311   0.02564   0.31038   0.00000  Uiso   1.00
C143   C     0.81347   0.92605   0.33571   0.00000  Uiso   1.00
C144   C     0.73877   0.17141   0.21994   0.00000  Uiso   1.00
C145   C     0.78092   0.20361   0.19686   0.00000  Uiso   1.00
C146   C     0.77468   0.19070   0.16030   0.00000  Uiso   1.00
C147   C     0.78435   0.18666   0.09876   0.00000  Uiso   1.00
C148   C     0.66798   0.19862   0.27033   0.00000  Uiso   1.00
C149   C     0.65060   0.25370   0.28961   0.00000  Uiso   1.00
C150   C     0.58475   0.26371   0.29547   0.00000  Uiso   1.00
C151   C     0.48450   0.30192   0.31217   0.00000  Uiso   1.00
C152   C     0.65107   0.09812   0.23696   0.00000  Uiso   1.00
C153   C     0.69890   0.06634   0.26291   0.00000  Uiso   1.00
C154   C     0.69837   0.00165   0.27342   0.00000  Uiso   1.00
C155   C     0.74628   0.98202   0.29739   0.00000  Uiso   1.00
C156   C     0.69204   0.12787   0.20696   0.00000  Uiso   1.00
C157   C     0.68572   0.11491   0.17043   0.00000  Uiso   1.00
C158   C     0.72786   0.14708   0.14730   0.00000  Uiso   1.00
C159   C     0.62124   0.15507   0.25736   0.00000  Uiso   1.00
C160   C     0.55540   0.16500   0.26319   0.00000  Uiso   1.00
C161   C     0.53793   0.22009   0.28247   0.00000  Uiso   1.00
H162   H     0.77350   0.21218   0.27094   0.00000  Uiso   1.00
H163   H     0.82973   0.12406   0.30987   0.00000  Uiso   1.00
H164   H     0.81708   0.23731   0.20690   0.00000  Uiso   1.00
H165   H     0.68678   0.28739   0.29964   0.00000  Uiso   1.00
H166   H     0.87147   0.00715   0.34731   0.00000  Uiso   1.00
H167   H     0.84479   0.24595   0.13019   0.00000  Uiso   1.00
H168   H     0.57002   0.35156   0.32575   0.00000  Uiso   1.00
H169   H     0.61469   0.06421   0.22686   0.00000  Uiso   1.00
H170   H     0.66219   0.96796   0.26338   0.00000  Uiso   1.00
H171   H     0.64955   0.08121   0.16040   0.00000  Uiso   1.00
H172   H     0.51925   0.13129   0.25314   0.00000  Uiso   1.00
H173   H     0.73549   0.88045   0.30957   0.00000  Uiso   1.00
H174   H     0.70881   0.11926   0.09245   0.00000  Uiso   1.00
H175   H     0.43405   0.22487   0.28801   0.00000  Uiso   1.00
O176   O     0.83761   0.88315   0.35325   0.00000  Uiso   1.00
O177   O     0.80260   0.19646   0.06840   0.00000  Uiso   1.00
O178   O     0.44212   0.33502   0.32496   0.00000  Uiso   1.00
N179   N     0.83294   0.99054   0.33342   0.00000  Uiso   1.00
N180   N     0.80800   0.21380   0.13043   0.00000  Uiso   1.00
N181   N     0.55112   0.31255   0.31325   0.00000  Uiso   1.00
N182   N     0.75977   0.92237   0.31312   0.00000  Uiso   1.00
N183   N     0.73483   0.14563   0.11012   0.00000  Uiso   1.00
N184   N     0.47795   0.24437   0.29294   0.00000  Uiso   1.00
C185   C     0.17828   0.76288   0.51084   0.00000  Uiso   1.00
C186   C     0.10988   0.75436   0.52589   0.00000  Uiso   1.00
C187   C     0.09035   0.70644   0.54984   0.00000  Uiso   1.00
C188   C     0.02564   0.70689   0.56038   0.00000  Uiso   1.00
C189   C     0.92605   0.68653   0.58571   0.00000  Uiso   1.00
C190   C     0.17141   0.76123   0.46994   0.00000  Uiso   1.00
C191   C     0.20361   0.71908   0.44686   0.00000  Uiso   1.00
C192   C     0.19070   0.72532   0.41030   0.00000  Uiso   1.00
C193   C     0.18666   0.71565   0.34876   0.00000  Uiso   1.00
C194   C     0.19862   0.83202   0.52033   0.00000  Uiso   1.00
C195   C     0.25370   0.84940   0.53961   0.00000  Uiso   1.00
C196   C     0.26371   0.91525   0.54547   0.00000  Uiso   1.00
C197   C     0.30192   0.01550   0.56217   0.00000  Uiso   1.00
C198   C     0.09812   0.84893   0.48696   0.00000  Uiso   1.00
C199   C     0.06634   0.80110   0.51291   0.00000  Uiso   1.00
C200   C     0.00165   0.80163   0.52342   0.00000  Uiso   1.00
C201   C     0.98202   0.75372   0.54739   0.00000  Uiso   1.00
C202   C     0.12787   0.80796   0.45696   0.00000  Uiso   1.00
C203   C     0.11491   0.81428   0.42043   0.00000  Uiso   1.00
C204   C     0.14708   0.77214   0.39730   0.00000  Uiso   1.00
C205   C     0.15507   0.87876   0.50736   0.00000  Uiso   1.00
C206   C     0.16500   0.94460   0.51319   0.00000  Uiso   1.00
C207   C     0.22009   0.96207   0.53247   0.00000  Uiso   1.00
H208   H     0.21218   0.72650   0.52094   0.00000  Uiso   1.00
H209   H     0.12406   0.67027   0.55987   0.00000  Uiso   1.00
H210   H     0.23731   0.68292   0.45690   0.00000  Uiso   1.00
H211   H     0.28739   0.81322   0.54964   0.00000  Uiso   1.00
H212   H     0.00715   0.62853   0.59731   0.00000  Uiso   1.00
H213   H     0.24595   0.65521   0.38019   0.00000  Uiso   1.00
H214   H     0.35156   0.92998   0.57575   0.00000  Uiso   1.00
H215   H     0.06421   0.88531   0.47686   0.00000  Uiso   1.00
H216   H     0.96796   0.83781   0.51338   0.00000  Uiso   1.00
H217   H     0.08121   0.85045   0.41040   0.00000  Uiso   1.00
H218   H     0.13129   0.98075   0.50314   0.00000  Uiso   1.00
H219   H     0.88045   0.76451   0.55957   0.00000  Uiso   1.00
H220   H     0.11926   0.79119   0.34245   0.00000  Uiso   1.00
H221   H     0.22487   0.06595   0.53801   0.00000  Uiso   1.00
O222   O     0.88315   0.66239   0.60325   0.00000  Uiso   1.00
O223   O     0.19646   0.69740   0.31840   0.00000  Uiso   1.00
O224   O     0.33502   0.05788   0.57496   0.00000  Uiso   1.00
N225   N     0.99054   0.66706   0.58342   0.00000  Uiso   1.00
N226   N     0.21380   0.69200   0.38043   0.00000  Uiso   1.00
N227   N     0.31255   0.94888   0.56325   0.00000  Uiso   1.00
N228   N     0.92237   0.74023   0.56312   0.00000  Uiso   1.00
N229   N     0.14563   0.76517   0.36012   0.00000  Uiso   1.00
N230   N     0.24437   0.02205   0.54294   0.00000  Uiso   1.00
C231   C     0.67828   0.26288   0.01084   0.00000  Uiso   1.00
C232   C     0.60988   0.25436   0.02589   0.00000  Uiso   1.00
C233   C     0.59035   0.20644   0.04984   0.00000  Uiso   1.00
C234   C     0.52564   0.20689   0.06038   0.00000  Uiso   1.00
C235   C     0.42605   0.18653   0.08571   0.00000  Uiso   1.00
C236   C     0.67141   0.26123   0.96994   0.00000  Uiso   1.00
C237   C     0.70361   0.21908   0.94686   0.00000  Uiso   1.00
C238   C     0.69070   0.22532   0.91030   0.00000  Uiso   1.00
C239   C     0.68666   0.21565   0.84876   0.00000  Uiso   1.00
C240   C     0.69862   0.33202   0.02033   0.00000  Uiso   1.00
C241   C     0.75370   0.34940   0.03961   0.00000  Uiso   1.00
C242   C     0.76371   0.41525   0.04547   0.00000  Uiso   1.00
C243   C     0.80192   0.51550   0.06217   0.00000  Uiso   1.00
C244   C     0.59812   0.34893   0.98696   0.00000  Uiso   1.00
C245   C     0.56634   0.30110   0.01291   0.00000  Uiso   1.00
C246   C     0.50165   0.30163   0.02342   0.00000  Uiso   1.00
C247   C     0.48202   0.25372   0.04739   0.00000  Uiso   1.00
C248   C     0.62787   0.30796   0.95696   0.00000  Uiso   1.00
C249   C     0.61491   0.31428   0.92043   0.00000  Uiso   1.00
C250   C     0.64708   0.27214   0.89730   0.00000  Uiso   1.00
C251   C     0.65507   0.37876   0.00736   0.00000  Uiso   1.00
C252   C     0.66500   0.44460   0.01319   0.00000  Uiso   1.00
C253   C     0.72009   0.46207   0.03247   0.00000  Uiso   1.00
H254   H     0.71218   0.22650   0.02094   0.00000  Uiso   1.00
H255   H     0.62406   0.17027   0.05987   0.00000  Uiso   1.00
H256   H     0.73731   0.18292   0.95690   0.00000  Uiso   1.00
H257   H     0.78739   0.31322   0.04964   0.00000  Uiso   1.00
H258   H     0.50715   0.12853   0.09731   0.00000  Uiso   1.00
H259   H     0.74595   0.15521   0.88019   0.00000  Uiso   1.00
H260   H     0.85156   0.42998   0.07575   0.00000  Uiso   1.00
H261   H     0.56421   0.38531   0.97686   0.00000  Uiso   1.00
H262   H     0.46796   0.33781   0.01338   0.00000  Uiso   1.00
H263   H     0.58121   0.35045   0.91040   0.00000  Uiso   1.00
H264   H     0.63129   0.48075   0.00314   0.00000  Uiso   1.00
H265   H     0.38045   0.26451   0.05957   0.00000  Uiso   1.00
H266   H     0.61926   0.29119   0.84245   0.00000  Uiso   1.00
H267   H     0.72487   0.56595   0.03801   0.00000  Uiso   1.00
O268   O     0.38315   0.16239   0.10325   0.00000  Uiso   1.00
O269   O     0.69646   0.19740   0.81840   0.00000  Uiso   1.00
O270   O     0.83502   0.55788   0.07496   0.00000  Uiso   1.00
N271   N     0.49054   0.16706   0.08342   0.00000  Uiso   1.00
N272   N     0.71380   0.19200   0.88043   0.00000  Uiso   1.00
N273   N     0.81255   0.44888   0.06325   0.00000  Uiso   1.00
N274   N     0.42237   0.24023   0.06312   0.00000  Uiso   1.00
N275   N     0.64563   0.26517   0.86012   0.00000  Uiso   1.00
N276   N     0.74437   0.52205   0.04294   0.00000  Uiso   1.00
C277   C     0.32172   0.73712   0.01084   0.00000  Uiso   1.00
C278   C     0.39012   0.74564   0.02589   0.00000  Uiso   1.00
C279   C     0.40965   0.79356   0.04984   0.00000  Uiso   1.00
C280   C     0.47436   0.79311   0.06038   0.00000  Uiso   1.00
C281   C     0.57395   0.81347   0.08571   0.00000  Uiso   1.00
C282   C     0.32859   0.73877   0.96994   0.00000  Uiso   1.00
C283   C     0.29639   0.78092   0.94686   0.00000  Uiso   1.00
C284   C     0.30930   0.77468   0.91030   0.00000  Uiso   1.00
C285   C     0.31334   0.78435   0.84876   0.00000  Uiso   1.00
C286   C     0.30138   0.66798   0.02033   0.00000  Uiso   1.00
C287   C     0.24630   0.65060   0.03961   0.00000  Uiso   1.00
C288   C     0.23629   0.58475   0.04547   0.00000  Uiso   1.00
C289   C     0.19808   0.48450   0.06217   0.00000  Uiso   1.00
C290   C     0.40188   0.65107   0.98696   0.00000  Uiso   1.00
C291   C     0.43366   0.69890   0.01291   0.00000  Uiso   1.00
C292   C     0.49835   0.69837   0.02342   0.00000  Uiso   1.00
C293   C     0.51798   0.74628   0.04739   0.00000  Uiso   1.00
C294   C     0.37213   0.69204   0.95696   0.00000  Uiso   1.00
C295   C     0.38509   0.68572   0.92043   0.00000  Uiso   1.00
C296   C     0.35292   0.72786   0.89730   0.00000  Uiso   1.00
C297   C     0.34493   0.62124   0.00736   0.00000  Uiso   1.00
C298   C     0.33500   0.55540   0.01319   0.00000  Uiso   1.00
C299   C     0.27991   0.53793   0.03247   0.00000  Uiso   1.00
H300   H     0.28782   0.77350   0.02094   0.00000  Uiso   1.00
H301   H     0.37594   0.82973   0.05987   0.00000  Uiso   1.00
H302   H     0.26269   0.81708   0.95690   0.00000  Uiso   1.00
H303   H     0.21261   0.68678   0.04964   0.00000  Uiso   1.00
H304   H     0.49285   0.87147   0.09731   0.00000  Uiso   1.00
H305   H     0.25405   0.84479   0.88019   0.00000  Uiso   1.00
H306   H     0.14844   0.57002   0.07575   0.00000  Uiso   1.00
H307   H     0.43579   0.61469   0.97686   0.00000  Uiso   1.00
H308   H     0.53204   0.66219   0.01338   0.00000  Uiso   1.00
H309   H     0.41879   0.64955   0.91040   0.00000  Uiso   1.00
H310   H     0.36871   0.51925   0.00314   0.00000  Uiso   1.00
H311   H     0.61955   0.73549   0.05957   0.00000  Uiso   1.00
H312   H     0.38074   0.70881   0.84245   0.00000  Uiso   1.00
H313   H     0.27513   0.43405   0.03801   0.00000  Uiso   1.00
O314   O     0.61685   0.83761   0.10325   0.00000  Uiso   1.00
O315   O     0.30354   0.80260   0.81840   0.00000  Uiso   1.00
O316   O     0.16498   0.44212   0.07496   0.00000  Uiso   1.00
N317   N     0.50946   0.83294   0.08342   0.00000  Uiso   1.00
N318   N     0.28620   0.80800   0.88043   0.00000  Uiso   1.00
N319   N     0.18745   0.55112   0.06325   0.00000  Uiso   1.00
N320   N     0.57763   0.75977   0.06312   0.00000  Uiso   1.00
N321   N     0.35437   0.73483   0.86012   0.00000  Uiso   1.00
N322   N     0.25563   0.47795   0.04294   0.00000  Uiso   1.00
C323   C     0.82172   0.23712   0.51084   0.00000  Uiso   1.00
C324   C     0.89012   0.24564   0.52589   0.00000  Uiso   1.00
C325   C     0.90965   0.29356   0.54984   0.00000  Uiso   1.00
C326   C     0.97436   0.29311   0.56038   0.00000  Uiso   1.00
C327   C     0.07395   0.31347   0.58571   0.00000  Uiso   1.00
C328   C     0.82859   0.23877   0.46994   0.00000  Uiso   1.00
C329   C     0.79639   0.28092   0.44686   0.00000  Uiso   1.00
C330   C     0.80930   0.27468   0.41030   0.00000  Uiso   1.00
C331   C     0.81334   0.28435   0.34876   0.00000  Uiso   1.00
C332   C     0.80138   0.16798   0.52033   0.00000  Uiso   1.00
C333   C     0.74630   0.15060   0.53961   0.00000  Uiso   1.00
C334   C     0.73629   0.08475   0.54547   0.00000  Uiso   1.00
C335   C     0.69808   0.98450   0.56217   0.00000  Uiso   1.00
C336   C     0.90188   0.15107   0.48696   0.00000  Uiso   1.00
C337   C     0.93366   0.19890   0.51291   0.00000  Uiso   1.00
C338   C     0.99835   0.19837   0.52342   0.00000  Uiso   1.00
C339   C     0.01798   0.24628   0.54739   0.00000  Uiso   1.00
C340   C     0.87213   0.19204   0.45696   0.00000  Uiso   1.00
C341   C     0.88509   0.18572   0.42043   0.00000  Uiso   1.00
C342   C     0.85292   0.22786   0.39730   0.00000  Uiso   1.00
C343   C     0.84493   0.12124   0.50736   0.00000  Uiso   1.00
C344   C     0.83500   0.05540   0.51319   0.00000  Uiso   1.00
C345   C     0.77991   0.03793   0.53247   0.00000  Uiso   1.00
H346   H     0.78782   0.27350   0.52094   0.00000  Uiso   1.00
H347   H     0.87594   0.32973   0.55987   0.00000  Uiso   1.00
H348   H     0.76269   0.31708   0.45690   0.00000  Uiso   1.00
H349   H     0.71261   0.18678   0.54964   0.00000  Uiso   1.00
H350   H     0.99285   0.37147   0.59731   0.00000  Uiso   1.00
H351   H     0.75405   0.34479   0.38019   0.00000  Uiso   1.00
H352   H     0.64844   0.07002   0.57575   0.00000  Uiso   1.00
H353   H     0.93579   0.11469   0.47686   0.00000  Uiso   1.00
H354   H     0.03204   0.16219   0.51338   0.00000  Uiso   1.00
H355   H     0.91879   0.14955   0.41040   0.00000  Uiso   1.00
H356   H     0.86871   0.01925   0.50314   0.00000  Uiso   1.00
H357   H     0.11955   0.23549   0.55957   0.00000  Uiso   1.00
H358   H     0.88074   0.20881   0.34245   0.00000  Uiso   1.00
H359   H     0.77513   0.93405   0.53801   0.00000  Uiso   1.00
O360   O     0.11685   0.33761   0.60325   0.00000  Uiso   1.00
O361   O     0.80354   0.30260   0.31840   0.00000  Uiso   1.00
O362   O     0.66498   0.94212   0.57496   0.00000  Uiso   1.00
N363   N     0.00946   0.33294   0.58342   0.00000  Uiso   1.00
N364   N     0.78620   0.30800   0.38043   0.00000  Uiso   1.00
N365   N     0.68745   0.05112   0.56325   0.00000  Uiso   1.00
N366   N     0.07763   0.25977   0.56312   0.00000  Uiso   1.00
N367   N     0.85437   0.23483   0.36012   0.00000  Uiso   1.00
N368   N     0.75563   0.97795   0.54294   0.00000  Uiso   1.00
C369   C     0.26288   0.17828   0.76084   0.00000  Uiso   1.00
C370   C     0.25436   0.10988   0.77589   0.00000  Uiso   1.00
C371   C     0.20644   0.09035   0.79984   0.00000  Uiso   1.00
C372   C     0.20689   0.02564   0.81038   0.00000  Uiso   1.00
C373   C     0.18653   0.92605   0.83571   0.00000  Uiso   1.00
C374   C     0.26123   0.17141   0.71994   0.00000  Uiso   1.00
C375   C     0.21908   0.20361   0.69686   0.00000  Uiso   1.00
C376   C     0.22532   0.19070   0.66030   0.00000  Uiso   1.00
C377   C     0.21565   0.18666   0.59876   0.00000  Uiso   1.00
C378   C     0.33202   0.19862   0.77033   0.00000  Uiso   1.00
C379   C     0.34940   0.25370   0.78961   0.00000  Uiso   1.00
C380   C     0.41525   0.26371   0.79547   0.00000  Uiso   1.00
C381   C     0.51550   0.30192   0.81217   0.00000  Uiso   1.00
C382   C     0.34893   0.09812   0.73696   0.00000  Uiso   1.00
C383   C     0.30110   0.06634   0.76291   0.00000  Uiso   1.00
C384   C     0.30163   0.00165   0.77342   0.00000  Uiso   1.00
C385   C     0.25372   0.98202   0.79739   0.00000  Uiso   1.00
C386   C     0.30796   0.12787   0.70696   0.00000  Uiso   1.00
C387   C     0.31428   0.11491   0.67043   0.00000  Uiso   1.00
C388   C     0.27214   0.14708   0.64730   0.00000  Uiso   1.00
C389   C     0.37876   0.15507   0.75736   0.00000  Uiso   1.00
C390   C     0.44460   0.16500   0.76319   0.00000  Uiso   1.00
C391   C     0.46207   0.22009   0.78247   0.00000  Uiso   1.00
H392   H     0.22650   0.21218   0.77094   0.00000  Uiso   1.00
H393   H     0.17027   0.12406   0.80987   0.00000  Uiso   1.00
H394   H     0.18292   0.23731   0.70690   0.00000  Uiso   1.00
H395   H     0.31322   0.28739   0.79964   0.00000  Uiso   1.00
H396   H     0.12853   0.00715   0.84731   0.00000  Uiso   1.00
H397   H     0.15521   0.24595   0.63019   0.00000  Uiso   1.00
H398   H     0.42998   0.35156   0.82575   0.00000  Uiso   1.00
H399   H     0.38531   0.06421   0.72686   0.00000  Uiso   1.00
H400   H     0.33781   0.96796   0.76338   0.00000  Uiso   1.00
H401   H     0.35045   0.08121   0.66040   0.00000  Uiso   1.00
H402   H     0.48075   0.13129   0.75314   0.00000  Uiso   1.00
H403   H     0.26451   0.88045   0.80957   0.00000  Uiso   1.00
H404   H     0.29119   0.11926   0.59245   0.00000  Uiso   1.00
H405   H     0.56595   0.22487   0.78801   0.00000  Uiso   1.00
O406   O     0.16239   0.88315   0.85325   0.00000  Uiso   1.00
O407   O     0.19740   0.19646   0.56840   0.00000  Uiso   1.00
O408   O     0.55788   0.33502   0.82496   0.00000  Uiso   1.00
N409   N     0.16706   0.99054   0.83342   0.00000  Uiso   1.00
N410   N     0.19200   0.21380   0.63043   0.00000  Uiso   1.00
N411   N     0.44888   0.31255   0.81325   0.00000  Uiso   1.00
N412   N     0.24023   0.92237   0.81312   0.00000  Uiso   1.00
N413   N     0.26517   0.14563   0.61012   0.00000  Uiso   1.00
N414   N     0.52205   0.24437   0.79294   0.00000  Uiso   1.00
C415   C     0.76288   0.67828   0.26084   0.00000  Uiso   1.00
C416   C     0.75436   0.60988   0.27589   0.00000  Uiso   1.00
C417   C     0.70644   0.59035   0.29984   0.00000  Uiso   1.00
C418   C     0.70689   0.52564   0.31038   0.00000  Uiso   1.00
C419   C     0.68653   0.42605   0.33571   0.00000  Uiso   1.00
C420   C     0.76123   0.67141   0.21994   0.00000  Uiso   1.00
C421   C     0.71908   0.70361   0.19686   0.00000  Uiso   1.00
C422   C     0.72532   0.69070   0.16030   0.00000  Uiso   1.00
C423   C     0.71565   0.68666   0.09876   0.00000  Uiso   1.00
C424   C     0.83202   0.69862   0.27033   0.00000  Uiso   1.00
C425   C     0.84940   0.75370   0.28961   0.00000  Uiso   1.00
C426   C     0.91525   0.76371   0.29547   0.00000  Uiso   1.00
C427   C     0.01550   0.80192   0.31217   0.00000  Uiso   1.00
C428   C     0.84893   0.59812   0.23696   0.00000  Uiso   1.00
C429   C     0.80110   0.56634   0.26291   0.00000  Uiso   1.00
C430   C     0.80163   0.50165   0.27342   0.00000  Uiso   1.00
C431   C     0.75372   0.48202   0.29739   0.00000  Uiso   1.00
C432   C     0.80796   0.62787   0.20696   0.00000  Uiso   1.00
C433   C     0.81428   0.61491   0.17043   0.00000  Uiso   1.00
C434   C     0.77214   0.64708   0.14730   0.00000  Uiso   1.00
C435   C     0.87876   0.65507   0.25736   0.00000  Uiso   1.00
C436   C     0.94460   0.66500   0.26319   0.00000  Uiso   1.00
C437   C     0.96207   0.72009   0.28247   0.00000  Uiso   1.00
H438   H     0.72650   0.71218   0.27094   0.00000  Uiso   1.00
H439   H     0.67027   0.62406   0.30987   0.00000  Uiso   1.00
H440   H     0.68292   0.73731   0.20690   0.00000  Uiso   1.00
H441   H     0.81322   0.78739   0.29964   0.00000  Uiso   1.00
H442   H     0.62853   0.50715   0.34731   0.00000  Uiso   1.00
H443   H     0.65521   0.74595   0.13019   0.00000  Uiso   1.00
H444   H     0.92998   0.85156   0.32575   0.00000  Uiso   1.00
H445   H     0.88531   0.56421   0.22686   0.00000  Uiso   1.00
H446   H     0.83781   0.46796   0.26338   0.00000  Uiso   1.00
H447   H     0.85045   0.58121   0.16040   0.00000  Uiso   1.00
H448   H     0.98075   0.63129   0.25314   0.00000  Uiso   1.00
H449   H     0.76451   0.38045   0.30957   0.00000  Uiso   1.00
H450   H     0.79119   0.61926   0.09245   0.00000  Uiso   1.00
H451   H     0.06595   0.72487   0.28801   0.00000  Uiso   1.00
O452   O     0.66239   0.38315   0.35325   0.00000  Uiso   1.00
O453   O     0.69740   0.69646   0.06840   0.00000  Uiso   1.00
O454   O     0.05788   0.83502   0.32496   0.00000  Uiso   1.00
N455   N     0.66706   0.49054   0.33342   0.00000  Uiso   1.00
N456   N     0.69200   0.71380   0.13043   0.00000  Uiso   1.00
N457   N     0.94888   0.81255   0.31325   0.00000  Uiso   1.00
N458   N     0.74023   0.42237   0.31312   0.00000  Uiso   1.00
N459   N     0.76517   0.64563   0.11012   0.00000  Uiso   1.00
N460   N     0.02205   0.74437   0.29294   0.00000  Uiso   1.00
C461   C     0.23712   0.32172   0.26084   0.00000  Uiso   1.00
C462   C     0.24564   0.39012   0.27589   0.00000  Uiso   1.00
C463   C     0.29356   0.40965   0.29984   0.00000  Uiso   1.00
C464   C     0.29311   0.47436   0.31038   0.00000  Uiso   1.00
C465   C     0.31347   0.57395   0.33571   0.00000  Uiso   1.00
C466   C     0.23877   0.32859   0.21994   0.00000  Uiso   1.00
C467   C     0.28092   0.29639   0.19686   0.00000  Uiso   1.00
C468   C     0.27468   0.30930   0.16030   0.00000  Uiso   1.00
C469   C     0.28435   0.31334   0.09876   0.00000  Uiso   1.00
C470   C     0.16798   0.30138   0.27033   0.00000  Uiso   1.00
C471   C     0.15060   0.24630   0.28961   0.00000  Uiso   1.00
C472   C     0.08475   0.23629   0.29547   0.00000  Uiso   1.00
C473   C     0.98450   0.19808   0.31217   0.00000  Uiso   1.00
C474   C     0.15107   0.40188   0.23696   0.00000  Uiso   1.00
C475   C     0.19890   0.43366   0.26291   0.00000  Uiso   1.00
C476   C     0.19837   0.49835   0.27342   0.00000  Uiso   1.00
C477   C     0.24628   0.51798   0.29739   0.00000  Uiso   1.00
C478   C     0.19204   0.37213   0.20696   0.00000  Uiso   1.00
C479   C     0.18572   0.38509   0.17043   0.00000  Uiso   1.00
C480   C     0.22786   0.35292   0.14730   0.00000  Uiso   1.00
C481   C     0.12124   0.34493   0.25736   0.00000  Uiso   1.00
C482   C     0.05540   0.33500   0.26319   0.00000  Uiso   1.00
C483   C     0.03793   0.27991   0.28247   0.00000  Uiso   1.00
H484   H     0.27350   0.28782   0.27094   0.00000  Uiso   1.00
H485   H     0.32973   0.37594   0.30987   0.00000  Uiso   1.00
H486   H     0.31708   0.26269   0.20690   0.00000  Uiso   1.00
H487   H     0.18678   0.21261   0.29964   0.00000  Uiso   1.00
H488   H     0.37147   0.49285   0.34731   0.00000  Uiso   1.00
H489   H     0.34479   0.25405   0.13019   0.00000  Uiso   1.00
H490   H     0.07002   0.14844   0.32575   0.00000  Uiso   1.00
H491   H     0.11469   0.43579   0.22686   0.00000  Uiso   1.00
H492   H     0.16219   0.53204   0.26338   0.00000  Uiso   1.00
H493   H     0.14955   0.41879   0.16040   0.00000  Uiso   1.00
H494   H     0.01925   0.36871   0.25314   0.00000  Uiso   1.00
H495   H     0.23549   0.61955   0.30957   0.00000  Uiso   1.00
H496   H     0.20881   0.38074   0.09245   0.00000  Uiso   1.00
H497   H     0.93405   0.27513   0.28801   0.00000  Uiso   1.00
O498   O     0.33761   0.61685   0.35325   0.00000  Uiso   1.00
O499   O     0.30260   0.30354   0.06840   0.00000  Uiso   1.00
O500   O     0.94212   0.16498   0.32496   0.00000  Uiso   1.00
N501   N     0.33294   0.50946   0.33342   0.00000  Uiso   1.00
N502   N     0.30800   0.28620   0.13043   0.00000  Uiso   1.00
N503   N     0.05112   0.18745   0.31325   0.00000  Uiso   1.00
N504   N     0.25977   0.57763   0.31312   0.00000  Uiso   1.00
N505   N     0.23483   0.35437   0.11012   0.00000  Uiso   1.00
N506   N     0.97795   0.25563   0.29294   0.00000  Uiso   1.00
C507   C     0.73712   0.82172   0.76084   0.00000  Uiso   1.00
C508   C     0.74564   0.89012   0.77589   0.00000  Uiso   1.00
C509   C     0.79356   0.90965   0.79984   0.00000  Uiso   1.00
C510   C     0.79311   0.97436   0.81038   0.00000  Uiso   1.00
C511   C     0.81347   0.07395   0.83571   0.00000  Uiso   1.00
C512   C     0.73877   0.82859   0.71994   0.00000  Uiso   1.00
C513   C     0.78092   0.79639   0.69686   0.00000  Uiso   1.00
C514   C     0.77468   0.80930   0.66030   0.00000  Uiso   1.00
C515   C     0.78435   0.81334   0.59876   0.00000  Uiso   1.00
C516   C     0.66798   0.80138   0.77033   0.00000  Uiso   1.00
C517   C     0.65060   0.74630   0.78961   0.00000  Uiso   1.00
C518   C     0.58475   0.73629   0.79547   0.00000  Uiso   1.00
C519   C     0.48450   0.69808   0.81217   0.00000  Uiso   1.00
C520   C     0.65107   0.90188   0.73696   0.00000  Uiso   1.00
C521   C     0.69890   0.93366   0.76291   0.00000  Uiso   1.00
C522   C     0.69837   0.99835   0.77342   0.00000  Uiso   1.00
C523   C     0.74628   0.01798   0.79739   0.00000  Uiso   1.00
C524   C     0.69204   0.87213   0.70696   0.00000  Uiso   1.00
C525   C     0.68572   0.88509   0.67043   0.00000  Uiso   1.00
C526   C     0.72786   0.85292   0.64730   0.00000  Uiso   1.00
C527   C     0.62124   0.84493   0.75736   0.00000  Uiso   1.00
C528   C     0.55540   0.83500   0.76319   0.00000  Uiso   1.00
C529   C     0.53793   0.77991   0.78247   0.00000  Uiso   1.00
H530   H     0.77350   0.78782   0.77094   0.00000  Uiso   1.00
H531   H     0.82973   0.87594   0.80987   0.00000  Uiso   1.00
H532   H     0.81708   0.76269   0.70690   0.00000  Uiso   1.00
H533   H     0.68678   0.71261   0.79964   0.00000  Uiso   1.00
H534   H     0.87147   0.99285   0.84731   0.00000  Uiso   1.00
H535   H     0.84479   0.75405   0.63019   0.00000  Uiso   1.00
H536   H     0.57002   0.64844   0.82575   0.00000  Uiso   1.00
H537   H     0.61469   0.93579   0.72686   0.00000  Uiso   1.00
H538   H     0.66219   0.03204   0.76338   0.00000  Uiso   1.00
H539   H     0.64955   0.91879   0.66040   0.00000  Uiso   1.00
H540   H     0.51925   0.86871   0.75314   0.00000  Uiso   1.00
H541   H     0.73549   0.11955   0.80957   0.00000  Uiso   1.00
H542   H     0.70881   0.88074   0.59245   0.00000  Uiso   1.00
H543   H     0.43405   0.77513   0.78801   0.00000  Uiso   1.00
O544   O     0.83761   0.11685   0.85325   0.00000  Uiso   1.00
O545   O     0.80260   0.80354   0.56840   0.00000  Uiso   1.00
O546   O     0.44212   0.66498   0.82496   0.00000  Uiso   1.00
N547   N     0.83294   0.00946   0.83342   0.00000  Uiso   1.00
N548   N     0.80800   0.78620   0.63043   0.00000  Uiso   1.00
N549   N     0.55112   0.68745   0.81325   0.00000  Uiso   1.00
N550   N     0.75977   0.07763   0.81312   0.00000  Uiso   1.00
N551   N     0.73483   0.85437   0.61012   0.00000  Uiso   1.00
N552   N     0.47795   0.75563   0.79294   0.00000  Uiso   1.00
C553   C     0.17828   0.23712   0.01084   0.00000  Uiso   1.00
C554   C     0.10988   0.24564   0.02589   0.00000  Uiso   1.00
C555   C     0.09035   0.29356   0.04984   0.00000  Uiso   1.00
C556   C     0.02564   0.29311   0.06038   0.00000  Uiso   1.00
C557   C     0.92605   0.31347   0.08571   0.00000  Uiso   1.00
C558   C     0.17141   0.23877   0.96994   0.00000  Uiso   1.00
C559   C     0.20361   0.28092   0.94686   0.00000  Uiso   1.00
C560   C     0.19070   0.27468   0.91030   0.00000  Uiso   1.00
C561   C     0.18666   0.28435   0.84876   0.00000  Uiso   1.00
C562   C     0.19862   0.16798   0.02033   0.00000  Uiso   1.00
C563   C     0.25370   0.15060   0.03961   0.00000  Uiso   1.00
C564   C     0.26371   0.08475   0.04547   0.00000  Uiso   1.00
C565   C     0.30192   0.98450   0.06217   0.00000  Uiso   1.00
C566   C     0.09812   0.15107   0.98696   0.00000  Uiso   1.00
C567   C     0.06634   0.19890   0.01291   0.00000  Uiso   1.00
C568   C     0.00165   0.19837   0.02342   0.00000  Uiso   1.00
C569   C     0.98202   0.24628   0.04739   0.00000  Uiso   1.00
C570   C     0.12787   0.19204   0.95696   0.00000  Uiso   1.00
C571   C     0.11491   0.18572   0.92043   0.00000  Uiso   1.00
C572   C     0.14708   0.22786   0.89730   0.00000  Uiso   1.00
C573   C     0.15507   0.12124   0.00736   0.00000  Uiso   1.00
C574   C     0.16500   0.05540   0.01319   0.00000  Uiso   1.00
C575   C     0.22009   0.03793   0.03247   0.00000  Uiso   1.00
H576   H     0.21218   0.27350   0.02094   0.00000  Uiso   1.00
H577   H     0.12406   0.32973   0.05987   0.00000  Uiso   1.00
H578   H     0.23731   0.31708   0.95690   0.00000  Uiso   1.00
H579   H     0.28739   0.18678   0.04964   0.00000  Uiso   1.00
H580   H     0.00715   0.37147   0.09731   0.00000  Uiso   1.00
H581   H     0.24595   0.34479   0.88019   0.00000  Uiso   1.00
H582   H     0.35156   0.07002   0.07575   0.00000  Uiso   1.00
H583   H     0.06421   0.11469   0.97686   0.00000  Uiso   1.00
H584   H     0.96796   0.16219   0.01338   0.00000  Uiso   1.00
H585   H     0.08121   0.14955   0.91040   0.00000  Uiso   1.00
H586   H     0.13129   0.01925   0.00314   0.00000  Uiso   1.00
H587   H     0.88045   0.23549   0.05957   0.00000  Uiso   1.00
H588   H     0.11926   0.20881   0.84245   0.00000  Uiso   1.00
H589   H     0.22487   0.93405   0.03801   0.00000  Uiso   1.00
O590   O     0.88315   0.33761   0.10325   0.00000  Uiso   1.00
O591   O     0.19646   0.30260   0.81840   0.00000  Uiso   1.00
O592   O     0.33502   0.94212   0.07496   0.00000  Uiso   1.00
N593   N     0.99054   0.33294   0.08342   0.00000  Uiso   1.00
N594   N     0.21380   0.30800   0.88043   0.00000  Uiso   1.00
N595   N     0.31255   0.05112   0.06325   0.00000  Uiso   1.00
N596   N     0.92237   0.25977   0.06312   0.00000  Uiso   1.00
N597   N     0.14563   0.23483   0.86012   0.00000  Uiso   1.00
N598   N     0.24437   0.97795   0.04294   0.00000  Uiso   1.00
C599   C     0.67828   0.73712   0.51084   0.00000  Uiso   1.00
C600   C     0.60988   0.74564   0.52589   0.00000  Uiso   1.00
C601   C     0.59035   0.79356   0.54984   0.00000  Uiso   1.00
C602   C     0.52564   0.79311   0.56038   0.00000  Uiso   1.00
C603   C     0.42605   0.81347   0.58571   0.00000  Uiso   1.00
C604   C     0.67141   0.73877   0.46994   0.00000  Uiso   1.00
C605   C     0.70361   0.78092   0.44686   0.00000  Uiso   1.00
C606   C     0.69070   0.77468   0.41030   0.00000  Uiso   1.00
C607   C     0.68666   0.78435   0.34876   0.00000  Uiso   1.00
C608   C     0.69862   0.66798   0.52033   0.00000  Uiso   1.00
C609   C     0.75370   0.65060   0.53961   0.00000  Uiso   1.00
C610   C     0.76371   0.58475   0.54547   0.00000  Uiso   1.00
C611   C     0.80192   0.48450   0.56217   0.00000  Uiso   1.00
C612   C     0.59812   0.65107   0.48696   0.00000  Uiso   1.00
C613   C     0.56634   0.69890   0.51291   0.00000  Uiso   1.00
C614   C     0.50165   0.69837   0.52342   0.00000  Uiso   1.00
C615   C     0.48202   0.74628   0.54739   0.00000  Uiso   1.00
C616   C     0.62787   0.69204   0.45696   0.00000  Uiso   1.00
C617   C     0.61491   0.68572   0.42043   0.00000  Uiso   1.00
C618   C     0.64708   0.72786   0.39730   0.00000  Uiso   1.00
C619   C     0.65507   0.62124   0.50736   0.00000  Uiso   1.00
C620   C     0.66500   0.55540   0.51319   0.00000  Uiso   1.00
C621   C     0.72009   0.53793   0.53247   0.00000  Uiso   1.00
H622   H     0.71218   0.77350   0.52094   0.00000  Uiso   1.00
H623   H     0.62406   0.82973   0.55987   0.00000  Uiso   1.00
H624   H     0.73731   0.81708   0.45690   0.00000  Uiso   1.00
H625   H     0.78739   0.68678   0.54964   0.00000  Uiso   1.00
H626   H     0.50715   0.87147   0.59731   0.00000  Uiso   1.00
H627   H     0.74595   0.84479   0.38019   0.00000  Uiso   1.00
H628   H     0.85156   0.57002   0.57575   0.00000  Uiso   1.00
H629   H     0.56421   0.61469   0.47686   0.00000  Uiso   1.00
H630   H     0.46796   0.66219   0.51338   0.00000  Uiso   1.00
H631   H     0.58121   0.64955   0.41040   0.00000  Uiso   1.00
H632   H     0.63129   0.51925   0.50314   0.00000  Uiso   1.00
H633   H     0.38045   0.73549   0.55957   0.00000  Uiso   1.00
H634   H     0.61926   0.70881   0.34245   0.00000  Uiso   1.00
H635   H     0.72487   0.43405   0.53801   0.00000  Uiso   1.00
O636   O     0.38315   0.83761   0.60325   0.00000  Uiso   1.00
O637   O     0.69646   0.80260   0.31840   0.00000  Uiso   1.00
O638   O     0.83502   0.44212   0.57496   0.00000  Uiso   1.00
N639   N     0.49054   0.83294   0.58342   0.00000  Uiso   1.00
N640   N     0.71380   0.80800   0.38043   0.00000  Uiso   1.00
N641   N     0.81255   0.55112   0.56325   0.00000  Uiso   1.00
N642   N     0.42237   0.75977   0.56312   0.00000  Uiso   1.00
N643   N     0.64563   0.73483   0.36012   0.00000  Uiso   1.00
N644   N     0.74437   0.47795   0.54294   0.00000  Uiso   1.00
C645   C     0.32172   0.26288   0.51084   0.00000  Uiso   1.00
C646   C     0.39012   0.25436   0.52589   0.00000  Uiso   1.00
C647   C     0.40965   0.20644   0.54984   0.00000  Uiso   1.00
C648   C     0.47436   0.20689   0.56038   0.00000  Uiso   1.00
C649   C     0.57395   0.18653   0.58571   0.00000  Uiso   1.00
C650   C     0.32859   0.26123   0.46994   0.00000  Uiso   1.00
C651   C     0.29639   0.21908   0.44686   0.00000  Uiso   1.00
C652   C     0.30930   0.22532   0.41030   0.00000  Uiso   1.00
C653   C     0.31334   0.21565   0.34876   0.00000  Uiso   1.00
C654   C     0.30138   0.33202   0.52033   0.00000  Uiso   1.00
C655   C     0.24630   0.34940   0.53961   0.00000  Uiso   1.00
C656   C     0.23629   0.41525   0.54547   0.00000  Uiso   1.00
C657   C     0.19808   0.51550   0.56217   0.00000  Uiso   1.00
C658   C     0.40188   0.34893   0.48696   0.00000  Uiso   1.00
C659   C     0.43366   0.30110   0.51291   0.00000  Uiso   1.00
C660   C     0.49835   0.30163   0.52342   0.00000  Uiso   1.00
C661   C     0.51798   0.25372   0.54739   0.00000  Uiso   1.00
C662   C     0.37213   0.30796   0.45696   0.00000  Uiso   1.00
C663   C     0.38509   0.31428   0.42043   0.00000  Uiso   1.00
C664   C     0.35292   0.27214   0.39730   0.00000  Uiso   1.00
C665   C     0.34493   0.37876   0.50736   0.00000  Uiso   1.00
C666   C     0.33500   0.44460   0.51319   0.00000  Uiso   1.00
C667   C     0.27991   0.46207   0.53247   0.00000  Uiso   1.00
H668   H     0.28782   0.22650   0.52094   0.00000  Uiso   1.00
H669   H     0.37594   0.17027   0.55987   0.00000  Uiso   1.00
H670   H     0.26269   0.18292   0.45690   0.00000  Uiso   1.00
H671   H     0.21261   0.31322   0.54964   0.00000  Uiso   1.00
H672   H     0.49285   0.12853   0.59731   0.00000  Uiso   1.00
H673   H     0.25405   0.15521   0.38019   0.00000  Uiso   1.00
H674   H     0.14844   0.42998   0.57575   0.00000  Uiso   1.00
H675   H     0.43579   0.38531   0.47686   0.00000  Uiso   1.00
H676   H     0.53204   0.33781   0.51338   0.00000  Uiso   1.00
H677   H     0.41879   0.35045   0.41040   0.00000  Uiso   1.00
H678   H     0.36871   0.48075   0.50314   0.00000  Uiso   1.00
H679   H     0.61955   0.26451   0.55957   0.00000  Uiso   1.00
H680   H     0.38074   0.29119   0.34245   0.00000  Uiso   1.00
H681   H     0.27513   0.56595   0.53801   0.00000  Uiso   1.00
O682   O     0.61685   0.16239   0.60325   0.00000  Uiso   1.00
O683   O     0.30354   0.19740   0.31840   0.00000  Uiso   1.00
O684   O     0.16498   0.55788   0.57496   0.00000  Uiso   1.00
N685   N     0.50946   0.16706   0.58342   0.00000  Uiso   1.00
N686   N     0.28620   0.19200   0.38043   0.00000  Uiso   1.00
N687   N     0.18745   0.44888   0.56325   0.00000  Uiso   1.00
N688   N     0.57763   0.24023   0.56312   0.00000  Uiso   1.00
N689   N     0.35437   0.26517   0.36012   0.00000  Uiso   1.00
N690   N     0.25563   0.52205   0.54294   0.00000  Uiso   1.00
C691   C     0.82172   0.76288   0.01084   0.00000  Uiso   1.00
C692   C     0.89012   0.75436   0.02589   0.00000  Uiso   1.00
C693   C     0.90965   0.70644   0.04984   0.00000  Uiso   1.00
C694   C     0.97436   0.70689   0.06038   0.00000  Uiso   1.00
C695   C     0.07395   0.68653   0.08571   0.00000  Uiso   1.00
C696   C     0.82859   0.76123   0.96994   0.00000  Uiso   1.00
C697   C     0.79639   0.71908   0.94686   0.00000  Uiso   1.00
C698   C     0.80930   0.72532   0.91030   0.00000  Uiso   1.00
C699   C     0.81334   0.71565   0.84876   0.00000  Uiso   1.00
C700   C     0.80138   0.83202   0.02033   0.00000  Uiso   1.00
C701   C     0.74630   0.84940   0.03961   0.00000  Uiso   1.00
C702   C     0.73629   0.91525   0.04547   0.00000  Uiso   1.00
C703   C     0.69808   0.01550   0.06217   0.00000  Uiso   1.00
C704   C     0.90188   0.84893   0.98696   0.00000  Uiso   1.00
C705   C     0.93366   0.80110   0.01291   0.00000  Uiso   1.00
C706   C     0.99835   0.80163   0.02342   0.00000  Uiso   1.00
C707   C     0.01798   0.75372   0.04739   0.00000  Uiso   1.00
C708   C     0.87213   0.80796   0.95696   0.00000  Uiso   1.00
C709   C     0.88509   0.81428   0.92043   0.00000  Uiso   1.00
C710   C     0.85292   0.77214   0.89730   0.00000  Uiso   1.00
C711   C     0.84493   0.87876   0.00736   0.00000  Uiso   1.00
C712   C     0.83500   0.94460   0.01319   0.00000  Uiso   1.00
C713   C     0.77991   0.96207   0.03247   0.00000  Uiso   1.00
H714   H     0.78782   0.72650   0.02094   0.00000  Uiso   1.00
H715   H     0.87594   0.67027   0.05987   0.00000  Uiso   1.00
H716   H     0.76269   0.68292   0.95690   0.00000  Uiso   1.00
H717   H     0.71261   0.81322   0.04964   0.00000  Uiso   1.00
H718   H     0.99285   0.62853   0.09731   0.00000  Uiso   1.00
H719   H     0.75405   0.65521   0.88019   0.00000  Uiso   1.00
H720   H     0.64844   0.92998   0.07575   0.00000  Uiso   1.00
H721   H     0.93579   0.88531   0.97686   0.00000  Uiso   1.00
H722   H     0.03204   0.83781   0.01338   0.00000  Uiso   1.00
H723   H     0.91879   0.85045   0.91040   0.00000  Uiso   1.00
H724   H     0.86871   0.98075   0.00314   0.00000  Uiso   1.00
H725   H     0.11955   0.76451   0.05957   0.00000  Uiso   1.00
H726   H     0.88074   0.79119   0.84245   0.00000  Uiso   1.00
H727   H     0.77513   0.06595   0.03801   0.00000  Uiso   1.00
O728   O     0.11685   0.66239   0.10325   0.00000  Uiso   1.00
O729   O     0.80354   0.69740   0.81840   0.00000  Uiso   1.00
O730   O     0.66498   0.05788   0.07496   0.00000  Uiso   1.00
N731   N     0.00946   0.66706   0.08342   0.00000  Uiso   1.00
N732   N     0.78620   0.69200   0.88043   0.00000  Uiso   1.00
N733   N     0.68745   0.94888   0.06325   0.00000  Uiso   1.00
N734   N     0.07763   0.74023   0.06312   0.00000  Uiso   1.00
N735   N     0.85437   0.76517   0.86012   0.00000  Uiso   1.00
N736   N     0.75563   0.02205   0.04294   0.00000  Uiso   1.00
