data_job_01066
_audit_creation_date              2018-12-19
_audit_creation_method            'Materials Studio'
_symmetry_space_group_name_H-M    'P1'
_symmetry_Int_Tables_number       1
_symmetry_cell_setting            triclinic
loop_
_symmetry_equiv_pos_as_xyz
  x,y,z
_cell_length_a                    10.0089
_cell_length_b                    36.5037
_cell_length_c                    36.0228
_cell_angle_alpha                 90.0000
_cell_angle_beta                  90.0000
_cell_angle_gamma                 90.0000
loop_
_atom_site_label
_atom_site_type_symbol
_atom_site_fract_x
_atom_site_fract_y
_atom_site_fract_z
_atom_site_U_iso_or_equiv
_atom_site_adp_type
_atom_site_occupancy
C1     C     0.32851   0.59058   0.63694   0.00000  Uiso   1.00
C2     C     0.23254   0.56254   0.65348   0.00000  Uiso   1.00
C3     C     0.09492   0.56637   0.65609   0.00000  Uiso   1.00
C4     C     0.02480   0.53762   0.67213   0.00000  Uiso   1.00
C5     C     0.86587   0.49886   0.69586   0.00000  Uiso   1.00
C6     C     0.43039   0.59896   0.66725   0.00000  Uiso   1.00
C7     C     0.45912   0.63342   0.68144   0.00000  Uiso   1.00
C8     C     0.55557   0.63533   0.70907   0.00000  Uiso   1.00
C9     C     0.70387   0.65313   0.75416   0.00000  Uiso   1.00
C10    C     0.40498   0.57059   0.60644   0.00000  Uiso   1.00
C11    C     0.41237   0.58120   0.56950   0.00000  Uiso   1.00
C12    C     0.48745   0.55924   0.54594   0.00000  Uiso   1.00
C13    C     0.59629   0.53299   0.49662   0.00000  Uiso   1.00
C14    C     0.44872   0.53271   0.66079   0.00000  Uiso   1.00
C15    C     0.29784   0.53110   0.66643   0.00000  Uiso   1.00
C16    C     0.22792   0.50234   0.68247   0.00000  Uiso   1.00
C17    C     0.09021   0.50613   0.68511   0.00000  Uiso   1.00
C18    C     0.49569   0.56753   0.68020   0.00000  Uiso   1.00
C19    C     0.59212   0.56940   0.70782   0.00000  Uiso   1.00
C20    C     0.62099   0.60385   0.72205   0.00000  Uiso   1.00
C21    C     0.47027   0.53916   0.61939   0.00000  Uiso   1.00
C22    C     0.54537   0.51718   0.59589   0.00000  Uiso   1.00
C23    C     0.55287   0.52775   0.55892   0.00000  Uiso   1.00
H24    H     0.27768   0.61505   0.62686   0.00000  Uiso   1.00
H25    H     0.04442   0.59070   0.64607   0.00000  Uiso   1.00
H26    H     0.40858   0.65774   0.67141   0.00000  Uiso   1.00
H27    H     0.36183   0.60553   0.55949   0.00000  Uiso   1.00
H28    H     0.81462   0.54984   0.67309   0.00000  Uiso   1.00
H29    H     0.58250   0.69120   0.72651   0.00000  Uiso   1.00
H30    H     0.48392   0.58111   0.49051   0.00000  Uiso   1.00
H31    H     0.49956   0.50824   0.67087   0.00000  Uiso   1.00
H32    H     0.27848   0.47802   0.69249   0.00000  Uiso   1.00
H33    H     0.64264   0.54507   0.71783   0.00000  Uiso   1.00
H34    H     0.59588   0.49286   0.60592   0.00000  Uiso   1.00
H35    H     0.00459   0.45839   0.71077   0.00000  Uiso   1.00
H36    H     0.77247   0.59975   0.76419   0.00000  Uiso   1.00
H37    H     0.67388   0.48966   0.52819   0.00000  Uiso   1.00
O38    O     0.76017   0.48617   0.70537   0.00000  Uiso   1.00
O39    O     0.76761   0.67163   0.77545   0.00000  Uiso   1.00
O40    O     0.63827   0.52719   0.46583   0.00000  Uiso   1.00
N41    N     0.88967   0.53246   0.67898   0.00000  Uiso   1.00
N42    N     0.60757   0.66462   0.72893   0.00000  Uiso   1.00
N43    N     0.51544   0.56170   0.50830   0.00000  Uiso   1.00
N44    N     0.99188   0.48325   0.69926   0.00000  Uiso   1.00
N45    N     0.70979   0.61542   0.74921   0.00000  Uiso   1.00
N46    N     0.61766   0.51249   0.52857   0.00000  Uiso   1.00
C47    C     0.25075   0.85643   0.59926   0.00000  Uiso   1.00
C48    C     0.19661   0.83596   0.56556   0.00000  Uiso   1.00
C49    C     0.06266   0.83027   0.55746   0.00000  Uiso   1.00
C50    C     0.03366   0.81088   0.52530   0.00000  Uiso   1.00
C51    C     0.93417   0.78110   0.47651   0.00000  Uiso   1.00
C52    C     0.34419   0.82978   0.61898   0.00000  Uiso   1.00
C53    C     0.33433   0.81889   0.65579   0.00000  Uiso   1.00
C54    C     0.42958   0.79430   0.66860   0.00000  Uiso   1.00
C55    C     0.55926   0.75494   0.70275   0.00000  Uiso   1.00
C56    C     0.33940   0.88687   0.58398   0.00000  Uiso   1.00
C57    C     0.32553   0.92399   0.59137   0.00000  Uiso   1.00
C58    C     0.41676   0.94746   0.57471   0.00000  Uiso   1.00
C59    C     0.53901   0.99674   0.55452   0.00000  Uiso   1.00
C60    C     0.43746   0.83211   0.55655   0.00000  Uiso   1.00
C61    C     0.29803   0.82275   0.54236   0.00000  Uiso   1.00
C62    C     0.26923   0.80336   0.51021   0.00000  Uiso   1.00
C63    C     0.13525   0.79764   0.50206   0.00000  Uiso   1.00
C64    C     0.44560   0.81657   0.59578   0.00000  Uiso   1.00
C65    C     0.54089   0.79198   0.60854   0.00000  Uiso   1.00
C66    C     0.53117   0.78106   0.64536   0.00000  Uiso   1.00
C67    C     0.44081   0.87366   0.56078   0.00000  Uiso   1.00
C68    C     0.53209   0.89708   0.54411   0.00000  Uiso   1.00
C69    C     0.51836   0.93422   0.55147   0.00000  Uiso   1.00
H70    H     0.17180   0.86671   0.61732   0.00000  Uiso   1.00
H71    H     0.98421   0.84050   0.57542   0.00000  Uiso   1.00
H72    H     0.25585   0.82913   0.67374   0.00000  Uiso   1.00
H73    H     0.24704   0.93420   0.60932   0.00000  Uiso   1.00
H74    H     0.82095   0.80560   0.51874   0.00000  Uiso   1.00
H75    H     0.39373   0.78163   0.72605   0.00000  Uiso   1.00
H76    H     0.37517   0.00320   0.59022   0.00000  Uiso   1.00
H77    H     0.51642   0.82182   0.53849   0.00000  Uiso   1.00
H78    H     0.34773   0.79314   0.49226   0.00000  Uiso   1.00
H79    H     0.61936   0.78177   0.59058   0.00000  Uiso   1.00
H80    H     0.61056   0.88685   0.52616   0.00000  Uiso   1.00
H81    H     0.11599   0.76716   0.45124   0.00000  Uiso   1.00
H82    H     0.68878   0.74319   0.65855   0.00000  Uiso   1.00
H83    H     0.67022   0.96476   0.52272   0.00000  Uiso   1.00
O84    O     0.85128   0.76831   0.45601   0.00000  Uiso   1.00
O85    O     0.60277   0.73687   0.72799   0.00000  Uiso   1.00
O86    O     0.57841   0.02757   0.54979   0.00000  Uiso   1.00
N87    N     0.91354   0.80049   0.50920   0.00000  Uiso   1.00
N88    N     0.44904   0.77808   0.70302   0.00000  Uiso   1.00
N89    N     0.43171   0.98523   0.57604   0.00000  Uiso   1.00
N90    N     0.07230   0.77981   0.47288   0.00000  Uiso   1.00
N91    N     0.60780   0.75740   0.66669   0.00000  Uiso   1.00
N92    N     0.59047   0.96455   0.53971   0.00000  Uiso   1.00
C93    C     0.38968   0.88984   0.85793   0.00000  Uiso   1.00
C94    C     0.29636   0.91789   0.84028   0.00000  Uiso   1.00
C95    C     0.15827   0.91516   0.83823   0.00000  Uiso   1.00
C96    C     0.09088   0.94371   0.82097   0.00000  Uiso   1.00
C97    C     0.93558   0.98267   0.79578   0.00000  Uiso   1.00
C98    C     0.48931   0.87912   0.82780   0.00000  Uiso   1.00
C99    C     0.51345   0.84378   0.81527   0.00000  Uiso   1.00
C100   C     0.60851   0.83969   0.78750   0.00000  Uiso   1.00
C101   C     0.75284   0.81844   0.74296   0.00000  Uiso   1.00
C102   C     0.46966   0.91058   0.88720   0.00000  Uiso   1.00
C103   C     0.47731   0.90170   0.92460   0.00000  Uiso   1.00
C104   C     0.55585   0.92409   0.94683   0.00000  Uiso   1.00
C105   C     0.66966   0.95170   0.99451   0.00000  Uiso   1.00
C106   C     0.51559   0.94540   0.83092   0.00000  Uiso   1.00
C107   C     0.36475   0.94807   0.82561   0.00000  Uiso   1.00
C108   C     0.29756   0.97663   0.80835   0.00000  Uiso   1.00
C109   C     0.15939   0.97394   0.80627   0.00000  Uiso   1.00
C110   C     0.55770   0.90929   0.81313   0.00000  Uiso   1.00
C111   C     0.65275   0.90525   0.78538   0.00000  Uiso   1.00
C112   C     0.67702   0.86992   0.77281   0.00000  Uiso   1.00
C113   C     0.53805   0.94076   0.87253   0.00000  Uiso   1.00
C114   C     0.61660   0.96317   0.89471   0.00000  Uiso   1.00
C115   C     0.62436   0.95432   0.93214   0.00000  Uiso   1.00
H116   H     0.33645   0.86635   0.86935   0.00000  Uiso   1.00
H117   H     0.10538   0.89180   0.84959   0.00000  Uiso   1.00
H118   H     0.46053   0.82043   0.82663   0.00000  Uiso   1.00
H119   H     0.42438   0.87834   0.93594   0.00000  Uiso   1.00
H120   H     0.87936   0.93333   0.82119   0.00000  Uiso   1.00
H121   H     0.62823   0.78284   0.77279   0.00000  Uiso   1.00
H122   H     0.55202   0.90495   0.00329   0.00000  Uiso   1.00
H123   H     0.56883   0.96889   0.81950   0.00000  Uiso   1.00
H124   H     0.35051   0.99998   0.79700   0.00000  Uiso   1.00
H125   H     0.70565   0.92861   0.77404   0.00000  Uiso   1.00
H126   H     0.66951   0.98652   0.88335   0.00000  Uiso   1.00
H127   H     0.07831   0.02113   0.77850   0.00000  Uiso   1.00
H128   H     0.82719   0.87064   0.73011   0.00000  Uiso   1.00
H129   H     0.75097   0.99275   0.96061   0.00000  Uiso   1.00
O130   O     0.83103   0.99583   0.78593   0.00000  Uiso   1.00
O131   O     0.81354   0.79839   0.72244   0.00000  Uiso   1.00
O132   O     0.71353   0.95859   0.02485   0.00000  Uiso   1.00
N133   N     0.95614   0.94973   0.81424   0.00000  Uiso   1.00
N134   N     0.65628   0.80903   0.76898   0.00000  Uiso   1.00
N135   N     0.58505   0.92319   0.98448   0.00000  Uiso   1.00
N136   N     0.06320   0.99698   0.79127   0.00000  Uiso   1.00
N137   N     0.76334   0.85628   0.74602   0.00000  Uiso   1.00
N138   N     0.69211   0.97043   0.96151   0.00000  Uiso   1.00
C139   C     0.44763   0.64304   0.91062   0.00000  Uiso   1.00
C140   C     0.35556   0.66189   0.93842   0.00000  Uiso   1.00
C141   C     0.21794   0.66524   0.93517   0.00000  Uiso   1.00
C142   C     0.15172   0.68345   0.96356   0.00000  Uiso   1.00
C143   C     0.99826   0.71054   0.00208   0.00000  Uiso   1.00
C144   C     0.55158   0.67156   0.89955   0.00000  Uiso   1.00
C145   C     0.57879   0.68304   0.86360   0.00000  Uiso   1.00
C146   C     0.67760   0.70939   0.85928   0.00000  Uiso   1.00
C147   C     0.82855   0.75149   0.83743   0.00000  Uiso   1.00
C148   C     0.52285   0.61377   0.93241   0.00000  Uiso   1.00
C149   C     0.52593   0.57665   0.92410   0.00000  Uiso   1.00
C150   C     0.60058   0.55435   0.94744   0.00000  Uiso   1.00
C151   C     0.70691   0.50671   0.97663   0.00000  Uiso   1.00
C152   C     0.57474   0.66943   0.96684   0.00000  Uiso   1.00
C153   C     0.42460   0.67622   0.96896   0.00000  Uiso   1.00
C154   C     0.35857   0.69443   0.99737   0.00000  Uiso   1.00
C155   C     0.22088   0.69780   0.99416   0.00000  Uiso   1.00
C156   C     0.62062   0.68589   0.93008   0.00000  Uiso   1.00
C157   C     0.71942   0.71223   0.92581   0.00000  Uiso   1.00
C158   C     0.74677   0.72375   0.88987   0.00000  Uiso   1.00
C159   C     0.59189   0.62810   0.96295   0.00000  Uiso   1.00
C160   C     0.66655   0.60585   0.98630   0.00000  Uiso   1.00
C161   C     0.66974   0.56871   0.97803   0.00000  Uiso   1.00
H162   H     0.39388   0.63189   0.88685   0.00000  Uiso   1.00
H163   H     0.16455   0.65414   0.91153   0.00000  Uiso   1.00
H164   H     0.52536   0.67194   0.83998   0.00000  Uiso   1.00
H165   H     0.47249   0.56557   0.90047   0.00000  Uiso   1.00
H166   H     0.94074   0.68515   0.95236   0.00000  Uiso   1.00
H167   H     0.70155   0.72267   0.80149   0.00000  Uiso   1.00
H168   H     0.59009   0.49837   0.92904   0.00000  Uiso   1.00
H169   H     0.62849   0.68059   0.99061   0.00000  Uiso   1.00
H170   H     0.41203   0.70552   0.02100   0.00000  Uiso   1.00
H171   H     0.77283   0.72332   0.94944   0.00000  Uiso   1.00
H172   H     0.71997   0.61695   0.00993   0.00000  Uiso   1.00
H173   H     0.14161   0.72685   0.04120   0.00000  Uiso   1.00
H174   H     0.90242   0.76437   0.89033   0.00000  Uiso   1.00
H175   H     0.79095   0.54007   0.01788   0.00000  Uiso   1.00
O176   O     0.89455   0.72153   0.01489   0.00000  Uiso   1.00
O177   O     0.89272   0.77075   0.81695   0.00000  Uiso   1.00
O178   O     0.74647   0.47648   0.98430   0.00000  Uiso   1.00
N179   N     0.01772   0.69154   0.96910   0.00000  Uiso   1.00
N180   N     0.72902   0.72662   0.82805   0.00000  Uiso   1.00
N181   N     0.62484   0.51692   0.94729   0.00000  Uiso   1.00
N182   N     0.12580   0.71397   0.01691   0.00000  Uiso   1.00
N183   N     0.83710   0.74906   0.87585   0.00000  Uiso   1.00
N184   N     0.73292   0.53936   0.99510   0.00000  Uiso   1.00
C185   C     0.67149   0.40942   0.13694   0.00000  Uiso   1.00
C186   C     0.76746   0.43746   0.15348   0.00000  Uiso   1.00
C187   C     0.90508   0.43363   0.15609   0.00000  Uiso   1.00
C188   C     0.97520   0.46238   0.17213   0.00000  Uiso   1.00
C189   C     0.13413   0.50114   0.19586   0.00000  Uiso   1.00
C190   C     0.56961   0.40104   0.16725   0.00000  Uiso   1.00
C191   C     0.54088   0.36658   0.18144   0.00000  Uiso   1.00
C192   C     0.44443   0.36467   0.20907   0.00000  Uiso   1.00
C193   C     0.29613   0.34687   0.25416   0.00000  Uiso   1.00
C194   C     0.59502   0.42941   0.10644   0.00000  Uiso   1.00
C195   C     0.58763   0.41880   0.06950   0.00000  Uiso   1.00
C196   C     0.51255   0.44076   0.04594   0.00000  Uiso   1.00
C197   C     0.40371   0.46701   0.99662   0.00000  Uiso   1.00
C198   C     0.55128   0.46729   0.16079   0.00000  Uiso   1.00
C199   C     0.70216   0.46890   0.16643   0.00000  Uiso   1.00
C200   C     0.77208   0.49766   0.18247   0.00000  Uiso   1.00
C201   C     0.90979   0.49387   0.18511   0.00000  Uiso   1.00
C202   C     0.50431   0.43247   0.18020   0.00000  Uiso   1.00
C203   C     0.40788   0.43060   0.20782   0.00000  Uiso   1.00
C204   C     0.37901   0.39615   0.22205   0.00000  Uiso   1.00
C205   C     0.52973   0.46084   0.11939   0.00000  Uiso   1.00
C206   C     0.45463   0.48282   0.09589   0.00000  Uiso   1.00
C207   C     0.44713   0.47225   0.05892   0.00000  Uiso   1.00
H208   H     0.72232   0.38495   0.12686   0.00000  Uiso   1.00
H209   H     0.95558   0.40930   0.14607   0.00000  Uiso   1.00
H210   H     0.59142   0.34226   0.17141   0.00000  Uiso   1.00
H211   H     0.63817   0.39447   0.05949   0.00000  Uiso   1.00
H212   H     0.18538   0.45016   0.17309   0.00000  Uiso   1.00
H213   H     0.41750   0.30880   0.22651   0.00000  Uiso   1.00
H214   H     0.51608   0.41889   0.99051   0.00000  Uiso   1.00
H215   H     0.50044   0.49176   0.17087   0.00000  Uiso   1.00
H216   H     0.72152   0.52198   0.19249   0.00000  Uiso   1.00
H217   H     0.35736   0.45493   0.21783   0.00000  Uiso   1.00
H218   H     0.40412   0.50714   0.10592   0.00000  Uiso   1.00
H219   H     0.99541   0.54161   0.21077   0.00000  Uiso   1.00
H220   H     0.22753   0.40025   0.26419   0.00000  Uiso   1.00
H221   H     0.32612   0.51034   0.02819   0.00000  Uiso   1.00
O222   O     0.23983   0.51383   0.20537   0.00000  Uiso   1.00
O223   O     0.23239   0.32837   0.27545   0.00000  Uiso   1.00
O224   O     0.36173   0.47281   0.96583   0.00000  Uiso   1.00
N225   N     0.11033   0.46754   0.17898   0.00000  Uiso   1.00
N226   N     0.39243   0.33538   0.22893   0.00000  Uiso   1.00
N227   N     0.48456   0.43830   0.00830   0.00000  Uiso   1.00
N228   N     0.00812   0.51675   0.19926   0.00000  Uiso   1.00
N229   N     0.29021   0.38458   0.24921   0.00000  Uiso   1.00
N230   N     0.38234   0.48751   0.02857   0.00000  Uiso   1.00
C231   C     0.74925   0.14357   0.09926   0.00000  Uiso   1.00
C232   C     0.80339   0.16404   0.06556   0.00000  Uiso   1.00
C233   C     0.93734   0.16973   0.05746   0.00000  Uiso   1.00
C234   C     0.96634   0.18912   0.02530   0.00000  Uiso   1.00
C235   C     0.06583   0.21890   0.97651   0.00000  Uiso   1.00
C236   C     0.65581   0.17022   0.11898   0.00000  Uiso   1.00
C237   C     0.66567   0.18111   0.15579   0.00000  Uiso   1.00
C238   C     0.57042   0.20570   0.16860   0.00000  Uiso   1.00
C239   C     0.44074   0.24506   0.20275   0.00000  Uiso   1.00
C240   C     0.66060   0.11313   0.08398   0.00000  Uiso   1.00
C241   C     0.67447   0.07601   0.09137   0.00000  Uiso   1.00
C242   C     0.58324   0.05254   0.07471   0.00000  Uiso   1.00
C243   C     0.46099   0.00326   0.05452   0.00000  Uiso   1.00
C244   C     0.56254   0.16789   0.05655   0.00000  Uiso   1.00
C245   C     0.70197   0.17725   0.04236   0.00000  Uiso   1.00
C246   C     0.73077   0.19664   0.01021   0.00000  Uiso   1.00
C247   C     0.86475   0.20236   0.00206   0.00000  Uiso   1.00
C248   C     0.55440   0.18343   0.09578   0.00000  Uiso   1.00
C249   C     0.45911   0.20802   0.10854   0.00000  Uiso   1.00
C250   C     0.46883   0.21894   0.14536   0.00000  Uiso   1.00
C251   C     0.55919   0.12634   0.06078   0.00000  Uiso   1.00
C252   C     0.46791   0.10292   0.04411   0.00000  Uiso   1.00
C253   C     0.48164   0.06578   0.05147   0.00000  Uiso   1.00
H254   H     0.82820   0.13329   0.11732   0.00000  Uiso   1.00
H255   H     0.01579   0.15950   0.07542   0.00000  Uiso   1.00
H256   H     0.74415   0.17087   0.17374   0.00000  Uiso   1.00
H257   H     0.75296   0.06580   0.10932   0.00000  Uiso   1.00
H258   H     0.17905   0.19440   0.01874   0.00000  Uiso   1.00
H259   H     0.60627   0.21837   0.22605   0.00000  Uiso   1.00
H260   H     0.62483   0.99680   0.09022   0.00000  Uiso   1.00
H261   H     0.48358   0.17818   0.03849   0.00000  Uiso   1.00
H262   H     0.65227   0.20686   0.99226   0.00000  Uiso   1.00
H263   H     0.38064   0.21823   0.09058   0.00000  Uiso   1.00
H264   H     0.38944   0.11315   0.02616   0.00000  Uiso   1.00
H265   H     0.88401   0.23284   0.95124   0.00000  Uiso   1.00
H266   H     0.31122   0.25681   0.15855   0.00000  Uiso   1.00
H267   H     0.32978   0.03524   0.02272   0.00000  Uiso   1.00
O268   O     0.14872   0.23169   0.95601   0.00000  Uiso   1.00
O269   O     0.39723   0.26313   0.22799   0.00000  Uiso   1.00
O270   O     0.42159   0.97243   0.04979   0.00000  Uiso   1.00
N271   N     0.08646   0.19951   0.00920   0.00000  Uiso   1.00
N272   N     0.55096   0.22192   0.20302   0.00000  Uiso   1.00
N273   N     0.56829   0.01477   0.07604   0.00000  Uiso   1.00
N274   N     0.92770   0.22019   0.97288   0.00000  Uiso   1.00
N275   N     0.39220   0.24260   0.16669   0.00000  Uiso   1.00
N276   N     0.40953   0.03545   0.03971   0.00000  Uiso   1.00
C277   C     0.61032   0.11016   0.35793   0.00000  Uiso   1.00
C278   C     0.70364   0.08211   0.34028   0.00000  Uiso   1.00
C279   C     0.84173   0.08484   0.33823   0.00000  Uiso   1.00
C280   C     0.90912   0.05629   0.32097   0.00000  Uiso   1.00
C281   C     0.06442   0.01733   0.29578   0.00000  Uiso   1.00
C282   C     0.51069   0.12088   0.32780   0.00000  Uiso   1.00
C283   C     0.48655   0.15622   0.31527   0.00000  Uiso   1.00
C284   C     0.39149   0.16031   0.28750   0.00000  Uiso   1.00
C285   C     0.24716   0.18156   0.24296   0.00000  Uiso   1.00
C286   C     0.53034   0.08942   0.38720   0.00000  Uiso   1.00
C287   C     0.52269   0.09830   0.42460   0.00000  Uiso   1.00
C288   C     0.44415   0.07591   0.44683   0.00000  Uiso   1.00
C289   C     0.33034   0.04830   0.49451   0.00000  Uiso   1.00
C290   C     0.48441   0.05460   0.33092   0.00000  Uiso   1.00
C291   C     0.63525   0.05193   0.32561   0.00000  Uiso   1.00
C292   C     0.70244   0.02337   0.30835   0.00000  Uiso   1.00
C293   C     0.84061   0.02606   0.30627   0.00000  Uiso   1.00
C294   C     0.44230   0.09071   0.31313   0.00000  Uiso   1.00
C295   C     0.34725   0.09475   0.28538   0.00000  Uiso   1.00
C296   C     0.32298   0.13008   0.27281   0.00000  Uiso   1.00
C297   C     0.46195   0.05924   0.37253   0.00000  Uiso   1.00
C298   C     0.38340   0.03683   0.39471   0.00000  Uiso   1.00
C299   C     0.37564   0.04568   0.43214   0.00000  Uiso   1.00
H300   H     0.66355   0.13365   0.36935   0.00000  Uiso   1.00
H301   H     0.89462   0.10820   0.34959   0.00000  Uiso   1.00
H302   H     0.53947   0.17957   0.32663   0.00000  Uiso   1.00
H303   H     0.57562   0.12166   0.43594   0.00000  Uiso   1.00
H304   H     0.12064   0.06667   0.32119   0.00000  Uiso   1.00
H305   H     0.37177   0.21716   0.27279   0.00000  Uiso   1.00
H306   H     0.44798   0.09505   0.50329   0.00000  Uiso   1.00
H307   H     0.43117   0.03111   0.31950   0.00000  Uiso   1.00
H308   H     0.64949   0.00002   0.29700   0.00000  Uiso   1.00
H309   H     0.29435   0.07139   0.27404   0.00000  Uiso   1.00
H310   H     0.33049   0.01348   0.38335   0.00000  Uiso   1.00
H311   H     0.92169   0.97887   0.27850   0.00000  Uiso   1.00
H312   H     0.17281   0.12936   0.23011   0.00000  Uiso   1.00
H313   H     0.24903   0.00725   0.46061   0.00000  Uiso   1.00
O314   O     0.16897   0.00417   0.28593   0.00000  Uiso   1.00
O315   O     0.18646   0.20161   0.22244   0.00000  Uiso   1.00
O316   O     0.28647   0.04141   0.52485   0.00000  Uiso   1.00
N317   N     0.04386   0.05027   0.31424   0.00000  Uiso   1.00
N318   N     0.34372   0.19097   0.26898   0.00000  Uiso   1.00
N319   N     0.41495   0.07681   0.48448   0.00000  Uiso   1.00
N320   N     0.93680   0.00302   0.29127   0.00000  Uiso   1.00
N321   N     0.23666   0.14372   0.24602   0.00000  Uiso   1.00
N322   N     0.30789   0.02957   0.46151   0.00000  Uiso   1.00
C323   C     0.55237   0.35696   0.41062   0.00000  Uiso   1.00
C324   C     0.64444   0.33811   0.43842   0.00000  Uiso   1.00
C325   C     0.78206   0.33476   0.43517   0.00000  Uiso   1.00
C326   C     0.84828   0.31655   0.46356   0.00000  Uiso   1.00
C327   C     0.00174   0.28946   0.50208   0.00000  Uiso   1.00
C328   C     0.44842   0.32844   0.39955   0.00000  Uiso   1.00
C329   C     0.42121   0.31696   0.36360   0.00000  Uiso   1.00
C330   C     0.32240   0.29061   0.35928   0.00000  Uiso   1.00
C331   C     0.17145   0.24851   0.33743   0.00000  Uiso   1.00
C332   C     0.47715   0.38623   0.43241   0.00000  Uiso   1.00
C333   C     0.47407   0.42335   0.42410   0.00000  Uiso   1.00
C334   C     0.39942   0.44565   0.44744   0.00000  Uiso   1.00
C335   C     0.29309   0.49329   0.47663   0.00000  Uiso   1.00
C336   C     0.42526   0.33057   0.46684   0.00000  Uiso   1.00
C337   C     0.57540   0.32378   0.46896   0.00000  Uiso   1.00
C338   C     0.64143   0.30557   0.49737   0.00000  Uiso   1.00
C339   C     0.77912   0.30220   0.49416   0.00000  Uiso   1.00
C340   C     0.37938   0.31411   0.43008   0.00000  Uiso   1.00
C341   C     0.28058   0.28777   0.42581   0.00000  Uiso   1.00
C342   C     0.25323   0.27625   0.38987   0.00000  Uiso   1.00
C343   C     0.40811   0.37190   0.46295   0.00000  Uiso   1.00
C344   C     0.33345   0.39415   0.48630   0.00000  Uiso   1.00
C345   C     0.33026   0.43129   0.47803   0.00000  Uiso   1.00
H346   H     0.60612   0.36811   0.38685   0.00000  Uiso   1.00
H347   H     0.83545   0.34586   0.41153   0.00000  Uiso   1.00
H348   H     0.47464   0.32806   0.33998   0.00000  Uiso   1.00
H349   H     0.52751   0.43443   0.40047   0.00000  Uiso   1.00
H350   H     0.05926   0.31485   0.45236   0.00000  Uiso   1.00
H351   H     0.29845   0.27733   0.30149   0.00000  Uiso   1.00
H352   H     0.40991   0.50163   0.42904   0.00000  Uiso   1.00
H353   H     0.37151   0.31941   0.49061   0.00000  Uiso   1.00
H354   H     0.58797   0.29448   0.52100   0.00000  Uiso   1.00
H355   H     0.22717   0.27668   0.44944   0.00000  Uiso   1.00
H356   H     0.28003   0.38305   0.50993   0.00000  Uiso   1.00
H357   H     0.85839   0.27315   0.54120   0.00000  Uiso   1.00
H358   H     0.09758   0.23563   0.39033   0.00000  Uiso   1.00
H359   H     0.20905   0.45993   0.51788   0.00000  Uiso   1.00
O360   O     0.10545   0.27847   0.51489   0.00000  Uiso   1.00
O361   O     0.10728   0.22925   0.31695   0.00000  Uiso   1.00
O362   O     0.25353   0.52352   0.48430   0.00000  Uiso   1.00
N363   N     0.98228   0.30846   0.46910   0.00000  Uiso   1.00
N364   N     0.27098   0.27338   0.32805   0.00000  Uiso   1.00
N365   N     0.37516   0.48308   0.44729   0.00000  Uiso   1.00
N366   N     0.87420   0.28603   0.51691   0.00000  Uiso   1.00
N367   N     0.16290   0.25094   0.37585   0.00000  Uiso   1.00
N368   N     0.26708   0.46064   0.49510   0.00000  Uiso   1.00
C369   C     0.82851   0.90942   0.63694   0.00000  Uiso   1.00
C370   C     0.73254   0.93746   0.65348   0.00000  Uiso   1.00
C371   C     0.59492   0.93363   0.65609   0.00000  Uiso   1.00
C372   C     0.52480   0.96238   0.67213   0.00000  Uiso   1.00
C373   C     0.36587   0.00114   0.69586   0.00000  Uiso   1.00
C374   C     0.93039   0.90104   0.66725   0.00000  Uiso   1.00
C375   C     0.95912   0.86658   0.68144   0.00000  Uiso   1.00
C376   C     0.05557   0.86467   0.70907   0.00000  Uiso   1.00
C377   C     0.20387   0.84687   0.75416   0.00000  Uiso   1.00
C378   C     0.90498   0.92941   0.60644   0.00000  Uiso   1.00
C379   C     0.91237   0.91880   0.56950   0.00000  Uiso   1.00
C380   C     0.98745   0.94076   0.54594   0.00000  Uiso   1.00
C381   C     0.09629   0.96701   0.49662   0.00000  Uiso   1.00
C382   C     0.94872   0.96729   0.66079   0.00000  Uiso   1.00
C383   C     0.79784   0.96890   0.66643   0.00000  Uiso   1.00
C384   C     0.72792   0.99766   0.68247   0.00000  Uiso   1.00
C385   C     0.59021   0.99387   0.68511   0.00000  Uiso   1.00
C386   C     0.99569   0.93247   0.68020   0.00000  Uiso   1.00
C387   C     0.09212   0.93060   0.70782   0.00000  Uiso   1.00
C388   C     0.12099   0.89615   0.72205   0.00000  Uiso   1.00
C389   C     0.97027   0.96084   0.61939   0.00000  Uiso   1.00
C390   C     0.04537   0.98282   0.59589   0.00000  Uiso   1.00
C391   C     0.05287   0.97225   0.55892   0.00000  Uiso   1.00
H392   H     0.77768   0.88495   0.62686   0.00000  Uiso   1.00
H393   H     0.54442   0.90930   0.64607   0.00000  Uiso   1.00
H394   H     0.90858   0.84226   0.67141   0.00000  Uiso   1.00
H395   H     0.86183   0.89447   0.55949   0.00000  Uiso   1.00
H396   H     0.31462   0.95016   0.67309   0.00000  Uiso   1.00
H397   H     0.08250   0.80880   0.72651   0.00000  Uiso   1.00
H398   H     0.98392   0.91889   0.49051   0.00000  Uiso   1.00
H399   H     0.99956   0.99176   0.67087   0.00000  Uiso   1.00
H400   H     0.77848   0.02198   0.69249   0.00000  Uiso   1.00
H401   H     0.14264   0.95493   0.71783   0.00000  Uiso   1.00
H402   H     0.09588   0.00714   0.60592   0.00000  Uiso   1.00
H403   H     0.50459   0.04161   0.71077   0.00000  Uiso   1.00
H404   H     0.27247   0.90025   0.76419   0.00000  Uiso   1.00
H405   H     0.17388   0.01034   0.52819   0.00000  Uiso   1.00
O406   O     0.26017   0.01383   0.70537   0.00000  Uiso   1.00
O407   O     0.26761   0.82837   0.77545   0.00000  Uiso   1.00
O408   O     0.13827   0.97281   0.46583   0.00000  Uiso   1.00
N409   N     0.38967   0.96754   0.67898   0.00000  Uiso   1.00
N410   N     0.10757   0.83538   0.72893   0.00000  Uiso   1.00
N411   N     0.01544   0.93830   0.50830   0.00000  Uiso   1.00
N412   N     0.49188   0.01675   0.69926   0.00000  Uiso   1.00
N413   N     0.20979   0.88458   0.74921   0.00000  Uiso   1.00
N414   N     0.11766   0.98751   0.52857   0.00000  Uiso   1.00
C415   C     0.75075   0.64357   0.59926   0.00000  Uiso   1.00
C416   C     0.69661   0.66404   0.56556   0.00000  Uiso   1.00
C417   C     0.56266   0.66973   0.55746   0.00000  Uiso   1.00
C418   C     0.53366   0.68912   0.52530   0.00000  Uiso   1.00
C419   C     0.43417   0.71890   0.47651   0.00000  Uiso   1.00
C420   C     0.84419   0.67022   0.61898   0.00000  Uiso   1.00
C421   C     0.83433   0.68111   0.65579   0.00000  Uiso   1.00
C422   C     0.92958   0.70570   0.66860   0.00000  Uiso   1.00
C423   C     0.05926   0.74506   0.70275   0.00000  Uiso   1.00
C424   C     0.83940   0.61313   0.58398   0.00000  Uiso   1.00
C425   C     0.82553   0.57601   0.59137   0.00000  Uiso   1.00
C426   C     0.91676   0.55254   0.57471   0.00000  Uiso   1.00
C427   C     0.03901   0.50326   0.55452   0.00000  Uiso   1.00
C428   C     0.93746   0.66789   0.55655   0.00000  Uiso   1.00
C429   C     0.79803   0.67725   0.54236   0.00000  Uiso   1.00
C430   C     0.76923   0.69664   0.51021   0.00000  Uiso   1.00
C431   C     0.63525   0.70236   0.50206   0.00000  Uiso   1.00
C432   C     0.94560   0.68343   0.59578   0.00000  Uiso   1.00
C433   C     0.04089   0.70802   0.60854   0.00000  Uiso   1.00
C434   C     0.03117   0.71894   0.64536   0.00000  Uiso   1.00
C435   C     0.94081   0.62634   0.56078   0.00000  Uiso   1.00
C436   C     0.03209   0.60292   0.54411   0.00000  Uiso   1.00
C437   C     0.01836   0.56578   0.55147   0.00000  Uiso   1.00
H438   H     0.67180   0.63329   0.61732   0.00000  Uiso   1.00
H439   H     0.48421   0.65950   0.57542   0.00000  Uiso   1.00
H440   H     0.75585   0.67087   0.67374   0.00000  Uiso   1.00
H441   H     0.74704   0.56580   0.60932   0.00000  Uiso   1.00
H442   H     0.32095   0.69440   0.51874   0.00000  Uiso   1.00
H443   H     0.89373   0.71837   0.72605   0.00000  Uiso   1.00
H444   H     0.87517   0.49680   0.59022   0.00000  Uiso   1.00
H445   H     0.01642   0.67818   0.53849   0.00000  Uiso   1.00
H446   H     0.84773   0.70686   0.49226   0.00000  Uiso   1.00
H447   H     0.11936   0.71823   0.59058   0.00000  Uiso   1.00
H448   H     0.11056   0.61315   0.52616   0.00000  Uiso   1.00
H449   H     0.61599   0.73284   0.45124   0.00000  Uiso   1.00
H450   H     0.18878   0.75681   0.65855   0.00000  Uiso   1.00
H451   H     0.17022   0.53524   0.52272   0.00000  Uiso   1.00
O452   O     0.35128   0.73169   0.45601   0.00000  Uiso   1.00
O453   O     0.10277   0.76313   0.72799   0.00000  Uiso   1.00
O454   O     0.07841   0.47243   0.54979   0.00000  Uiso   1.00
N455   N     0.41354   0.69951   0.50920   0.00000  Uiso   1.00
N456   N     0.94904   0.72192   0.70302   0.00000  Uiso   1.00
N457   N     0.93171   0.51477   0.57604   0.00000  Uiso   1.00
N458   N     0.57230   0.72019   0.47288   0.00000  Uiso   1.00
N459   N     0.10780   0.74260   0.66669   0.00000  Uiso   1.00
N460   N     0.09047   0.53545   0.53971   0.00000  Uiso   1.00
C461   C     0.88968   0.61016   0.85793   0.00000  Uiso   1.00
C462   C     0.79636   0.58211   0.84028   0.00000  Uiso   1.00
C463   C     0.65827   0.58484   0.83823   0.00000  Uiso   1.00
C464   C     0.59088   0.55629   0.82097   0.00000  Uiso   1.00
C465   C     0.43558   0.51733   0.79578   0.00000  Uiso   1.00
C466   C     0.98931   0.62088   0.82780   0.00000  Uiso   1.00
C467   C     0.01345   0.65622   0.81527   0.00000  Uiso   1.00
C468   C     0.10851   0.66031   0.78750   0.00000  Uiso   1.00
C469   C     0.25284   0.68156   0.74296   0.00000  Uiso   1.00
C470   C     0.96966   0.58942   0.88720   0.00000  Uiso   1.00
C471   C     0.97731   0.59830   0.92460   0.00000  Uiso   1.00
C472   C     0.05585   0.57591   0.94683   0.00000  Uiso   1.00
C473   C     0.16966   0.54830   0.99451   0.00000  Uiso   1.00
C474   C     0.01559   0.55460   0.83092   0.00000  Uiso   1.00
C475   C     0.86475   0.55193   0.82561   0.00000  Uiso   1.00
C476   C     0.79756   0.52337   0.80835   0.00000  Uiso   1.00
C477   C     0.65939   0.52606   0.80627   0.00000  Uiso   1.00
C478   C     0.05770   0.59071   0.81313   0.00000  Uiso   1.00
C479   C     0.15275   0.59475   0.78538   0.00000  Uiso   1.00
C480   C     0.17702   0.63008   0.77281   0.00000  Uiso   1.00
C481   C     0.03805   0.55924   0.87253   0.00000  Uiso   1.00
C482   C     0.11660   0.53683   0.89471   0.00000  Uiso   1.00
C483   C     0.12436   0.54568   0.93214   0.00000  Uiso   1.00
H484   H     0.83645   0.63365   0.86935   0.00000  Uiso   1.00
H485   H     0.60538   0.60820   0.84959   0.00000  Uiso   1.00
H486   H     0.96053   0.67957   0.82663   0.00000  Uiso   1.00
H487   H     0.92438   0.62166   0.93594   0.00000  Uiso   1.00
H488   H     0.37936   0.56667   0.82119   0.00000  Uiso   1.00
H489   H     0.12823   0.71716   0.77279   0.00000  Uiso   1.00
H490   H     0.05202   0.59505   0.00329   0.00000  Uiso   1.00
H491   H     0.06883   0.53111   0.81950   0.00000  Uiso   1.00
H492   H     0.85051   0.50002   0.79700   0.00000  Uiso   1.00
H493   H     0.20565   0.57139   0.77404   0.00000  Uiso   1.00
H494   H     0.16951   0.51348   0.88335   0.00000  Uiso   1.00
H495   H     0.57831   0.47887   0.77850   0.00000  Uiso   1.00
H496   H     0.32719   0.62936   0.73011   0.00000  Uiso   1.00
H497   H     0.25097   0.50725   0.96061   0.00000  Uiso   1.00
O498   O     0.33103   0.50417   0.78593   0.00000  Uiso   1.00
O499   O     0.31354   0.70161   0.72244   0.00000  Uiso   1.00
O500   O     0.21353   0.54141   0.02485   0.00000  Uiso   1.00
N501   N     0.45614   0.55027   0.81424   0.00000  Uiso   1.00
N502   N     0.15628   0.69097   0.76898   0.00000  Uiso   1.00
N503   N     0.08505   0.57681   0.98448   0.00000  Uiso   1.00
N504   N     0.56320   0.50302   0.79127   0.00000  Uiso   1.00
N505   N     0.26334   0.64372   0.74602   0.00000  Uiso   1.00
N506   N     0.19211   0.52957   0.96151   0.00000  Uiso   1.00
C507   C     0.94763   0.85696   0.91062   0.00000  Uiso   1.00
C508   C     0.85556   0.83811   0.93842   0.00000  Uiso   1.00
C509   C     0.71794   0.83476   0.93517   0.00000  Uiso   1.00
C510   C     0.65172   0.81655   0.96356   0.00000  Uiso   1.00
C511   C     0.49826   0.78946   0.00208   0.00000  Uiso   1.00
C512   C     0.05158   0.82844   0.89955   0.00000  Uiso   1.00
C513   C     0.07879   0.81696   0.86360   0.00000  Uiso   1.00
C514   C     0.17760   0.79061   0.85928   0.00000  Uiso   1.00
C515   C     0.32855   0.74851   0.83743   0.00000  Uiso   1.00
C516   C     0.02285   0.88623   0.93241   0.00000  Uiso   1.00
C517   C     0.02593   0.92335   0.92410   0.00000  Uiso   1.00
C518   C     0.10058   0.94565   0.94744   0.00000  Uiso   1.00
C519   C     0.20691   0.99329   0.97663   0.00000  Uiso   1.00
C520   C     0.07474   0.83057   0.96684   0.00000  Uiso   1.00
C521   C     0.92460   0.82378   0.96896   0.00000  Uiso   1.00
C522   C     0.85857   0.80557   0.99737   0.00000  Uiso   1.00
C523   C     0.72088   0.80220   0.99416   0.00000  Uiso   1.00
C524   C     0.12062   0.81411   0.93008   0.00000  Uiso   1.00
C525   C     0.21942   0.78777   0.92581   0.00000  Uiso   1.00
C526   C     0.24677   0.77625   0.88987   0.00000  Uiso   1.00
C527   C     0.09189   0.87190   0.96295   0.00000  Uiso   1.00
C528   C     0.16655   0.89415   0.98630   0.00000  Uiso   1.00
C529   C     0.16974   0.93129   0.97803   0.00000  Uiso   1.00
H530   H     0.89388   0.86811   0.88685   0.00000  Uiso   1.00
H531   H     0.66455   0.84586   0.91153   0.00000  Uiso   1.00
H532   H     0.02536   0.82806   0.83998   0.00000  Uiso   1.00
H533   H     0.97249   0.93443   0.90047   0.00000  Uiso   1.00
H534   H     0.44074   0.81485   0.95236   0.00000  Uiso   1.00
H535   H     0.20155   0.77733   0.80149   0.00000  Uiso   1.00
H536   H     0.09009   0.00163   0.92904   0.00000  Uiso   1.00
H537   H     0.12849   0.81941   0.99061   0.00000  Uiso   1.00
H538   H     0.91203   0.79448   0.02100   0.00000  Uiso   1.00
H539   H     0.27283   0.77668   0.94944   0.00000  Uiso   1.00
H540   H     0.21997   0.88305   0.00993   0.00000  Uiso   1.00
H541   H     0.64161   0.77315   0.04120   0.00000  Uiso   1.00
H542   H     0.40242   0.73563   0.89033   0.00000  Uiso   1.00
H543   H     0.29095   0.95993   0.01788   0.00000  Uiso   1.00
O544   O     0.39455   0.77847   0.01489   0.00000  Uiso   1.00
O545   O     0.39272   0.72925   0.81695   0.00000  Uiso   1.00
O546   O     0.24647   0.02352   0.98430   0.00000  Uiso   1.00
N547   N     0.51772   0.80846   0.96910   0.00000  Uiso   1.00
N548   N     0.22902   0.77338   0.82805   0.00000  Uiso   1.00
N549   N     0.12484   0.98308   0.94729   0.00000  Uiso   1.00
N550   N     0.62580   0.78603   0.01691   0.00000  Uiso   1.00
N551   N     0.33710   0.75094   0.87585   0.00000  Uiso   1.00
N552   N     0.23292   0.96064   0.99510   0.00000  Uiso   1.00
C553   C     0.17149   0.09058   0.13694   0.00000  Uiso   1.00
C554   C     0.26746   0.06254   0.15348   0.00000  Uiso   1.00
C555   C     0.40508   0.06637   0.15609   0.00000  Uiso   1.00
C556   C     0.47520   0.03762   0.17213   0.00000  Uiso   1.00
C557   C     0.63413   0.99886   0.19586   0.00000  Uiso   1.00
C558   C     0.06961   0.09896   0.16725   0.00000  Uiso   1.00
C559   C     0.04088   0.13342   0.18144   0.00000  Uiso   1.00
C560   C     0.94443   0.13533   0.20907   0.00000  Uiso   1.00
C561   C     0.79613   0.15313   0.25416   0.00000  Uiso   1.00
C562   C     0.09502   0.07059   0.10644   0.00000  Uiso   1.00
C563   C     0.08763   0.08120   0.06950   0.00000  Uiso   1.00
C564   C     0.01255   0.05924   0.04594   0.00000  Uiso   1.00
C565   C     0.90371   0.03299   0.99662   0.00000  Uiso   1.00
C566   C     0.05128   0.03271   0.16079   0.00000  Uiso   1.00
C567   C     0.20216   0.03110   0.16643   0.00000  Uiso   1.00
C568   C     0.27208   0.00234   0.18247   0.00000  Uiso   1.00
C569   C     0.40979   0.00613   0.18511   0.00000  Uiso   1.00
C570   C     0.00431   0.06753   0.18020   0.00000  Uiso   1.00
C571   C     0.90788   0.06940   0.20782   0.00000  Uiso   1.00
C572   C     0.87901   0.10385   0.22205   0.00000  Uiso   1.00
C573   C     0.02973   0.03916   0.11939   0.00000  Uiso   1.00
C574   C     0.95463   0.01718   0.09589   0.00000  Uiso   1.00
C575   C     0.94713   0.02775   0.05892   0.00000  Uiso   1.00
H576   H     0.22232   0.11505   0.12686   0.00000  Uiso   1.00
H577   H     0.45558   0.09070   0.14607   0.00000  Uiso   1.00
H578   H     0.09142   0.15774   0.17141   0.00000  Uiso   1.00
H579   H     0.13817   0.10553   0.05949   0.00000  Uiso   1.00
H580   H     0.68538   0.04984   0.17309   0.00000  Uiso   1.00
H581   H     0.91750   0.19120   0.22651   0.00000  Uiso   1.00
H582   H     0.01608   0.08111   0.99051   0.00000  Uiso   1.00
H583   H     0.00044   0.00824   0.17087   0.00000  Uiso   1.00
H584   H     0.22152   0.97802   0.19249   0.00000  Uiso   1.00
H585   H     0.85736   0.04507   0.21783   0.00000  Uiso   1.00
H586   H     0.90412   0.99286   0.10592   0.00000  Uiso   1.00
H587   H     0.49541   0.95839   0.21077   0.00000  Uiso   1.00
H588   H     0.72753   0.09975   0.26419   0.00000  Uiso   1.00
H589   H     0.82612   0.98966   0.02819   0.00000  Uiso   1.00
O590   O     0.73983   0.98617   0.20537   0.00000  Uiso   1.00
O591   O     0.73239   0.17163   0.27545   0.00000  Uiso   1.00
O592   O     0.86173   0.02719   0.96583   0.00000  Uiso   1.00
N593   N     0.61033   0.03246   0.17898   0.00000  Uiso   1.00
N594   N     0.89243   0.16462   0.22893   0.00000  Uiso   1.00
N595   N     0.98456   0.06170   0.00830   0.00000  Uiso   1.00
N596   N     0.50812   0.98325   0.19926   0.00000  Uiso   1.00
N597   N     0.79021   0.11542   0.24921   0.00000  Uiso   1.00
N598   N     0.88234   0.01249   0.02857   0.00000  Uiso   1.00
C599   C     0.24925   0.35643   0.09926   0.00000  Uiso   1.00
C600   C     0.30339   0.33596   0.06556   0.00000  Uiso   1.00
C601   C     0.43734   0.33027   0.05746   0.00000  Uiso   1.00
C602   C     0.46634   0.31088   0.02530   0.00000  Uiso   1.00
C603   C     0.56583   0.28110   0.97651   0.00000  Uiso   1.00
C604   C     0.15581   0.32978   0.11898   0.00000  Uiso   1.00
C605   C     0.16567   0.31889   0.15579   0.00000  Uiso   1.00
C606   C     0.07042   0.29430   0.16860   0.00000  Uiso   1.00
C607   C     0.94074   0.25494   0.20275   0.00000  Uiso   1.00
C608   C     0.16060   0.38687   0.08398   0.00000  Uiso   1.00
C609   C     0.17447   0.42399   0.09137   0.00000  Uiso   1.00
C610   C     0.08324   0.44746   0.07471   0.00000  Uiso   1.00
C611   C     0.96099   0.49674   0.05452   0.00000  Uiso   1.00
C612   C     0.06254   0.33211   0.05655   0.00000  Uiso   1.00
C613   C     0.20197   0.32275   0.04236   0.00000  Uiso   1.00
C614   C     0.23077   0.30336   0.01021   0.00000  Uiso   1.00
C615   C     0.36475   0.29764   0.00206   0.00000  Uiso   1.00
C616   C     0.05440   0.31657   0.09578   0.00000  Uiso   1.00
C617   C     0.95911   0.29198   0.10854   0.00000  Uiso   1.00
C618   C     0.96883   0.28106   0.14536   0.00000  Uiso   1.00
C619   C     0.05919   0.37366   0.06078   0.00000  Uiso   1.00
C620   C     0.96791   0.39708   0.04411   0.00000  Uiso   1.00
C621   C     0.98164   0.43422   0.05147   0.00000  Uiso   1.00
H622   H     0.32820   0.36671   0.11732   0.00000  Uiso   1.00
H623   H     0.51579   0.34050   0.07542   0.00000  Uiso   1.00
H624   H     0.24415   0.32913   0.17374   0.00000  Uiso   1.00
H625   H     0.25296   0.43420   0.10932   0.00000  Uiso   1.00
H626   H     0.67905   0.30560   0.01874   0.00000  Uiso   1.00
H627   H     0.10627   0.28163   0.22605   0.00000  Uiso   1.00
H628   H     0.12483   0.50320   0.09022   0.00000  Uiso   1.00
H629   H     0.98358   0.32182   0.03849   0.00000  Uiso   1.00
H630   H     0.15227   0.29314   0.99226   0.00000  Uiso   1.00
H631   H     0.88064   0.28177   0.09058   0.00000  Uiso   1.00
H632   H     0.88944   0.38685   0.02616   0.00000  Uiso   1.00
H633   H     0.38401   0.26716   0.95124   0.00000  Uiso   1.00
H634   H     0.81122   0.24319   0.15855   0.00000  Uiso   1.00
H635   H     0.82978   0.46476   0.02272   0.00000  Uiso   1.00
O636   O     0.64872   0.26831   0.95601   0.00000  Uiso   1.00
O637   O     0.89723   0.23687   0.22799   0.00000  Uiso   1.00
O638   O     0.92159   0.52757   0.04979   0.00000  Uiso   1.00
N639   N     0.58646   0.30049   0.00920   0.00000  Uiso   1.00
N640   N     0.05096   0.27808   0.20302   0.00000  Uiso   1.00
N641   N     0.06829   0.48523   0.07604   0.00000  Uiso   1.00
N642   N     0.42770   0.27981   0.97288   0.00000  Uiso   1.00
N643   N     0.89220   0.25740   0.16669   0.00000  Uiso   1.00
N644   N     0.90953   0.46455   0.03971   0.00000  Uiso   1.00
C645   C     0.11032   0.38984   0.35793   0.00000  Uiso   1.00
C646   C     0.20364   0.41789   0.34028   0.00000  Uiso   1.00
C647   C     0.34173   0.41516   0.33823   0.00000  Uiso   1.00
C648   C     0.40912   0.44371   0.32097   0.00000  Uiso   1.00
C649   C     0.56442   0.48267   0.29578   0.00000  Uiso   1.00
C650   C     0.01069   0.37912   0.32780   0.00000  Uiso   1.00
C651   C     0.98655   0.34378   0.31527   0.00000  Uiso   1.00
C652   C     0.89149   0.33969   0.28750   0.00000  Uiso   1.00
C653   C     0.74716   0.31844   0.24296   0.00000  Uiso   1.00
C654   C     0.03034   0.41058   0.38720   0.00000  Uiso   1.00
C655   C     0.02269   0.40170   0.42460   0.00000  Uiso   1.00
C656   C     0.94415   0.42409   0.44683   0.00000  Uiso   1.00
C657   C     0.83034   0.45170   0.49451   0.00000  Uiso   1.00
C658   C     0.98441   0.44540   0.33092   0.00000  Uiso   1.00
C659   C     0.13525   0.44807   0.32561   0.00000  Uiso   1.00
C660   C     0.20244   0.47663   0.30835   0.00000  Uiso   1.00
C661   C     0.34061   0.47394   0.30627   0.00000  Uiso   1.00
C662   C     0.94230   0.40929   0.31313   0.00000  Uiso   1.00
C663   C     0.84725   0.40525   0.28538   0.00000  Uiso   1.00
C664   C     0.82298   0.36992   0.27281   0.00000  Uiso   1.00
C665   C     0.96195   0.44076   0.37253   0.00000  Uiso   1.00
C666   C     0.88340   0.46317   0.39471   0.00000  Uiso   1.00
C667   C     0.87564   0.45432   0.43214   0.00000  Uiso   1.00
H668   H     0.16355   0.36635   0.36935   0.00000  Uiso   1.00
H669   H     0.39462   0.39180   0.34959   0.00000  Uiso   1.00
H670   H     0.03947   0.32043   0.32663   0.00000  Uiso   1.00
H671   H     0.07562   0.37834   0.43594   0.00000  Uiso   1.00
H672   H     0.62064   0.43333   0.32119   0.00000  Uiso   1.00
H673   H     0.87177   0.28284   0.27279   0.00000  Uiso   1.00
H674   H     0.94798   0.40495   0.50329   0.00000  Uiso   1.00
H675   H     0.93117   0.46889   0.31950   0.00000  Uiso   1.00
H676   H     0.14949   0.49998   0.29700   0.00000  Uiso   1.00
H677   H     0.79435   0.42861   0.27404   0.00000  Uiso   1.00
H678   H     0.83049   0.48652   0.38335   0.00000  Uiso   1.00
H679   H     0.42169   0.52113   0.27850   0.00000  Uiso   1.00
H680   H     0.67281   0.37064   0.23011   0.00000  Uiso   1.00
H681   H     0.74903   0.49275   0.46061   0.00000  Uiso   1.00
O682   O     0.66897   0.49583   0.28593   0.00000  Uiso   1.00
O683   O     0.68646   0.29839   0.22244   0.00000  Uiso   1.00
O684   O     0.78647   0.45859   0.52485   0.00000  Uiso   1.00
N685   N     0.54386   0.44973   0.31424   0.00000  Uiso   1.00
N686   N     0.84372   0.30903   0.26898   0.00000  Uiso   1.00
N687   N     0.91495   0.42319   0.48448   0.00000  Uiso   1.00
N688   N     0.43680   0.49698   0.29127   0.00000  Uiso   1.00
N689   N     0.73666   0.35628   0.24602   0.00000  Uiso   1.00
N690   N     0.80789   0.47043   0.46151   0.00000  Uiso   1.00
C691   C     0.05237   0.14304   0.41062   0.00000  Uiso   1.00
C692   C     0.14444   0.16189   0.43842   0.00000  Uiso   1.00
C693   C     0.28206   0.16524   0.43517   0.00000  Uiso   1.00
C694   C     0.34828   0.18345   0.46356   0.00000  Uiso   1.00
C695   C     0.50174   0.21054   0.50208   0.00000  Uiso   1.00
C696   C     0.94842   0.17156   0.39955   0.00000  Uiso   1.00
C697   C     0.92121   0.18304   0.36360   0.00000  Uiso   1.00
C698   C     0.82240   0.20939   0.35928   0.00000  Uiso   1.00
C699   C     0.67145   0.25149   0.33743   0.00000  Uiso   1.00
C700   C     0.97715   0.11377   0.43241   0.00000  Uiso   1.00
C701   C     0.97407   0.07665   0.42410   0.00000  Uiso   1.00
C702   C     0.89942   0.05435   0.44744   0.00000  Uiso   1.00
C703   C     0.79309   0.00671   0.47663   0.00000  Uiso   1.00
C704   C     0.92526   0.16943   0.46684   0.00000  Uiso   1.00
C705   C     0.07540   0.17622   0.46896   0.00000  Uiso   1.00
C706   C     0.14143   0.19443   0.49737   0.00000  Uiso   1.00
C707   C     0.27912   0.19780   0.49416   0.00000  Uiso   1.00
C708   C     0.87938   0.18589   0.43008   0.00000  Uiso   1.00
C709   C     0.78058   0.21223   0.42581   0.00000  Uiso   1.00
C710   C     0.75323   0.22375   0.38987   0.00000  Uiso   1.00
C711   C     0.90811   0.12810   0.46295   0.00000  Uiso   1.00
C712   C     0.83345   0.10585   0.48630   0.00000  Uiso   1.00
C713   C     0.83026   0.06871   0.47803   0.00000  Uiso   1.00
H714   H     0.10612   0.13189   0.38685   0.00000  Uiso   1.00
H715   H     0.33545   0.15414   0.41153   0.00000  Uiso   1.00
H716   H     0.97464   0.17194   0.33998   0.00000  Uiso   1.00
H717   H     0.02751   0.06557   0.40047   0.00000  Uiso   1.00
H718   H     0.55926   0.18515   0.45236   0.00000  Uiso   1.00
H719   H     0.79845   0.22267   0.30149   0.00000  Uiso   1.00
H720   H     0.90991   0.99837   0.42904   0.00000  Uiso   1.00
H721   H     0.87151   0.18059   0.49061   0.00000  Uiso   1.00
H722   H     0.08797   0.20552   0.52100   0.00000  Uiso   1.00
H723   H     0.72717   0.22332   0.44944   0.00000  Uiso   1.00
H724   H     0.78003   0.11695   0.50993   0.00000  Uiso   1.00
H725   H     0.35839   0.22685   0.54120   0.00000  Uiso   1.00
H726   H     0.59758   0.26437   0.39033   0.00000  Uiso   1.00
H727   H     0.70905   0.04007   0.51788   0.00000  Uiso   1.00
O728   O     0.60545   0.22153   0.51489   0.00000  Uiso   1.00
O729   O     0.60728   0.27075   0.31695   0.00000  Uiso   1.00
O730   O     0.75353   0.97648   0.48430   0.00000  Uiso   1.00
N731   N     0.48228   0.19154   0.46910   0.00000  Uiso   1.00
N732   N     0.77098   0.22662   0.32805   0.00000  Uiso   1.00
N733   N     0.87516   0.01692   0.44729   0.00000  Uiso   1.00
N734   N     0.37420   0.21397   0.51691   0.00000  Uiso   1.00
N735   N     0.66290   0.24906   0.37585   0.00000  Uiso   1.00
N736   N     0.76708   0.03936   0.49510   0.00000  Uiso   1.00
