data_job_05843
_audit_creation_date              2018-12-19
_audit_creation_method            'Materials Studio'
_symmetry_space_group_name_H-M    'P1'
_symmetry_Int_Tables_number       1
_symmetry_cell_setting            triclinic
loop_
_symmetry_equiv_pos_as_xyz
  x,y,z
_cell_length_a                    19.1695
_cell_length_b                    28.7496
_cell_length_c                    19.9786
_cell_angle_alpha                 90.0000
_cell_angle_beta                  90.0000
_cell_angle_gamma                 90.0000
loop_
_atom_site_label
_atom_site_type_symbol
_atom_site_fract_x
_atom_site_fract_y
_atom_site_fract_z
_atom_site_U_iso_or_equiv
_atom_site_adp_type
_atom_site_occupancy
C1     C     0.63826   0.09130   0.32249   0.00000  Uiso   1.00
C2     C     0.68055   0.12574   0.28097   0.00000  Uiso   1.00
C3     C     0.67199   0.13432   0.21311   0.00000  Uiso   1.00
C4     C     0.71586   0.16713   0.18434   0.00000  Uiso   1.00
C5     C     0.77385   0.21704   0.11411   0.00000  Uiso   1.00
C6     C     0.69112   0.05835   0.35421   0.00000  Uiso   1.00
C7     C     0.69144   0.01027   0.34793   0.00000  Uiso   1.00
C8     C     0.74421   0.98635   0.38081   0.00000  Uiso   1.00
C9     C     0.81858   0.93163   0.42432   0.00000  Uiso   1.00
C10    C     0.60696   0.11927   0.37996   0.00000  Uiso   1.00
C11    C     0.53652   0.12241   0.39535   0.00000  Uiso   1.00
C12    C     0.51843   0.14977   0.44993   0.00000  Uiso   1.00
C13    C     0.46212   0.18964   0.53343   0.00000  Uiso   1.00
C14    C     0.73140   0.13430   0.39206   0.00000  Uiso   1.00
C15    C     0.73114   0.14909   0.31876   0.00000  Uiso   1.00
C16    C     0.77504   0.18190   0.29008   0.00000  Uiso   1.00
C17    C     0.76654   0.19053   0.22219   0.00000  Uiso   1.00
C18    C     0.74171   0.08170   0.39199   0.00000  Uiso   1.00
C19    C     0.79449   0.05785   0.42489   0.00000  Uiso   1.00
C20    C     0.79489   0.00975   0.41866   0.00000  Uiso   1.00
C21    C     0.65755   0.14263   0.41775   0.00000  Uiso   1.00
C22    C     0.63957   0.16998   0.47231   0.00000  Uiso   1.00
C23    C     0.56911   0.17317   0.48778   0.00000  Uiso   1.00
H24    H     0.59888   0.07311   0.29308   0.00000  Uiso   1.00
H25    H     0.63284   0.11624   0.18389   0.00000  Uiso   1.00
H26    H     0.65228   0.99221   0.31869   0.00000  Uiso   1.00
H27    H     0.49738   0.10433   0.36610   0.00000  Uiso   1.00
H28    H     0.69281   0.17434   0.07949   0.00000  Uiso   1.00
H29    H     0.73380   0.91281   0.36374   0.00000  Uiso   1.00
H30    H     0.40716   0.14924   0.46373   0.00000  Uiso   1.00
H31    H     0.77079   0.15248   0.42148   0.00000  Uiso   1.00
H32    H     0.81418   0.19997   0.31933   0.00000  Uiso   1.00
H33    H     0.83363   0.07593   0.45413   0.00000  Uiso   1.00
H34    H     0.67873   0.18805   0.50154   0.00000  Uiso   1.00
H35    H     0.84000   0.24229   0.18942   0.00000  Uiso   1.00
H36    H     0.88098   0.98077   0.47368   0.00000  Uiso   1.00
H37    H     0.55435   0.21719   0.57366   0.00000  Uiso   1.00
O38    O     0.79186   0.23811   0.06494   0.00000  Uiso   1.00
O39    O     0.84563   0.89500   0.43788   0.00000  Uiso   1.00
O40    O     0.41709   0.20518   0.56905   0.00000  Uiso   1.00
N41    N     0.72149   0.18382   0.11938   0.00000  Uiso   1.00
N42    N     0.75981   0.93931   0.38514   0.00000  Uiso   1.00
N43    N     0.45444   0.16034   0.47862   0.00000  Uiso   1.00
N44    N     0.80069   0.22039   0.17854   0.00000  Uiso   1.00
N45    N     0.83901   0.97588   0.44429   0.00000  Uiso   1.00
N46    N     0.53364   0.19691   0.53777   0.00000  Uiso   1.00
C47    C     0.13826   0.59130   0.82249   0.00000  Uiso   1.00
C48    C     0.18055   0.62574   0.78097   0.00000  Uiso   1.00
C49    C     0.17199   0.63432   0.71311   0.00000  Uiso   1.00
C50    C     0.21586   0.66713   0.68434   0.00000  Uiso   1.00
C51    C     0.27385   0.71704   0.61411   0.00000  Uiso   1.00
C52    C     0.19112   0.55835   0.85421   0.00000  Uiso   1.00
C53    C     0.19144   0.51027   0.84793   0.00000  Uiso   1.00
C54    C     0.24421   0.48635   0.88081   0.00000  Uiso   1.00
C55    C     0.31858   0.43163   0.92432   0.00000  Uiso   1.00
C56    C     0.10696   0.61927   0.87996   0.00000  Uiso   1.00
C57    C     0.03652   0.62241   0.89535   0.00000  Uiso   1.00
C58    C     0.01843   0.64977   0.94993   0.00000  Uiso   1.00
C59    C     0.96212   0.68964   0.03343   0.00000  Uiso   1.00
C60    C     0.23140   0.63430   0.89206   0.00000  Uiso   1.00
C61    C     0.23114   0.64909   0.81876   0.00000  Uiso   1.00
C62    C     0.27504   0.68190   0.79008   0.00000  Uiso   1.00
C63    C     0.26654   0.69053   0.72219   0.00000  Uiso   1.00
C64    C     0.24171   0.58170   0.89199   0.00000  Uiso   1.00
C65    C     0.29449   0.55785   0.92489   0.00000  Uiso   1.00
C66    C     0.29489   0.50975   0.91866   0.00000  Uiso   1.00
C67    C     0.15755   0.64263   0.91775   0.00000  Uiso   1.00
C68    C     0.13957   0.66998   0.97231   0.00000  Uiso   1.00
C69    C     0.06911   0.67317   0.98778   0.00000  Uiso   1.00
H70    H     0.09888   0.57311   0.79308   0.00000  Uiso   1.00
H71    H     0.13284   0.61624   0.68389   0.00000  Uiso   1.00
H72    H     0.15228   0.49221   0.81869   0.00000  Uiso   1.00
H73    H     0.99738   0.60433   0.86610   0.00000  Uiso   1.00
H74    H     0.19281   0.67434   0.57949   0.00000  Uiso   1.00
H75    H     0.23380   0.41281   0.86374   0.00000  Uiso   1.00
H76    H     0.90716   0.64924   0.96373   0.00000  Uiso   1.00
H77    H     0.27079   0.65248   0.92148   0.00000  Uiso   1.00
H78    H     0.31418   0.69997   0.81933   0.00000  Uiso   1.00
H79    H     0.33363   0.57593   0.95413   0.00000  Uiso   1.00
H80    H     0.17873   0.68805   0.00154   0.00000  Uiso   1.00
H81    H     0.34000   0.74229   0.68942   0.00000  Uiso   1.00
H82    H     0.38098   0.48077   0.97368   0.00000  Uiso   1.00
H83    H     0.05435   0.71719   0.07366   0.00000  Uiso   1.00
O84    O     0.29186   0.73811   0.56494   0.00000  Uiso   1.00
O85    O     0.34563   0.39500   0.93788   0.00000  Uiso   1.00
O86    O     0.91709   0.70518   0.06905   0.00000  Uiso   1.00
N87    N     0.22149   0.68382   0.61938   0.00000  Uiso   1.00
N88    N     0.25981   0.43931   0.88514   0.00000  Uiso   1.00
N89    N     0.95444   0.66034   0.97862   0.00000  Uiso   1.00
N90    N     0.30069   0.72039   0.67854   0.00000  Uiso   1.00
N91    N     0.33901   0.47588   0.94429   0.00000  Uiso   1.00
N92    N     0.03364   0.69691   0.03777   0.00000  Uiso   1.00
C93    C     0.86174   0.90870   0.82249   0.00000  Uiso   1.00
C94    C     0.81945   0.87426   0.78097   0.00000  Uiso   1.00
C95    C     0.82801   0.86568   0.71311   0.00000  Uiso   1.00
C96    C     0.78414   0.83287   0.68434   0.00000  Uiso   1.00
C97    C     0.72615   0.78296   0.61411   0.00000  Uiso   1.00
C98    C     0.80888   0.94165   0.85421   0.00000  Uiso   1.00
C99    C     0.80856   0.98973   0.84793   0.00000  Uiso   1.00
C100   C     0.75579   0.01365   0.88081   0.00000  Uiso   1.00
C101   C     0.68142   0.06837   0.92432   0.00000  Uiso   1.00
C102   C     0.89304   0.88073   0.87996   0.00000  Uiso   1.00
C103   C     0.96348   0.87759   0.89535   0.00000  Uiso   1.00
C104   C     0.98157   0.85023   0.94993   0.00000  Uiso   1.00
C105   C     0.03788   0.81036   0.03343   0.00000  Uiso   1.00
C106   C     0.76860   0.86570   0.89206   0.00000  Uiso   1.00
C107   C     0.76886   0.85091   0.81876   0.00000  Uiso   1.00
C108   C     0.72496   0.81810   0.79008   0.00000  Uiso   1.00
C109   C     0.73346   0.80947   0.72219   0.00000  Uiso   1.00
C110   C     0.75829   0.91830   0.89199   0.00000  Uiso   1.00
C111   C     0.70551   0.94215   0.92489   0.00000  Uiso   1.00
C112   C     0.70511   0.99025   0.91866   0.00000  Uiso   1.00
C113   C     0.84245   0.85737   0.91775   0.00000  Uiso   1.00
C114   C     0.86043   0.83002   0.97231   0.00000  Uiso   1.00
C115   C     0.93089   0.82683   0.98778   0.00000  Uiso   1.00
H116   H     0.90112   0.92689   0.79308   0.00000  Uiso   1.00
H117   H     0.86716   0.88376   0.68389   0.00000  Uiso   1.00
H118   H     0.84772   0.00779   0.81869   0.00000  Uiso   1.00
H119   H     0.00262   0.89567   0.86610   0.00000  Uiso   1.00
H120   H     0.80719   0.82566   0.57949   0.00000  Uiso   1.00
H121   H     0.76620   0.08719   0.86374   0.00000  Uiso   1.00
H122   H     0.09284   0.85076   0.96373   0.00000  Uiso   1.00
H123   H     0.72921   0.84752   0.92148   0.00000  Uiso   1.00
H124   H     0.68582   0.80003   0.81933   0.00000  Uiso   1.00
H125   H     0.66637   0.92407   0.95413   0.00000  Uiso   1.00
H126   H     0.82127   0.81195   0.00154   0.00000  Uiso   1.00
H127   H     0.66000   0.75771   0.68942   0.00000  Uiso   1.00
H128   H     0.61902   0.01923   0.97368   0.00000  Uiso   1.00
H129   H     0.94565   0.78281   0.07366   0.00000  Uiso   1.00
O130   O     0.70814   0.76189   0.56494   0.00000  Uiso   1.00
O131   O     0.65437   0.10500   0.93788   0.00000  Uiso   1.00
O132   O     0.08291   0.79482   0.06905   0.00000  Uiso   1.00
N133   N     0.77851   0.81618   0.61938   0.00000  Uiso   1.00
N134   N     0.74019   0.06069   0.88514   0.00000  Uiso   1.00
N135   N     0.04556   0.83966   0.97862   0.00000  Uiso   1.00
N136   N     0.69931   0.77961   0.67854   0.00000  Uiso   1.00
N137   N     0.66099   0.02412   0.94429   0.00000  Uiso   1.00
N138   N     0.96636   0.80309   0.03777   0.00000  Uiso   1.00
C139   C     0.36174   0.40870   0.32249   0.00000  Uiso   1.00
C140   C     0.31945   0.37426   0.28097   0.00000  Uiso   1.00
C141   C     0.32801   0.36568   0.21311   0.00000  Uiso   1.00
C142   C     0.28414   0.33287   0.18434   0.00000  Uiso   1.00
C143   C     0.22615   0.28296   0.11411   0.00000  Uiso   1.00
C144   C     0.30888   0.44165   0.35421   0.00000  Uiso   1.00
C145   C     0.30856   0.48973   0.34793   0.00000  Uiso   1.00
C146   C     0.25579   0.51365   0.38081   0.00000  Uiso   1.00
C147   C     0.18142   0.56837   0.42432   0.00000  Uiso   1.00
C148   C     0.39304   0.38073   0.37996   0.00000  Uiso   1.00
C149   C     0.46348   0.37759   0.39535   0.00000  Uiso   1.00
C150   C     0.48157   0.35023   0.44993   0.00000  Uiso   1.00
C151   C     0.53788   0.31036   0.53343   0.00000  Uiso   1.00
C152   C     0.26860   0.36570   0.39206   0.00000  Uiso   1.00
C153   C     0.26886   0.35091   0.31876   0.00000  Uiso   1.00
C154   C     0.22496   0.31810   0.29008   0.00000  Uiso   1.00
C155   C     0.23346   0.30947   0.22219   0.00000  Uiso   1.00
C156   C     0.25829   0.41830   0.39199   0.00000  Uiso   1.00
C157   C     0.20551   0.44215   0.42489   0.00000  Uiso   1.00
C158   C     0.20511   0.49025   0.41866   0.00000  Uiso   1.00
C159   C     0.34245   0.35737   0.41775   0.00000  Uiso   1.00
C160   C     0.36043   0.33002   0.47231   0.00000  Uiso   1.00
C161   C     0.43089   0.32683   0.48778   0.00000  Uiso   1.00
H162   H     0.40112   0.42689   0.29308   0.00000  Uiso   1.00
H163   H     0.36716   0.38376   0.18389   0.00000  Uiso   1.00
H164   H     0.34772   0.50779   0.31869   0.00000  Uiso   1.00
H165   H     0.50262   0.39567   0.36610   0.00000  Uiso   1.00
H166   H     0.30719   0.32566   0.07949   0.00000  Uiso   1.00
H167   H     0.26620   0.58719   0.36374   0.00000  Uiso   1.00
H168   H     0.59284   0.35076   0.46373   0.00000  Uiso   1.00
H169   H     0.22921   0.34752   0.42148   0.00000  Uiso   1.00
H170   H     0.18582   0.30003   0.31933   0.00000  Uiso   1.00
H171   H     0.16637   0.42407   0.45413   0.00000  Uiso   1.00
H172   H     0.32127   0.31195   0.50154   0.00000  Uiso   1.00
H173   H     0.16000   0.25771   0.18942   0.00000  Uiso   1.00
H174   H     0.11902   0.51923   0.47368   0.00000  Uiso   1.00
H175   H     0.44565   0.28281   0.57366   0.00000  Uiso   1.00
O176   O     0.20814   0.26189   0.06494   0.00000  Uiso   1.00
O177   O     0.15437   0.60500   0.43788   0.00000  Uiso   1.00
O178   O     0.58291   0.29482   0.56905   0.00000  Uiso   1.00
N179   N     0.27851   0.31618   0.11938   0.00000  Uiso   1.00
N180   N     0.24019   0.56069   0.38514   0.00000  Uiso   1.00
N181   N     0.54556   0.33966   0.47862   0.00000  Uiso   1.00
N182   N     0.19931   0.27961   0.17854   0.00000  Uiso   1.00
N183   N     0.16099   0.52412   0.44429   0.00000  Uiso   1.00
N184   N     0.46636   0.30309   0.53777   0.00000  Uiso   1.00
C185   C     0.36174   0.59130   0.17751   0.00000  Uiso   1.00
C186   C     0.31945   0.62574   0.21903   0.00000  Uiso   1.00
C187   C     0.32801   0.63432   0.28689   0.00000  Uiso   1.00
C188   C     0.28414   0.66713   0.31566   0.00000  Uiso   1.00
C189   C     0.22615   0.71704   0.38589   0.00000  Uiso   1.00
C190   C     0.30888   0.55835   0.14579   0.00000  Uiso   1.00
C191   C     0.30856   0.51027   0.15207   0.00000  Uiso   1.00
C192   C     0.25579   0.48635   0.11919   0.00000  Uiso   1.00
C193   C     0.18142   0.43163   0.07568   0.00000  Uiso   1.00
C194   C     0.39304   0.61927   0.12004   0.00000  Uiso   1.00
C195   C     0.46348   0.62241   0.10465   0.00000  Uiso   1.00
C196   C     0.48157   0.64977   0.05007   0.00000  Uiso   1.00
C197   C     0.53788   0.68964   0.96657   0.00000  Uiso   1.00
C198   C     0.26860   0.63430   0.10794   0.00000  Uiso   1.00
C199   C     0.26886   0.64909   0.18124   0.00000  Uiso   1.00
C200   C     0.22496   0.68190   0.20992   0.00000  Uiso   1.00
C201   C     0.23346   0.69053   0.27781   0.00000  Uiso   1.00
C202   C     0.25829   0.58170   0.10801   0.00000  Uiso   1.00
C203   C     0.20551   0.55785   0.07511   0.00000  Uiso   1.00
C204   C     0.20511   0.50975   0.08134   0.00000  Uiso   1.00
C205   C     0.34245   0.64263   0.08225   0.00000  Uiso   1.00
C206   C     0.36043   0.66998   0.02769   0.00000  Uiso   1.00
C207   C     0.43089   0.67317   0.01222   0.00000  Uiso   1.00
H208   H     0.40112   0.57311   0.20692   0.00000  Uiso   1.00
H209   H     0.36716   0.61624   0.31611   0.00000  Uiso   1.00
H210   H     0.34772   0.49221   0.18131   0.00000  Uiso   1.00
H211   H     0.50262   0.60433   0.13390   0.00000  Uiso   1.00
H212   H     0.30719   0.67434   0.42051   0.00000  Uiso   1.00
H213   H     0.26620   0.41281   0.13626   0.00000  Uiso   1.00
H214   H     0.59284   0.64924   0.03627   0.00000  Uiso   1.00
H215   H     0.22921   0.65248   0.07852   0.00000  Uiso   1.00
H216   H     0.18582   0.69997   0.18067   0.00000  Uiso   1.00
H217   H     0.16637   0.57593   0.04587   0.00000  Uiso   1.00
H218   H     0.32127   0.68805   0.99846   0.00000  Uiso   1.00
H219   H     0.16000   0.74229   0.31058   0.00000  Uiso   1.00
H220   H     0.11902   0.48077   0.02632   0.00000  Uiso   1.00
H221   H     0.44565   0.71719   0.92634   0.00000  Uiso   1.00
O222   O     0.20814   0.73811   0.43506   0.00000  Uiso   1.00
O223   O     0.15437   0.39500   0.06212   0.00000  Uiso   1.00
O224   O     0.58291   0.70518   0.93095   0.00000  Uiso   1.00
N225   N     0.27851   0.68382   0.38062   0.00000  Uiso   1.00
N226   N     0.24019   0.43931   0.11486   0.00000  Uiso   1.00
N227   N     0.54556   0.66034   0.02138   0.00000  Uiso   1.00
N228   N     0.19931   0.72039   0.32146   0.00000  Uiso   1.00
N229   N     0.16099   0.47588   0.05571   0.00000  Uiso   1.00
N230   N     0.46636   0.69691   0.96223   0.00000  Uiso   1.00
C231   C     0.86174   0.09130   0.67751   0.00000  Uiso   1.00
C232   C     0.81945   0.12574   0.71903   0.00000  Uiso   1.00
C233   C     0.82801   0.13432   0.78689   0.00000  Uiso   1.00
C234   C     0.78414   0.16713   0.81566   0.00000  Uiso   1.00
C235   C     0.72615   0.21704   0.88589   0.00000  Uiso   1.00
C236   C     0.80888   0.05835   0.64579   0.00000  Uiso   1.00
C237   C     0.80856   0.01027   0.65207   0.00000  Uiso   1.00
C238   C     0.75579   0.98635   0.61919   0.00000  Uiso   1.00
C239   C     0.68142   0.93163   0.57568   0.00000  Uiso   1.00
C240   C     0.89304   0.11927   0.62004   0.00000  Uiso   1.00
C241   C     0.96348   0.12241   0.60465   0.00000  Uiso   1.00
C242   C     0.98157   0.14977   0.55007   0.00000  Uiso   1.00
C243   C     0.03788   0.18964   0.46657   0.00000  Uiso   1.00
C244   C     0.76860   0.13430   0.60794   0.00000  Uiso   1.00
C245   C     0.76886   0.14909   0.68124   0.00000  Uiso   1.00
C246   C     0.72496   0.18190   0.70992   0.00000  Uiso   1.00
C247   C     0.73346   0.19053   0.77781   0.00000  Uiso   1.00
C248   C     0.75829   0.08170   0.60801   0.00000  Uiso   1.00
C249   C     0.70551   0.05785   0.57511   0.00000  Uiso   1.00
C250   C     0.70511   0.00975   0.58134   0.00000  Uiso   1.00
C251   C     0.84245   0.14263   0.58225   0.00000  Uiso   1.00
C252   C     0.86043   0.16998   0.52769   0.00000  Uiso   1.00
C253   C     0.93089   0.17317   0.51222   0.00000  Uiso   1.00
H254   H     0.90112   0.07311   0.70692   0.00000  Uiso   1.00
H255   H     0.86716   0.11624   0.81611   0.00000  Uiso   1.00
H256   H     0.84772   0.99221   0.68131   0.00000  Uiso   1.00
H257   H     0.00262   0.10433   0.63390   0.00000  Uiso   1.00
H258   H     0.80719   0.17434   0.92051   0.00000  Uiso   1.00
H259   H     0.76620   0.91281   0.63626   0.00000  Uiso   1.00
H260   H     0.09284   0.14924   0.53627   0.00000  Uiso   1.00
H261   H     0.72921   0.15248   0.57852   0.00000  Uiso   1.00
H262   H     0.68582   0.19997   0.68067   0.00000  Uiso   1.00
H263   H     0.66637   0.07593   0.54587   0.00000  Uiso   1.00
H264   H     0.82127   0.18805   0.49846   0.00000  Uiso   1.00
H265   H     0.66000   0.24229   0.81058   0.00000  Uiso   1.00
H266   H     0.61902   0.98077   0.52632   0.00000  Uiso   1.00
H267   H     0.94565   0.21719   0.42634   0.00000  Uiso   1.00
O268   O     0.70814   0.23811   0.93506   0.00000  Uiso   1.00
O269   O     0.65437   0.89500   0.56212   0.00000  Uiso   1.00
O270   O     0.08291   0.20518   0.43095   0.00000  Uiso   1.00
N271   N     0.77851   0.18382   0.88062   0.00000  Uiso   1.00
N272   N     0.74019   0.93931   0.61486   0.00000  Uiso   1.00
N273   N     0.04556   0.16034   0.52138   0.00000  Uiso   1.00
N274   N     0.69931   0.22039   0.82146   0.00000  Uiso   1.00
N275   N     0.66099   0.97588   0.55571   0.00000  Uiso   1.00
N276   N     0.96636   0.19691   0.46223   0.00000  Uiso   1.00
C277   C     0.13826   0.40870   0.67751   0.00000  Uiso   1.00
C278   C     0.18055   0.37426   0.71903   0.00000  Uiso   1.00
C279   C     0.17199   0.36568   0.78689   0.00000  Uiso   1.00
C280   C     0.21586   0.33287   0.81566   0.00000  Uiso   1.00
C281   C     0.27385   0.28296   0.88589   0.00000  Uiso   1.00
C282   C     0.19112   0.44165   0.64579   0.00000  Uiso   1.00
C283   C     0.19144   0.48973   0.65207   0.00000  Uiso   1.00
C284   C     0.24421   0.51365   0.61919   0.00000  Uiso   1.00
C285   C     0.31858   0.56837   0.57568   0.00000  Uiso   1.00
C286   C     0.10696   0.38073   0.62004   0.00000  Uiso   1.00
C287   C     0.03652   0.37759   0.60465   0.00000  Uiso   1.00
C288   C     0.01843   0.35023   0.55007   0.00000  Uiso   1.00
C289   C     0.96212   0.31036   0.46657   0.00000  Uiso   1.00
C290   C     0.23140   0.36570   0.60794   0.00000  Uiso   1.00
C291   C     0.23114   0.35091   0.68124   0.00000  Uiso   1.00
C292   C     0.27504   0.31810   0.70992   0.00000  Uiso   1.00
C293   C     0.26654   0.30947   0.77781   0.00000  Uiso   1.00
C294   C     0.24171   0.41830   0.60801   0.00000  Uiso   1.00
C295   C     0.29449   0.44215   0.57511   0.00000  Uiso   1.00
C296   C     0.29489   0.49025   0.58134   0.00000  Uiso   1.00
C297   C     0.15755   0.35737   0.58225   0.00000  Uiso   1.00
C298   C     0.13957   0.33002   0.52769   0.00000  Uiso   1.00
C299   C     0.06911   0.32683   0.51222   0.00000  Uiso   1.00
H300   H     0.09888   0.42689   0.70692   0.00000  Uiso   1.00
H301   H     0.13284   0.38376   0.81611   0.00000  Uiso   1.00
H302   H     0.15228   0.50779   0.68131   0.00000  Uiso   1.00
H303   H     0.99738   0.39567   0.63390   0.00000  Uiso   1.00
H304   H     0.19281   0.32566   0.92051   0.00000  Uiso   1.00
H305   H     0.23380   0.58719   0.63626   0.00000  Uiso   1.00
H306   H     0.90716   0.35076   0.53627   0.00000  Uiso   1.00
H307   H     0.27079   0.34752   0.57852   0.00000  Uiso   1.00
H308   H     0.31418   0.30003   0.68067   0.00000  Uiso   1.00
H309   H     0.33363   0.42407   0.54587   0.00000  Uiso   1.00
H310   H     0.17873   0.31195   0.49846   0.00000  Uiso   1.00
H311   H     0.34000   0.25771   0.81058   0.00000  Uiso   1.00
H312   H     0.38098   0.51923   0.52632   0.00000  Uiso   1.00
H313   H     0.05435   0.28281   0.42634   0.00000  Uiso   1.00
O314   O     0.29186   0.26189   0.93506   0.00000  Uiso   1.00
O315   O     0.34563   0.60500   0.56212   0.00000  Uiso   1.00
O316   O     0.91709   0.29482   0.43095   0.00000  Uiso   1.00
N317   N     0.22149   0.31618   0.88062   0.00000  Uiso   1.00
N318   N     0.25981   0.56069   0.61486   0.00000  Uiso   1.00
N319   N     0.95444   0.33966   0.52138   0.00000  Uiso   1.00
N320   N     0.30069   0.27961   0.82146   0.00000  Uiso   1.00
N321   N     0.33901   0.52412   0.55571   0.00000  Uiso   1.00
N322   N     0.03364   0.30309   0.46223   0.00000  Uiso   1.00
C323   C     0.63826   0.90870   0.17751   0.00000  Uiso   1.00
C324   C     0.68055   0.87426   0.21903   0.00000  Uiso   1.00
C325   C     0.67199   0.86568   0.28689   0.00000  Uiso   1.00
C326   C     0.71586   0.83287   0.31566   0.00000  Uiso   1.00
C327   C     0.77385   0.78296   0.38589   0.00000  Uiso   1.00
C328   C     0.69112   0.94165   0.14579   0.00000  Uiso   1.00
C329   C     0.69144   0.98973   0.15207   0.00000  Uiso   1.00
C330   C     0.74421   0.01365   0.11919   0.00000  Uiso   1.00
C331   C     0.81858   0.06837   0.07568   0.00000  Uiso   1.00
C332   C     0.60696   0.88073   0.12004   0.00000  Uiso   1.00
C333   C     0.53652   0.87759   0.10465   0.00000  Uiso   1.00
C334   C     0.51843   0.85023   0.05007   0.00000  Uiso   1.00
C335   C     0.46212   0.81036   0.96657   0.00000  Uiso   1.00
C336   C     0.73140   0.86570   0.10794   0.00000  Uiso   1.00
C337   C     0.73114   0.85091   0.18124   0.00000  Uiso   1.00
C338   C     0.77504   0.81810   0.20992   0.00000  Uiso   1.00
C339   C     0.76654   0.80947   0.27781   0.00000  Uiso   1.00
C340   C     0.74171   0.91830   0.10801   0.00000  Uiso   1.00
C341   C     0.79449   0.94215   0.07511   0.00000  Uiso   1.00
C342   C     0.79489   0.99025   0.08134   0.00000  Uiso   1.00
C343   C     0.65755   0.85737   0.08225   0.00000  Uiso   1.00
C344   C     0.63957   0.83002   0.02769   0.00000  Uiso   1.00
C345   C     0.56911   0.82683   0.01222   0.00000  Uiso   1.00
H346   H     0.59888   0.92689   0.20692   0.00000  Uiso   1.00
H347   H     0.63284   0.88376   0.31611   0.00000  Uiso   1.00
H348   H     0.65228   0.00779   0.18131   0.00000  Uiso   1.00
H349   H     0.49738   0.89567   0.13390   0.00000  Uiso   1.00
H350   H     0.69281   0.82566   0.42051   0.00000  Uiso   1.00
H351   H     0.73380   0.08719   0.13626   0.00000  Uiso   1.00
H352   H     0.40716   0.85076   0.03627   0.00000  Uiso   1.00
H353   H     0.77079   0.84752   0.07852   0.00000  Uiso   1.00
H354   H     0.81418   0.80003   0.18067   0.00000  Uiso   1.00
H355   H     0.83363   0.92407   0.04587   0.00000  Uiso   1.00
H356   H     0.67873   0.81195   0.99846   0.00000  Uiso   1.00
H357   H     0.84000   0.75771   0.31058   0.00000  Uiso   1.00
H358   H     0.88098   0.01923   0.02632   0.00000  Uiso   1.00
H359   H     0.55435   0.78281   0.92634   0.00000  Uiso   1.00
O360   O     0.79186   0.76189   0.43506   0.00000  Uiso   1.00
O361   O     0.84563   0.10500   0.06212   0.00000  Uiso   1.00
O362   O     0.41709   0.79482   0.93095   0.00000  Uiso   1.00
N363   N     0.72149   0.81618   0.38062   0.00000  Uiso   1.00
N364   N     0.75981   0.06069   0.11486   0.00000  Uiso   1.00
N365   N     0.45444   0.83966   0.02138   0.00000  Uiso   1.00
N366   N     0.80069   0.77961   0.32146   0.00000  Uiso   1.00
N367   N     0.83901   0.02412   0.05571   0.00000  Uiso   1.00
N368   N     0.53364   0.80309   0.96223   0.00000  Uiso   1.00
C369   C     0.36174   0.90870   0.67751   0.00000  Uiso   1.00
C370   C     0.31945   0.87426   0.71903   0.00000  Uiso   1.00
C371   C     0.32801   0.86568   0.78689   0.00000  Uiso   1.00
C372   C     0.28414   0.83287   0.81566   0.00000  Uiso   1.00
C373   C     0.22615   0.78296   0.88589   0.00000  Uiso   1.00
C374   C     0.30888   0.94165   0.64579   0.00000  Uiso   1.00
C375   C     0.30856   0.98973   0.65207   0.00000  Uiso   1.00
C376   C     0.25579   0.01365   0.61919   0.00000  Uiso   1.00
C377   C     0.18142   0.06837   0.57568   0.00000  Uiso   1.00
C378   C     0.39304   0.88073   0.62004   0.00000  Uiso   1.00
C379   C     0.46348   0.87759   0.60465   0.00000  Uiso   1.00
C380   C     0.48157   0.85023   0.55007   0.00000  Uiso   1.00
C381   C     0.53788   0.81036   0.46657   0.00000  Uiso   1.00
C382   C     0.26860   0.86570   0.60794   0.00000  Uiso   1.00
C383   C     0.26886   0.85091   0.68124   0.00000  Uiso   1.00
C384   C     0.22496   0.81810   0.70992   0.00000  Uiso   1.00
C385   C     0.23346   0.80947   0.77781   0.00000  Uiso   1.00
C386   C     0.25829   0.91830   0.60801   0.00000  Uiso   1.00
C387   C     0.20551   0.94215   0.57511   0.00000  Uiso   1.00
C388   C     0.20511   0.99025   0.58134   0.00000  Uiso   1.00
C389   C     0.34245   0.85737   0.58225   0.00000  Uiso   1.00
C390   C     0.36043   0.83002   0.52769   0.00000  Uiso   1.00
C391   C     0.43089   0.82683   0.51222   0.00000  Uiso   1.00
H392   H     0.40112   0.92689   0.70692   0.00000  Uiso   1.00
H393   H     0.36716   0.88376   0.81611   0.00000  Uiso   1.00
H394   H     0.34772   0.00779   0.68131   0.00000  Uiso   1.00
H395   H     0.50262   0.89567   0.63390   0.00000  Uiso   1.00
H396   H     0.30719   0.82566   0.92051   0.00000  Uiso   1.00
H397   H     0.26620   0.08719   0.63626   0.00000  Uiso   1.00
H398   H     0.59284   0.85076   0.53627   0.00000  Uiso   1.00
H399   H     0.22921   0.84752   0.57852   0.00000  Uiso   1.00
H400   H     0.18582   0.80003   0.68067   0.00000  Uiso   1.00
H401   H     0.16637   0.92407   0.54587   0.00000  Uiso   1.00
H402   H     0.32127   0.81195   0.49846   0.00000  Uiso   1.00
H403   H     0.16000   0.75771   0.81058   0.00000  Uiso   1.00
H404   H     0.11902   0.01923   0.52632   0.00000  Uiso   1.00
H405   H     0.44565   0.78281   0.42634   0.00000  Uiso   1.00
O406   O     0.20814   0.76189   0.93506   0.00000  Uiso   1.00
O407   O     0.15437   0.10500   0.56212   0.00000  Uiso   1.00
O408   O     0.58291   0.79482   0.43095   0.00000  Uiso   1.00
N409   N     0.27851   0.81618   0.88062   0.00000  Uiso   1.00
N410   N     0.24019   0.06069   0.61486   0.00000  Uiso   1.00
N411   N     0.54556   0.83966   0.52138   0.00000  Uiso   1.00
N412   N     0.19931   0.77961   0.82146   0.00000  Uiso   1.00
N413   N     0.16099   0.02412   0.55571   0.00000  Uiso   1.00
N414   N     0.46636   0.80309   0.46223   0.00000  Uiso   1.00
C415   C     0.86174   0.40870   0.17751   0.00000  Uiso   1.00
C416   C     0.81945   0.37426   0.21903   0.00000  Uiso   1.00
C417   C     0.82801   0.36568   0.28689   0.00000  Uiso   1.00
C418   C     0.78414   0.33287   0.31566   0.00000  Uiso   1.00
C419   C     0.72615   0.28296   0.38589   0.00000  Uiso   1.00
C420   C     0.80888   0.44165   0.14579   0.00000  Uiso   1.00
C421   C     0.80856   0.48973   0.15207   0.00000  Uiso   1.00
C422   C     0.75579   0.51365   0.11919   0.00000  Uiso   1.00
C423   C     0.68142   0.56837   0.07568   0.00000  Uiso   1.00
C424   C     0.89304   0.38073   0.12004   0.00000  Uiso   1.00
C425   C     0.96348   0.37759   0.10465   0.00000  Uiso   1.00
C426   C     0.98157   0.35023   0.05007   0.00000  Uiso   1.00
C427   C     0.03788   0.31036   0.96657   0.00000  Uiso   1.00
C428   C     0.76860   0.36570   0.10794   0.00000  Uiso   1.00
C429   C     0.76886   0.35091   0.18124   0.00000  Uiso   1.00
C430   C     0.72496   0.31810   0.20992   0.00000  Uiso   1.00
C431   C     0.73346   0.30947   0.27781   0.00000  Uiso   1.00
C432   C     0.75829   0.41830   0.10801   0.00000  Uiso   1.00
C433   C     0.70551   0.44215   0.07511   0.00000  Uiso   1.00
C434   C     0.70511   0.49025   0.08134   0.00000  Uiso   1.00
C435   C     0.84245   0.35737   0.08225   0.00000  Uiso   1.00
C436   C     0.86043   0.33002   0.02769   0.00000  Uiso   1.00
C437   C     0.93089   0.32683   0.01222   0.00000  Uiso   1.00
H438   H     0.90112   0.42689   0.20692   0.00000  Uiso   1.00
H439   H     0.86716   0.38376   0.31611   0.00000  Uiso   1.00
H440   H     0.84772   0.50779   0.18131   0.00000  Uiso   1.00
H441   H     0.00262   0.39567   0.13390   0.00000  Uiso   1.00
H442   H     0.80719   0.32566   0.42051   0.00000  Uiso   1.00
H443   H     0.76620   0.58719   0.13626   0.00000  Uiso   1.00
H444   H     0.09284   0.35076   0.03627   0.00000  Uiso   1.00
H445   H     0.72921   0.34752   0.07852   0.00000  Uiso   1.00
H446   H     0.68582   0.30003   0.18067   0.00000  Uiso   1.00
H447   H     0.66637   0.42407   0.04587   0.00000  Uiso   1.00
H448   H     0.82127   0.31195   0.99846   0.00000  Uiso   1.00
H449   H     0.66000   0.25771   0.31058   0.00000  Uiso   1.00
H450   H     0.61902   0.51923   0.02632   0.00000  Uiso   1.00
H451   H     0.94565   0.28281   0.92634   0.00000  Uiso   1.00
O452   O     0.70814   0.26189   0.43506   0.00000  Uiso   1.00
O453   O     0.65437   0.60500   0.06212   0.00000  Uiso   1.00
O454   O     0.08291   0.29482   0.93095   0.00000  Uiso   1.00
N455   N     0.77851   0.31618   0.38062   0.00000  Uiso   1.00
N456   N     0.74019   0.56069   0.11486   0.00000  Uiso   1.00
N457   N     0.04556   0.33966   0.02138   0.00000  Uiso   1.00
N458   N     0.69931   0.27961   0.32146   0.00000  Uiso   1.00
N459   N     0.66099   0.52412   0.05571   0.00000  Uiso   1.00
N460   N     0.96636   0.30309   0.96223   0.00000  Uiso   1.00
C461   C     0.13826   0.09130   0.17751   0.00000  Uiso   1.00
C462   C     0.18055   0.12574   0.21903   0.00000  Uiso   1.00
C463   C     0.17199   0.13432   0.28689   0.00000  Uiso   1.00
C464   C     0.21586   0.16713   0.31566   0.00000  Uiso   1.00
C465   C     0.27385   0.21704   0.38589   0.00000  Uiso   1.00
C466   C     0.19112   0.05835   0.14579   0.00000  Uiso   1.00
C467   C     0.19144   0.01027   0.15207   0.00000  Uiso   1.00
C468   C     0.24421   0.98635   0.11919   0.00000  Uiso   1.00
C469   C     0.31858   0.93163   0.07568   0.00000  Uiso   1.00
C470   C     0.10696   0.11927   0.12004   0.00000  Uiso   1.00
C471   C     0.03652   0.12241   0.10465   0.00000  Uiso   1.00
C472   C     0.01843   0.14977   0.05007   0.00000  Uiso   1.00
C473   C     0.96212   0.18964   0.96657   0.00000  Uiso   1.00
C474   C     0.23140   0.13430   0.10794   0.00000  Uiso   1.00
C475   C     0.23114   0.14909   0.18124   0.00000  Uiso   1.00
C476   C     0.27504   0.18190   0.20992   0.00000  Uiso   1.00
C477   C     0.26654   0.19053   0.27781   0.00000  Uiso   1.00
C478   C     0.24171   0.08170   0.10801   0.00000  Uiso   1.00
C479   C     0.29449   0.05785   0.07511   0.00000  Uiso   1.00
C480   C     0.29489   0.00975   0.08134   0.00000  Uiso   1.00
C481   C     0.15755   0.14263   0.08225   0.00000  Uiso   1.00
C482   C     0.13957   0.16998   0.02769   0.00000  Uiso   1.00
C483   C     0.06911   0.17317   0.01222   0.00000  Uiso   1.00
H484   H     0.09888   0.07311   0.20692   0.00000  Uiso   1.00
H485   H     0.13284   0.11624   0.31611   0.00000  Uiso   1.00
H486   H     0.15228   0.99221   0.18131   0.00000  Uiso   1.00
H487   H     0.99738   0.10433   0.13390   0.00000  Uiso   1.00
H488   H     0.19281   0.17434   0.42051   0.00000  Uiso   1.00
H489   H     0.23380   0.91281   0.13626   0.00000  Uiso   1.00
H490   H     0.90716   0.14924   0.03627   0.00000  Uiso   1.00
H491   H     0.27079   0.15248   0.07852   0.00000  Uiso   1.00
H492   H     0.31418   0.19997   0.18067   0.00000  Uiso   1.00
H493   H     0.33363   0.07593   0.04587   0.00000  Uiso   1.00
H494   H     0.17873   0.18805   0.99846   0.00000  Uiso   1.00
H495   H     0.34000   0.24229   0.31058   0.00000  Uiso   1.00
H496   H     0.38098   0.98077   0.02632   0.00000  Uiso   1.00
H497   H     0.05435   0.21719   0.92634   0.00000  Uiso   1.00
O498   O     0.29186   0.23811   0.43506   0.00000  Uiso   1.00
O499   O     0.34563   0.89500   0.06212   0.00000  Uiso   1.00
O500   O     0.91709   0.20518   0.93095   0.00000  Uiso   1.00
N501   N     0.22149   0.18382   0.38062   0.00000  Uiso   1.00
N502   N     0.25981   0.93931   0.11486   0.00000  Uiso   1.00
N503   N     0.95444   0.16034   0.02138   0.00000  Uiso   1.00
N504   N     0.30069   0.22039   0.32146   0.00000  Uiso   1.00
N505   N     0.33901   0.97588   0.05571   0.00000  Uiso   1.00
N506   N     0.03364   0.19691   0.96223   0.00000  Uiso   1.00
C507   C     0.63826   0.59130   0.67751   0.00000  Uiso   1.00
C508   C     0.68055   0.62574   0.71903   0.00000  Uiso   1.00
C509   C     0.67199   0.63432   0.78689   0.00000  Uiso   1.00
C510   C     0.71586   0.66713   0.81566   0.00000  Uiso   1.00
C511   C     0.77385   0.71704   0.88589   0.00000  Uiso   1.00
C512   C     0.69112   0.55835   0.64579   0.00000  Uiso   1.00
C513   C     0.69144   0.51027   0.65207   0.00000  Uiso   1.00
C514   C     0.74421   0.48635   0.61919   0.00000  Uiso   1.00
C515   C     0.81858   0.43163   0.57568   0.00000  Uiso   1.00
C516   C     0.60696   0.61927   0.62004   0.00000  Uiso   1.00
C517   C     0.53652   0.62241   0.60465   0.00000  Uiso   1.00
C518   C     0.51843   0.64977   0.55007   0.00000  Uiso   1.00
C519   C     0.46212   0.68964   0.46657   0.00000  Uiso   1.00
C520   C     0.73140   0.63430   0.60794   0.00000  Uiso   1.00
C521   C     0.73114   0.64909   0.68124   0.00000  Uiso   1.00
C522   C     0.77504   0.68190   0.70992   0.00000  Uiso   1.00
C523   C     0.76654   0.69053   0.77781   0.00000  Uiso   1.00
C524   C     0.74171   0.58170   0.60801   0.00000  Uiso   1.00
C525   C     0.79449   0.55785   0.57511   0.00000  Uiso   1.00
C526   C     0.79489   0.50975   0.58134   0.00000  Uiso   1.00
C527   C     0.65755   0.64263   0.58225   0.00000  Uiso   1.00
C528   C     0.63957   0.66998   0.52769   0.00000  Uiso   1.00
C529   C     0.56911   0.67317   0.51222   0.00000  Uiso   1.00
H530   H     0.59888   0.57311   0.70692   0.00000  Uiso   1.00
H531   H     0.63284   0.61624   0.81611   0.00000  Uiso   1.00
H532   H     0.65228   0.49221   0.68131   0.00000  Uiso   1.00
H533   H     0.49738   0.60433   0.63390   0.00000  Uiso   1.00
H534   H     0.69281   0.67434   0.92051   0.00000  Uiso   1.00
H535   H     0.73380   0.41281   0.63626   0.00000  Uiso   1.00
H536   H     0.40716   0.64924   0.53627   0.00000  Uiso   1.00
H537   H     0.77079   0.65248   0.57852   0.00000  Uiso   1.00
H538   H     0.81418   0.69997   0.68067   0.00000  Uiso   1.00
H539   H     0.83363   0.57593   0.54587   0.00000  Uiso   1.00
H540   H     0.67873   0.68805   0.49846   0.00000  Uiso   1.00
H541   H     0.84000   0.74229   0.81058   0.00000  Uiso   1.00
H542   H     0.88098   0.48077   0.52632   0.00000  Uiso   1.00
H543   H     0.55435   0.71719   0.42634   0.00000  Uiso   1.00
O544   O     0.79186   0.73811   0.93506   0.00000  Uiso   1.00
O545   O     0.84563   0.39500   0.56212   0.00000  Uiso   1.00
O546   O     0.41709   0.70518   0.43095   0.00000  Uiso   1.00
N547   N     0.72149   0.68382   0.88062   0.00000  Uiso   1.00
N548   N     0.75981   0.43931   0.61486   0.00000  Uiso   1.00
N549   N     0.45444   0.66034   0.52138   0.00000  Uiso   1.00
N550   N     0.80069   0.72039   0.82146   0.00000  Uiso   1.00
N551   N     0.83901   0.47588   0.55571   0.00000  Uiso   1.00
N552   N     0.53364   0.69691   0.46223   0.00000  Uiso   1.00
C553   C     0.63826   0.40870   0.82249   0.00000  Uiso   1.00
C554   C     0.68055   0.37426   0.78097   0.00000  Uiso   1.00
C555   C     0.67199   0.36568   0.71311   0.00000  Uiso   1.00
C556   C     0.71586   0.33287   0.68434   0.00000  Uiso   1.00
C557   C     0.77385   0.28296   0.61411   0.00000  Uiso   1.00
C558   C     0.69112   0.44165   0.85421   0.00000  Uiso   1.00
C559   C     0.69144   0.48973   0.84793   0.00000  Uiso   1.00
C560   C     0.74421   0.51365   0.88081   0.00000  Uiso   1.00
C561   C     0.81858   0.56837   0.92432   0.00000  Uiso   1.00
C562   C     0.60696   0.38073   0.87996   0.00000  Uiso   1.00
C563   C     0.53652   0.37759   0.89535   0.00000  Uiso   1.00
C564   C     0.51843   0.35023   0.94993   0.00000  Uiso   1.00
C565   C     0.46212   0.31036   0.03343   0.00000  Uiso   1.00
C566   C     0.73140   0.36570   0.89206   0.00000  Uiso   1.00
C567   C     0.73114   0.35091   0.81876   0.00000  Uiso   1.00
C568   C     0.77504   0.31810   0.79008   0.00000  Uiso   1.00
C569   C     0.76654   0.30947   0.72219   0.00000  Uiso   1.00
C570   C     0.74171   0.41830   0.89199   0.00000  Uiso   1.00
C571   C     0.79449   0.44215   0.92489   0.00000  Uiso   1.00
C572   C     0.79489   0.49025   0.91866   0.00000  Uiso   1.00
C573   C     0.65755   0.35737   0.91775   0.00000  Uiso   1.00
C574   C     0.63957   0.33002   0.97231   0.00000  Uiso   1.00
C575   C     0.56911   0.32683   0.98778   0.00000  Uiso   1.00
H576   H     0.59888   0.42689   0.79308   0.00000  Uiso   1.00
H577   H     0.63284   0.38376   0.68389   0.00000  Uiso   1.00
H578   H     0.65228   0.50779   0.81869   0.00000  Uiso   1.00
H579   H     0.49738   0.39567   0.86610   0.00000  Uiso   1.00
H580   H     0.69281   0.32566   0.57949   0.00000  Uiso   1.00
H581   H     0.73380   0.58719   0.86374   0.00000  Uiso   1.00
H582   H     0.40716   0.35076   0.96373   0.00000  Uiso   1.00
H583   H     0.77079   0.34752   0.92148   0.00000  Uiso   1.00
H584   H     0.81418   0.30003   0.81933   0.00000  Uiso   1.00
H585   H     0.83363   0.42407   0.95413   0.00000  Uiso   1.00
H586   H     0.67873   0.31195   0.00154   0.00000  Uiso   1.00
H587   H     0.84000   0.25771   0.68942   0.00000  Uiso   1.00
H588   H     0.88098   0.51923   0.97368   0.00000  Uiso   1.00
H589   H     0.55435   0.28281   0.07366   0.00000  Uiso   1.00
O590   O     0.79186   0.26189   0.56494   0.00000  Uiso   1.00
O591   O     0.84563   0.60500   0.93788   0.00000  Uiso   1.00
O592   O     0.41709   0.29482   0.06905   0.00000  Uiso   1.00
N593   N     0.72149   0.31618   0.61938   0.00000  Uiso   1.00
N594   N     0.75981   0.56069   0.88514   0.00000  Uiso   1.00
N595   N     0.45444   0.33966   0.97862   0.00000  Uiso   1.00
N596   N     0.80069   0.27961   0.67854   0.00000  Uiso   1.00
N597   N     0.83901   0.52412   0.94429   0.00000  Uiso   1.00
N598   N     0.53364   0.30309   0.03777   0.00000  Uiso   1.00
C599   C     0.13826   0.90870   0.32249   0.00000  Uiso   1.00
C600   C     0.18055   0.87426   0.28097   0.00000  Uiso   1.00
C601   C     0.17199   0.86568   0.21311   0.00000  Uiso   1.00
C602   C     0.21586   0.83287   0.18434   0.00000  Uiso   1.00
C603   C     0.27385   0.78296   0.11411   0.00000  Uiso   1.00
C604   C     0.19112   0.94165   0.35421   0.00000  Uiso   1.00
C605   C     0.19144   0.98973   0.34793   0.00000  Uiso   1.00
C606   C     0.24421   0.01365   0.38081   0.00000  Uiso   1.00
C607   C     0.31858   0.06837   0.42432   0.00000  Uiso   1.00
C608   C     0.10696   0.88073   0.37996   0.00000  Uiso   1.00
C609   C     0.03652   0.87759   0.39535   0.00000  Uiso   1.00
C610   C     0.01843   0.85023   0.44993   0.00000  Uiso   1.00
C611   C     0.96212   0.81036   0.53343   0.00000  Uiso   1.00
C612   C     0.23140   0.86570   0.39206   0.00000  Uiso   1.00
C613   C     0.23114   0.85091   0.31876   0.00000  Uiso   1.00
C614   C     0.27504   0.81810   0.29008   0.00000  Uiso   1.00
C615   C     0.26654   0.80947   0.22219   0.00000  Uiso   1.00
C616   C     0.24171   0.91830   0.39199   0.00000  Uiso   1.00
C617   C     0.29449   0.94215   0.42489   0.00000  Uiso   1.00
C618   C     0.29489   0.99025   0.41866   0.00000  Uiso   1.00
C619   C     0.15755   0.85737   0.41775   0.00000  Uiso   1.00
C620   C     0.13957   0.83002   0.47231   0.00000  Uiso   1.00
C621   C     0.06911   0.82683   0.48778   0.00000  Uiso   1.00
H622   H     0.09888   0.92689   0.29308   0.00000  Uiso   1.00
H623   H     0.13284   0.88376   0.18389   0.00000  Uiso   1.00
H624   H     0.15228   0.00779   0.31869   0.00000  Uiso   1.00
H625   H     0.99738   0.89567   0.36610   0.00000  Uiso   1.00
H626   H     0.19281   0.82566   0.07949   0.00000  Uiso   1.00
H627   H     0.23380   0.08719   0.36374   0.00000  Uiso   1.00
H628   H     0.90716   0.85076   0.46373   0.00000  Uiso   1.00
H629   H     0.27079   0.84752   0.42148   0.00000  Uiso   1.00
H630   H     0.31418   0.80003   0.31933   0.00000  Uiso   1.00
H631   H     0.33363   0.92407   0.45413   0.00000  Uiso   1.00
H632   H     0.17873   0.81195   0.50154   0.00000  Uiso   1.00
H633   H     0.34000   0.75771   0.18942   0.00000  Uiso   1.00
H634   H     0.38098   0.01923   0.47368   0.00000  Uiso   1.00
H635   H     0.05435   0.78281   0.57366   0.00000  Uiso   1.00
O636   O     0.29186   0.76189   0.06494   0.00000  Uiso   1.00
O637   O     0.34563   0.10500   0.43788   0.00000  Uiso   1.00
O638   O     0.91709   0.79482   0.56905   0.00000  Uiso   1.00
N639   N     0.22149   0.81618   0.11938   0.00000  Uiso   1.00
N640   N     0.25981   0.06069   0.38514   0.00000  Uiso   1.00
N641   N     0.95444   0.83966   0.47862   0.00000  Uiso   1.00
N642   N     0.30069   0.77961   0.17854   0.00000  Uiso   1.00
N643   N     0.33901   0.02412   0.44429   0.00000  Uiso   1.00
N644   N     0.03364   0.80309   0.53777   0.00000  Uiso   1.00
C645   C     0.86174   0.59130   0.32249   0.00000  Uiso   1.00
C646   C     0.81945   0.62574   0.28097   0.00000  Uiso   1.00
C647   C     0.82801   0.63432   0.21311   0.00000  Uiso   1.00
C648   C     0.78414   0.66713   0.18434   0.00000  Uiso   1.00
C649   C     0.72615   0.71704   0.11411   0.00000  Uiso   1.00
C650   C     0.80888   0.55835   0.35421   0.00000  Uiso   1.00
C651   C     0.80856   0.51027   0.34793   0.00000  Uiso   1.00
C652   C     0.75579   0.48635   0.38081   0.00000  Uiso   1.00
C653   C     0.68142   0.43163   0.42432   0.00000  Uiso   1.00
C654   C     0.89304   0.61927   0.37996   0.00000  Uiso   1.00
C655   C     0.96348   0.62241   0.39535   0.00000  Uiso   1.00
C656   C     0.98157   0.64977   0.44993   0.00000  Uiso   1.00
C657   C     0.03788   0.68964   0.53343   0.00000  Uiso   1.00
C658   C     0.76860   0.63430   0.39206   0.00000  Uiso   1.00
C659   C     0.76886   0.64909   0.31876   0.00000  Uiso   1.00
C660   C     0.72496   0.68190   0.29008   0.00000  Uiso   1.00
C661   C     0.73346   0.69053   0.22219   0.00000  Uiso   1.00
C662   C     0.75829   0.58170   0.39199   0.00000  Uiso   1.00
C663   C     0.70551   0.55785   0.42489   0.00000  Uiso   1.00
C664   C     0.70511   0.50975   0.41866   0.00000  Uiso   1.00
C665   C     0.84245   0.64263   0.41775   0.00000  Uiso   1.00
C666   C     0.86043   0.66998   0.47231   0.00000  Uiso   1.00
C667   C     0.93089   0.67317   0.48778   0.00000  Uiso   1.00
H668   H     0.90112   0.57311   0.29308   0.00000  Uiso   1.00
H669   H     0.86716   0.61624   0.18389   0.00000  Uiso   1.00
H670   H     0.84772   0.49221   0.31869   0.00000  Uiso   1.00
H671   H     0.00262   0.60433   0.36610   0.00000  Uiso   1.00
H672   H     0.80719   0.67434   0.07949   0.00000  Uiso   1.00
H673   H     0.76620   0.41281   0.36374   0.00000  Uiso   1.00
H674   H     0.09284   0.64924   0.46373   0.00000  Uiso   1.00
H675   H     0.72921   0.65248   0.42148   0.00000  Uiso   1.00
H676   H     0.68582   0.69997   0.31933   0.00000  Uiso   1.00
H677   H     0.66637   0.57593   0.45413   0.00000  Uiso   1.00
H678   H     0.82127   0.68805   0.50154   0.00000  Uiso   1.00
H679   H     0.66000   0.74229   0.18942   0.00000  Uiso   1.00
H680   H     0.61902   0.48077   0.47368   0.00000  Uiso   1.00
H681   H     0.94565   0.71719   0.57366   0.00000  Uiso   1.00
O682   O     0.70814   0.73811   0.06494   0.00000  Uiso   1.00
O683   O     0.65437   0.39500   0.43788   0.00000  Uiso   1.00
O684   O     0.08291   0.70518   0.56905   0.00000  Uiso   1.00
N685   N     0.77851   0.68382   0.11938   0.00000  Uiso   1.00
N686   N     0.74019   0.43931   0.38514   0.00000  Uiso   1.00
N687   N     0.04556   0.66034   0.47862   0.00000  Uiso   1.00
N688   N     0.69931   0.72039   0.17854   0.00000  Uiso   1.00
N689   N     0.66099   0.47588   0.44429   0.00000  Uiso   1.00
N690   N     0.96636   0.69691   0.53777   0.00000  Uiso   1.00
C691   C     0.36174   0.09130   0.82249   0.00000  Uiso   1.00
C692   C     0.31945   0.12574   0.78097   0.00000  Uiso   1.00
C693   C     0.32801   0.13432   0.71311   0.00000  Uiso   1.00
C694   C     0.28414   0.16713   0.68434   0.00000  Uiso   1.00
C695   C     0.22615   0.21704   0.61411   0.00000  Uiso   1.00
C696   C     0.30888   0.05835   0.85421   0.00000  Uiso   1.00
C697   C     0.30856   0.01027   0.84793   0.00000  Uiso   1.00
C698   C     0.25579   0.98635   0.88081   0.00000  Uiso   1.00
C699   C     0.18142   0.93163   0.92432   0.00000  Uiso   1.00
C700   C     0.39304   0.11927   0.87996   0.00000  Uiso   1.00
C701   C     0.46348   0.12241   0.89535   0.00000  Uiso   1.00
C702   C     0.48157   0.14977   0.94993   0.00000  Uiso   1.00
C703   C     0.53788   0.18964   0.03343   0.00000  Uiso   1.00
C704   C     0.26860   0.13430   0.89206   0.00000  Uiso   1.00
C705   C     0.26886   0.14909   0.81876   0.00000  Uiso   1.00
C706   C     0.22496   0.18190   0.79008   0.00000  Uiso   1.00
C707   C     0.23346   0.19053   0.72219   0.00000  Uiso   1.00
C708   C     0.25829   0.08170   0.89199   0.00000  Uiso   1.00
C709   C     0.20551   0.05785   0.92489   0.00000  Uiso   1.00
C710   C     0.20511   0.00975   0.91866   0.00000  Uiso   1.00
C711   C     0.34245   0.14263   0.91775   0.00000  Uiso   1.00
C712   C     0.36043   0.16998   0.97231   0.00000  Uiso   1.00
C713   C     0.43089   0.17317   0.98778   0.00000  Uiso   1.00
H714   H     0.40112   0.07311   0.79308   0.00000  Uiso   1.00
H715   H     0.36716   0.11624   0.68389   0.00000  Uiso   1.00
H716   H     0.34772   0.99221   0.81869   0.00000  Uiso   1.00
H717   H     0.50262   0.10433   0.86610   0.00000  Uiso   1.00
H718   H     0.30719   0.17434   0.57949   0.00000  Uiso   1.00
H719   H     0.26620   0.91281   0.86374   0.00000  Uiso   1.00
H720   H     0.59284   0.14924   0.96373   0.00000  Uiso   1.00
H721   H     0.22921   0.15248   0.92148   0.00000  Uiso   1.00
H722   H     0.18582   0.19997   0.81933   0.00000  Uiso   1.00
H723   H     0.16637   0.07593   0.95413   0.00000  Uiso   1.00
H724   H     0.32127   0.18805   0.00154   0.00000  Uiso   1.00
H725   H     0.16000   0.24229   0.68942   0.00000  Uiso   1.00
H726   H     0.11902   0.98077   0.97368   0.00000  Uiso   1.00
H727   H     0.44565   0.21719   0.07366   0.00000  Uiso   1.00
O728   O     0.20814   0.23811   0.56494   0.00000  Uiso   1.00
O729   O     0.15437   0.89500   0.93788   0.00000  Uiso   1.00
O730   O     0.58291   0.20518   0.06905   0.00000  Uiso   1.00
N731   N     0.27851   0.18382   0.61938   0.00000  Uiso   1.00
N732   N     0.24019   0.93931   0.88514   0.00000  Uiso   1.00
N733   N     0.54556   0.16034   0.97862   0.00000  Uiso   1.00
N734   N     0.19931   0.22039   0.67854   0.00000  Uiso   1.00
N735   N     0.16099   0.97588   0.94429   0.00000  Uiso   1.00
N736   N     0.46636   0.19691   0.03777   0.00000  Uiso   1.00
