data_job_01573
_audit_creation_date              2018-12-19
_audit_creation_method            'Materials Studio'
_symmetry_space_group_name_H-M    'P1'
_symmetry_Int_Tables_number       1
_symmetry_cell_setting            triclinic
loop_
_symmetry_equiv_pos_as_xyz
  x,y,z
_cell_length_a                    15.6835
_cell_length_b                    15.6835
_cell_length_c                    41.9548
_cell_angle_alpha                 90.0000
_cell_angle_beta                  90.0000
_cell_angle_gamma                 90.0000
loop_
_atom_site_label
_atom_site_type_symbol
_atom_site_fract_x
_atom_site_fract_y
_atom_site_fract_z
_atom_site_U_iso_or_equiv
_atom_site_adp_type
_atom_site_occupancy
C1     C     0.56008   0.63528   0.78603   0.00000  Uiso   1.00
C2     C     0.53811   0.69298   0.81411   0.00000  Uiso   1.00
C3     C     0.46861   0.68339   0.83427   0.00000  Uiso   1.00
C4     C     0.45967   0.74286   0.85855   0.00000  Uiso   1.00
C5     C     0.41663   0.82234   0.90154   0.00000  Uiso   1.00
C6     C     0.56535   0.69334   0.75694   0.00000  Uiso   1.00
C7     C     0.51877   0.68405   0.72903   0.00000  Uiso   1.00
C8     C     0.53277   0.74383   0.70519   0.00000  Uiso   1.00
C9     C     0.53206   0.82383   0.65942   0.00000  Uiso   1.00
C10    C     0.65059   0.60359   0.79203   0.00000  Uiso   1.00
C11    C     0.67569   0.51884   0.79361   0.00000  Uiso   1.00
C12    C     0.76146   0.50306   0.79930   0.00000  Uiso   1.00
C13    C     0.89310   0.44371   0.80800   0.00000  Uiso   1.00
C14    C     0.66779   0.75795   0.79331   0.00000  Uiso   1.00
C15    C     0.59661   0.75960   0.81806   0.00000  Uiso   1.00
C16    C     0.58777   0.81910   0.84232   0.00000  Uiso   1.00
C17    C     0.51827   0.80961   0.86252   0.00000  Uiso   1.00
C18    C     0.62385   0.75997   0.76090   0.00000  Uiso   1.00
C19    C     0.63793   0.81977   0.73709   0.00000  Uiso   1.00
C20    C     0.59137   0.81058   0.70915   0.00000  Uiso   1.00
C21    C     0.70909   0.67022   0.79598   0.00000  Uiso   1.00
C22    C     0.79484   0.65456   0.80167   0.00000  Uiso   1.00
C23    C     0.82006   0.56980   0.80326   0.00000  Uiso   1.00
H24    H     0.51454   0.58341   0.78295   0.00000  Uiso   1.00
H25    H     0.42335   0.63183   0.83120   0.00000  Uiso   1.00
H26    H     0.47351   0.63248   0.72598   0.00000  Uiso   1.00
H27    H     0.63040   0.46730   0.79055   0.00000  Uiso   1.00
H28    H     0.34803   0.71490   0.88643   0.00000  Uiso   1.00
H29    H     0.45381   0.71627   0.66456   0.00000  Uiso   1.00
H30    H     0.78465   0.36795   0.80071   0.00000  Uiso   1.00
H31    H     0.71333   0.80982   0.79639   0.00000  Uiso   1.00
H32    H     0.63305   0.87066   0.84538   0.00000  Uiso   1.00
H33    H     0.68321   0.87131   0.74016   0.00000  Uiso   1.00
H34    H     0.84010   0.70613   0.80472   0.00000  Uiso   1.00
H35    H     0.51823   0.90875   0.89794   0.00000  Uiso   1.00
H36    H     0.62401   0.91011   0.67607   0.00000  Uiso   1.00
H37    H     0.95485   0.56180   0.81222   0.00000  Uiso   1.00
O38    O     0.37672   0.84778   0.92416   0.00000  Uiso   1.00
O39    O     0.51550   0.84956   0.63308   0.00000  Uiso   1.00
O40    O     0.94955   0.39258   0.81171   0.00000  Uiso   1.00
N41    N     0.39911   0.75216   0.88242   0.00000  Uiso   1.00
N42    N     0.49800   0.75345   0.67499   0.00000  Uiso   1.00
N43    N     0.80731   0.42780   0.80227   0.00000  Uiso   1.00
N44    N     0.49070   0.85647   0.88861   0.00000  Uiso   1.00
N45    N     0.58958   0.85776   0.68118   0.00000  Uiso   1.00
N46    N     0.89889   0.53211   0.80846   0.00000  Uiso   1.00
C47    C     0.06008   0.13528   0.28603   0.00000  Uiso   1.00
C48    C     0.03811   0.19298   0.31411   0.00000  Uiso   1.00
C49    C     0.96861   0.18339   0.33427   0.00000  Uiso   1.00
C50    C     0.95967   0.24286   0.35855   0.00000  Uiso   1.00
C51    C     0.91663   0.32234   0.40154   0.00000  Uiso   1.00
C52    C     0.06535   0.19334   0.25694   0.00000  Uiso   1.00
C53    C     0.01877   0.18405   0.22903   0.00000  Uiso   1.00
C54    C     0.03277   0.24383   0.20519   0.00000  Uiso   1.00
C55    C     0.03206   0.32383   0.15942   0.00000  Uiso   1.00
C56    C     0.15059   0.10359   0.29203   0.00000  Uiso   1.00
C57    C     0.17569   0.01884   0.29361   0.00000  Uiso   1.00
C58    C     0.26146   0.00306   0.29930   0.00000  Uiso   1.00
C59    C     0.39310   0.94371   0.30800   0.00000  Uiso   1.00
C60    C     0.16779   0.25795   0.29331   0.00000  Uiso   1.00
C61    C     0.09661   0.25960   0.31806   0.00000  Uiso   1.00
C62    C     0.08777   0.31910   0.34232   0.00000  Uiso   1.00
C63    C     0.01827   0.30961   0.36252   0.00000  Uiso   1.00
C64    C     0.12385   0.25997   0.26090   0.00000  Uiso   1.00
C65    C     0.13793   0.31977   0.23709   0.00000  Uiso   1.00
C66    C     0.09137   0.31058   0.20915   0.00000  Uiso   1.00
C67    C     0.20909   0.17022   0.29598   0.00000  Uiso   1.00
C68    C     0.29484   0.15456   0.30167   0.00000  Uiso   1.00
C69    C     0.32006   0.06980   0.30326   0.00000  Uiso   1.00
H70    H     0.01454   0.08341   0.28295   0.00000  Uiso   1.00
H71    H     0.92335   0.13183   0.33120   0.00000  Uiso   1.00
H72    H     0.97351   0.13248   0.22598   0.00000  Uiso   1.00
H73    H     0.13040   0.96730   0.29055   0.00000  Uiso   1.00
H74    H     0.84803   0.21490   0.38643   0.00000  Uiso   1.00
H75    H     0.95381   0.21627   0.16456   0.00000  Uiso   1.00
H76    H     0.28465   0.86795   0.30071   0.00000  Uiso   1.00
H77    H     0.21333   0.30982   0.29639   0.00000  Uiso   1.00
H78    H     0.13305   0.37066   0.34538   0.00000  Uiso   1.00
H79    H     0.18321   0.37131   0.24016   0.00000  Uiso   1.00
H80    H     0.34010   0.20613   0.30472   0.00000  Uiso   1.00
H81    H     0.01823   0.40875   0.39794   0.00000  Uiso   1.00
H82    H     0.12401   0.41011   0.17607   0.00000  Uiso   1.00
H83    H     0.45485   0.06180   0.31222   0.00000  Uiso   1.00
O84    O     0.87672   0.34778   0.42416   0.00000  Uiso   1.00
O85    O     0.01550   0.34956   0.13308   0.00000  Uiso   1.00
O86    O     0.44955   0.89258   0.31171   0.00000  Uiso   1.00
N87    N     0.89911   0.25216   0.38242   0.00000  Uiso   1.00
N88    N     0.99800   0.25345   0.17499   0.00000  Uiso   1.00
N89    N     0.30731   0.92780   0.30227   0.00000  Uiso   1.00
N90    N     0.99070   0.35647   0.38861   0.00000  Uiso   1.00
N91    N     0.08958   0.35776   0.18118   0.00000  Uiso   1.00
N92    N     0.39889   0.03211   0.30846   0.00000  Uiso   1.00
C93    C     0.93992   0.86472   0.28603   0.00000  Uiso   1.00
C94    C     0.96189   0.80702   0.31411   0.00000  Uiso   1.00
C95    C     0.03139   0.81661   0.33427   0.00000  Uiso   1.00
C96    C     0.04033   0.75714   0.35855   0.00000  Uiso   1.00
C97    C     0.08337   0.67766   0.40154   0.00000  Uiso   1.00
C98    C     0.93465   0.80666   0.25694   0.00000  Uiso   1.00
C99    C     0.98123   0.81595   0.22903   0.00000  Uiso   1.00
C100   C     0.96723   0.75617   0.20519   0.00000  Uiso   1.00
C101   C     0.96794   0.67617   0.15942   0.00000  Uiso   1.00
C102   C     0.84941   0.89641   0.29203   0.00000  Uiso   1.00
C103   C     0.82431   0.98116   0.29361   0.00000  Uiso   1.00
C104   C     0.73854   0.99694   0.29930   0.00000  Uiso   1.00
C105   C     0.60690   0.05629   0.30800   0.00000  Uiso   1.00
C106   C     0.83221   0.74205   0.29331   0.00000  Uiso   1.00
C107   C     0.90339   0.74040   0.31806   0.00000  Uiso   1.00
C108   C     0.91223   0.68090   0.34232   0.00000  Uiso   1.00
C109   C     0.98173   0.69039   0.36252   0.00000  Uiso   1.00
C110   C     0.87615   0.74003   0.26090   0.00000  Uiso   1.00
C111   C     0.86207   0.68023   0.23709   0.00000  Uiso   1.00
C112   C     0.90863   0.68942   0.20915   0.00000  Uiso   1.00
C113   C     0.79091   0.82978   0.29598   0.00000  Uiso   1.00
C114   C     0.70516   0.84544   0.30167   0.00000  Uiso   1.00
C115   C     0.67994   0.93020   0.30326   0.00000  Uiso   1.00
H116   H     0.98546   0.91659   0.28295   0.00000  Uiso   1.00
H117   H     0.07665   0.86817   0.33120   0.00000  Uiso   1.00
H118   H     0.02649   0.86752   0.22598   0.00000  Uiso   1.00
H119   H     0.86960   0.03270   0.29055   0.00000  Uiso   1.00
H120   H     0.15197   0.78510   0.38643   0.00000  Uiso   1.00
H121   H     0.04619   0.78373   0.16456   0.00000  Uiso   1.00
H122   H     0.71535   0.13205   0.30071   0.00000  Uiso   1.00
H123   H     0.78667   0.69018   0.29639   0.00000  Uiso   1.00
H124   H     0.86695   0.62934   0.34538   0.00000  Uiso   1.00
H125   H     0.81679   0.62869   0.24016   0.00000  Uiso   1.00
H126   H     0.65990   0.79387   0.30472   0.00000  Uiso   1.00
H127   H     0.98177   0.59125   0.39794   0.00000  Uiso   1.00
H128   H     0.87599   0.58989   0.17607   0.00000  Uiso   1.00
H129   H     0.54515   0.93820   0.31222   0.00000  Uiso   1.00
O130   O     0.12328   0.65222   0.42416   0.00000  Uiso   1.00
O131   O     0.98450   0.65044   0.13308   0.00000  Uiso   1.00
O132   O     0.55045   0.10742   0.31171   0.00000  Uiso   1.00
N133   N     0.10089   0.74784   0.38242   0.00000  Uiso   1.00
N134   N     0.00200   0.74655   0.17499   0.00000  Uiso   1.00
N135   N     0.69269   0.07220   0.30227   0.00000  Uiso   1.00
N136   N     0.00930   0.64353   0.38861   0.00000  Uiso   1.00
N137   N     0.91042   0.64224   0.18118   0.00000  Uiso   1.00
N138   N     0.60111   0.96789   0.30846   0.00000  Uiso   1.00
C139   C     0.43992   0.36472   0.78603   0.00000  Uiso   1.00
C140   C     0.46189   0.30702   0.81411   0.00000  Uiso   1.00
C141   C     0.53139   0.31661   0.83427   0.00000  Uiso   1.00
C142   C     0.54033   0.25714   0.85855   0.00000  Uiso   1.00
C143   C     0.58337   0.17766   0.90154   0.00000  Uiso   1.00
C144   C     0.43465   0.30666   0.75694   0.00000  Uiso   1.00
C145   C     0.48123   0.31595   0.72903   0.00000  Uiso   1.00
C146   C     0.46723   0.25617   0.70519   0.00000  Uiso   1.00
C147   C     0.46794   0.17617   0.65942   0.00000  Uiso   1.00
C148   C     0.34941   0.39641   0.79203   0.00000  Uiso   1.00
C149   C     0.32431   0.48116   0.79361   0.00000  Uiso   1.00
C150   C     0.23854   0.49694   0.79930   0.00000  Uiso   1.00
C151   C     0.10690   0.55629   0.80800   0.00000  Uiso   1.00
C152   C     0.33221   0.24205   0.79331   0.00000  Uiso   1.00
C153   C     0.40339   0.24040   0.81806   0.00000  Uiso   1.00
C154   C     0.41223   0.18090   0.84232   0.00000  Uiso   1.00
C155   C     0.48173   0.19039   0.86252   0.00000  Uiso   1.00
C156   C     0.37615   0.24003   0.76090   0.00000  Uiso   1.00
C157   C     0.36207   0.18023   0.73709   0.00000  Uiso   1.00
C158   C     0.40863   0.18942   0.70915   0.00000  Uiso   1.00
C159   C     0.29091   0.32978   0.79598   0.00000  Uiso   1.00
C160   C     0.20516   0.34544   0.80167   0.00000  Uiso   1.00
C161   C     0.17994   0.43020   0.80326   0.00000  Uiso   1.00
H162   H     0.48546   0.41659   0.78295   0.00000  Uiso   1.00
H163   H     0.57665   0.36817   0.83120   0.00000  Uiso   1.00
H164   H     0.52649   0.36752   0.72598   0.00000  Uiso   1.00
H165   H     0.36960   0.53270   0.79055   0.00000  Uiso   1.00
H166   H     0.65197   0.28510   0.88643   0.00000  Uiso   1.00
H167   H     0.54619   0.28373   0.66456   0.00000  Uiso   1.00
H168   H     0.21535   0.63205   0.80071   0.00000  Uiso   1.00
H169   H     0.28667   0.19018   0.79639   0.00000  Uiso   1.00
H170   H     0.36695   0.12934   0.84538   0.00000  Uiso   1.00
H171   H     0.31679   0.12869   0.74016   0.00000  Uiso   1.00
H172   H     0.15990   0.29387   0.80472   0.00000  Uiso   1.00
H173   H     0.48177   0.09125   0.89794   0.00000  Uiso   1.00
H174   H     0.37599   0.08989   0.67607   0.00000  Uiso   1.00
H175   H     0.04515   0.43820   0.81222   0.00000  Uiso   1.00
O176   O     0.62328   0.15222   0.92416   0.00000  Uiso   1.00
O177   O     0.48450   0.15044   0.63308   0.00000  Uiso   1.00
O178   O     0.05045   0.60742   0.81171   0.00000  Uiso   1.00
N179   N     0.60089   0.24784   0.88242   0.00000  Uiso   1.00
N180   N     0.50200   0.24655   0.67499   0.00000  Uiso   1.00
N181   N     0.19269   0.57220   0.80227   0.00000  Uiso   1.00
N182   N     0.50930   0.14353   0.88861   0.00000  Uiso   1.00
N183   N     0.41042   0.14224   0.68118   0.00000  Uiso   1.00
N184   N     0.10111   0.46789   0.80846   0.00000  Uiso   1.00
C185   C     0.36472   0.06008   0.03603   0.00000  Uiso   1.00
C186   C     0.30702   0.03811   0.06411   0.00000  Uiso   1.00
C187   C     0.31661   0.96861   0.08427   0.00000  Uiso   1.00
C188   C     0.25714   0.95967   0.10855   0.00000  Uiso   1.00
C189   C     0.17766   0.91663   0.15154   0.00000  Uiso   1.00
C190   C     0.30666   0.06535   0.00694   0.00000  Uiso   1.00
C191   C     0.31595   0.01877   0.97903   0.00000  Uiso   1.00
C192   C     0.25617   0.03277   0.95519   0.00000  Uiso   1.00
C193   C     0.17617   0.03206   0.90942   0.00000  Uiso   1.00
C194   C     0.39641   0.15059   0.04203   0.00000  Uiso   1.00
C195   C     0.48116   0.17569   0.04361   0.00000  Uiso   1.00
C196   C     0.49694   0.26146   0.04930   0.00000  Uiso   1.00
C197   C     0.55629   0.39310   0.05800   0.00000  Uiso   1.00
C198   C     0.24205   0.16779   0.04331   0.00000  Uiso   1.00
C199   C     0.24040   0.09661   0.06806   0.00000  Uiso   1.00
C200   C     0.18090   0.08777   0.09232   0.00000  Uiso   1.00
C201   C     0.19039   0.01827   0.11252   0.00000  Uiso   1.00
C202   C     0.24003   0.12385   0.01090   0.00000  Uiso   1.00
C203   C     0.18023   0.13793   0.98709   0.00000  Uiso   1.00
C204   C     0.18942   0.09137   0.95915   0.00000  Uiso   1.00
C205   C     0.32978   0.20909   0.04598   0.00000  Uiso   1.00
C206   C     0.34544   0.29484   0.05167   0.00000  Uiso   1.00
C207   C     0.43020   0.32006   0.05326   0.00000  Uiso   1.00
H208   H     0.41659   0.01454   0.03295   0.00000  Uiso   1.00
H209   H     0.36817   0.92335   0.08120   0.00000  Uiso   1.00
H210   H     0.36752   0.97351   0.97598   0.00000  Uiso   1.00
H211   H     0.53270   0.13040   0.04055   0.00000  Uiso   1.00
H212   H     0.28510   0.84803   0.13643   0.00000  Uiso   1.00
H213   H     0.28373   0.95381   0.91456   0.00000  Uiso   1.00
H214   H     0.63205   0.28465   0.05071   0.00000  Uiso   1.00
H215   H     0.19018   0.21333   0.04639   0.00000  Uiso   1.00
H216   H     0.12934   0.13305   0.09538   0.00000  Uiso   1.00
H217   H     0.12869   0.18321   0.99016   0.00000  Uiso   1.00
H218   H     0.29387   0.34010   0.05472   0.00000  Uiso   1.00
H219   H     0.09125   0.01823   0.14794   0.00000  Uiso   1.00
H220   H     0.08989   0.12401   0.92607   0.00000  Uiso   1.00
H221   H     0.43820   0.45485   0.06222   0.00000  Uiso   1.00
O222   O     0.15222   0.87672   0.17416   0.00000  Uiso   1.00
O223   O     0.15044   0.01550   0.88308   0.00000  Uiso   1.00
O224   O     0.60742   0.44955   0.06171   0.00000  Uiso   1.00
N225   N     0.24784   0.89911   0.13242   0.00000  Uiso   1.00
N226   N     0.24655   0.99800   0.92499   0.00000  Uiso   1.00
N227   N     0.57220   0.30731   0.05227   0.00000  Uiso   1.00
N228   N     0.14353   0.99070   0.13861   0.00000  Uiso   1.00
N229   N     0.14224   0.08958   0.93118   0.00000  Uiso   1.00
N230   N     0.46789   0.39889   0.05846   0.00000  Uiso   1.00
C231   C     0.86472   0.56008   0.53603   0.00000  Uiso   1.00
C232   C     0.80702   0.53811   0.56411   0.00000  Uiso   1.00
C233   C     0.81661   0.46861   0.58427   0.00000  Uiso   1.00
C234   C     0.75714   0.45967   0.60855   0.00000  Uiso   1.00
C235   C     0.67766   0.41663   0.65154   0.00000  Uiso   1.00
C236   C     0.80666   0.56535   0.50694   0.00000  Uiso   1.00
C237   C     0.81595   0.51877   0.47903   0.00000  Uiso   1.00
C238   C     0.75617   0.53277   0.45519   0.00000  Uiso   1.00
C239   C     0.67617   0.53206   0.40942   0.00000  Uiso   1.00
C240   C     0.89641   0.65059   0.54203   0.00000  Uiso   1.00
C241   C     0.98116   0.67569   0.54361   0.00000  Uiso   1.00
C242   C     0.99694   0.76146   0.54930   0.00000  Uiso   1.00
C243   C     0.05629   0.89310   0.55800   0.00000  Uiso   1.00
C244   C     0.74205   0.66779   0.54331   0.00000  Uiso   1.00
C245   C     0.74040   0.59661   0.56806   0.00000  Uiso   1.00
C246   C     0.68090   0.58777   0.59232   0.00000  Uiso   1.00
C247   C     0.69039   0.51827   0.61252   0.00000  Uiso   1.00
C248   C     0.74003   0.62385   0.51090   0.00000  Uiso   1.00
C249   C     0.68023   0.63793   0.48709   0.00000  Uiso   1.00
C250   C     0.68942   0.59137   0.45915   0.00000  Uiso   1.00
C251   C     0.82978   0.70909   0.54598   0.00000  Uiso   1.00
C252   C     0.84544   0.79484   0.55167   0.00000  Uiso   1.00
C253   C     0.93020   0.82006   0.55326   0.00000  Uiso   1.00
H254   H     0.91659   0.51454   0.53295   0.00000  Uiso   1.00
H255   H     0.86817   0.42335   0.58120   0.00000  Uiso   1.00
H256   H     0.86752   0.47351   0.47598   0.00000  Uiso   1.00
H257   H     0.03270   0.63040   0.54055   0.00000  Uiso   1.00
H258   H     0.78510   0.34803   0.63643   0.00000  Uiso   1.00
H259   H     0.78373   0.45381   0.41456   0.00000  Uiso   1.00
H260   H     0.13205   0.78465   0.55071   0.00000  Uiso   1.00
H261   H     0.69018   0.71333   0.54639   0.00000  Uiso   1.00
H262   H     0.62934   0.63305   0.59538   0.00000  Uiso   1.00
H263   H     0.62869   0.68321   0.49016   0.00000  Uiso   1.00
H264   H     0.79387   0.84010   0.55472   0.00000  Uiso   1.00
H265   H     0.59125   0.51823   0.64794   0.00000  Uiso   1.00
H266   H     0.58989   0.62401   0.42607   0.00000  Uiso   1.00
H267   H     0.93820   0.95485   0.56222   0.00000  Uiso   1.00
O268   O     0.65222   0.37672   0.67416   0.00000  Uiso   1.00
O269   O     0.65044   0.51550   0.38308   0.00000  Uiso   1.00
O270   O     0.10742   0.94955   0.56171   0.00000  Uiso   1.00
N271   N     0.74784   0.39911   0.63242   0.00000  Uiso   1.00
N272   N     0.74655   0.49800   0.42499   0.00000  Uiso   1.00
N273   N     0.07220   0.80731   0.55227   0.00000  Uiso   1.00
N274   N     0.64353   0.49070   0.63861   0.00000  Uiso   1.00
N275   N     0.64224   0.58958   0.43118   0.00000  Uiso   1.00
N276   N     0.96789   0.89889   0.55846   0.00000  Uiso   1.00
C277   C     0.13528   0.43992   0.53603   0.00000  Uiso   1.00
C278   C     0.19298   0.46189   0.56411   0.00000  Uiso   1.00
C279   C     0.18339   0.53139   0.58427   0.00000  Uiso   1.00
C280   C     0.24286   0.54033   0.60855   0.00000  Uiso   1.00
C281   C     0.32234   0.58337   0.65154   0.00000  Uiso   1.00
C282   C     0.19334   0.43465   0.50694   0.00000  Uiso   1.00
C283   C     0.18405   0.48123   0.47903   0.00000  Uiso   1.00
C284   C     0.24383   0.46723   0.45519   0.00000  Uiso   1.00
C285   C     0.32383   0.46794   0.40942   0.00000  Uiso   1.00
C286   C     0.10359   0.34941   0.54203   0.00000  Uiso   1.00
C287   C     0.01884   0.32431   0.54361   0.00000  Uiso   1.00
C288   C     0.00306   0.23854   0.54930   0.00000  Uiso   1.00
C289   C     0.94371   0.10690   0.55800   0.00000  Uiso   1.00
C290   C     0.25795   0.33221   0.54331   0.00000  Uiso   1.00
C291   C     0.25960   0.40339   0.56806   0.00000  Uiso   1.00
C292   C     0.31910   0.41223   0.59232   0.00000  Uiso   1.00
C293   C     0.30961   0.48173   0.61252   0.00000  Uiso   1.00
C294   C     0.25997   0.37615   0.51090   0.00000  Uiso   1.00
C295   C     0.31977   0.36207   0.48709   0.00000  Uiso   1.00
C296   C     0.31058   0.40863   0.45915   0.00000  Uiso   1.00
C297   C     0.17022   0.29091   0.54598   0.00000  Uiso   1.00
C298   C     0.15456   0.20516   0.55167   0.00000  Uiso   1.00
C299   C     0.06980   0.17994   0.55326   0.00000  Uiso   1.00
H300   H     0.08341   0.48546   0.53295   0.00000  Uiso   1.00
H301   H     0.13183   0.57665   0.58120   0.00000  Uiso   1.00
H302   H     0.13248   0.52649   0.47598   0.00000  Uiso   1.00
H303   H     0.96730   0.36960   0.54055   0.00000  Uiso   1.00
H304   H     0.21490   0.65197   0.63643   0.00000  Uiso   1.00
H305   H     0.21627   0.54619   0.41456   0.00000  Uiso   1.00
H306   H     0.86795   0.21535   0.55071   0.00000  Uiso   1.00
H307   H     0.30982   0.28667   0.54639   0.00000  Uiso   1.00
H308   H     0.37066   0.36695   0.59538   0.00000  Uiso   1.00
H309   H     0.37131   0.31679   0.49016   0.00000  Uiso   1.00
H310   H     0.20613   0.15990   0.55472   0.00000  Uiso   1.00
H311   H     0.40875   0.48177   0.64794   0.00000  Uiso   1.00
H312   H     0.41011   0.37599   0.42607   0.00000  Uiso   1.00
H313   H     0.06180   0.04515   0.56222   0.00000  Uiso   1.00
O314   O     0.34778   0.62328   0.67416   0.00000  Uiso   1.00
O315   O     0.34956   0.48450   0.38308   0.00000  Uiso   1.00
O316   O     0.89258   0.05045   0.56171   0.00000  Uiso   1.00
N317   N     0.25216   0.60089   0.63242   0.00000  Uiso   1.00
N318   N     0.25345   0.50200   0.42499   0.00000  Uiso   1.00
N319   N     0.92780   0.19269   0.55227   0.00000  Uiso   1.00
N320   N     0.35647   0.50930   0.63861   0.00000  Uiso   1.00
N321   N     0.35776   0.41042   0.43118   0.00000  Uiso   1.00
N322   N     0.03211   0.10111   0.55846   0.00000  Uiso   1.00
C323   C     0.63528   0.93992   0.03603   0.00000  Uiso   1.00
C324   C     0.69298   0.96189   0.06411   0.00000  Uiso   1.00
C325   C     0.68339   0.03139   0.08427   0.00000  Uiso   1.00
C326   C     0.74286   0.04033   0.10855   0.00000  Uiso   1.00
C327   C     0.82234   0.08337   0.15154   0.00000  Uiso   1.00
C328   C     0.69334   0.93465   0.00694   0.00000  Uiso   1.00
C329   C     0.68405   0.98123   0.97903   0.00000  Uiso   1.00
C330   C     0.74383   0.96723   0.95519   0.00000  Uiso   1.00
C331   C     0.82383   0.96794   0.90942   0.00000  Uiso   1.00
C332   C     0.60359   0.84941   0.04203   0.00000  Uiso   1.00
C333   C     0.51884   0.82431   0.04361   0.00000  Uiso   1.00
C334   C     0.50306   0.73854   0.04930   0.00000  Uiso   1.00
C335   C     0.44371   0.60690   0.05800   0.00000  Uiso   1.00
C336   C     0.75795   0.83221   0.04331   0.00000  Uiso   1.00
C337   C     0.75960   0.90339   0.06806   0.00000  Uiso   1.00
C338   C     0.81910   0.91223   0.09232   0.00000  Uiso   1.00
C339   C     0.80961   0.98173   0.11252   0.00000  Uiso   1.00
C340   C     0.75997   0.87615   0.01090   0.00000  Uiso   1.00
C341   C     0.81977   0.86207   0.98709   0.00000  Uiso   1.00
C342   C     0.81058   0.90863   0.95915   0.00000  Uiso   1.00
C343   C     0.67022   0.79091   0.04598   0.00000  Uiso   1.00
C344   C     0.65456   0.70516   0.05167   0.00000  Uiso   1.00
C345   C     0.56980   0.67994   0.05326   0.00000  Uiso   1.00
H346   H     0.58341   0.98546   0.03295   0.00000  Uiso   1.00
H347   H     0.63183   0.07665   0.08120   0.00000  Uiso   1.00
H348   H     0.63248   0.02649   0.97598   0.00000  Uiso   1.00
H349   H     0.46730   0.86960   0.04055   0.00000  Uiso   1.00
H350   H     0.71490   0.15197   0.13643   0.00000  Uiso   1.00
H351   H     0.71627   0.04619   0.91456   0.00000  Uiso   1.00
H352   H     0.36795   0.71535   0.05071   0.00000  Uiso   1.00
H353   H     0.80982   0.78667   0.04639   0.00000  Uiso   1.00
H354   H     0.87066   0.86695   0.09538   0.00000  Uiso   1.00
H355   H     0.87131   0.81679   0.99016   0.00000  Uiso   1.00
H356   H     0.70613   0.65990   0.05472   0.00000  Uiso   1.00
H357   H     0.90875   0.98177   0.14794   0.00000  Uiso   1.00
H358   H     0.91011   0.87599   0.92607   0.00000  Uiso   1.00
H359   H     0.56180   0.54515   0.06222   0.00000  Uiso   1.00
O360   O     0.84778   0.12328   0.17416   0.00000  Uiso   1.00
O361   O     0.84956   0.98450   0.88308   0.00000  Uiso   1.00
O362   O     0.39258   0.55045   0.06171   0.00000  Uiso   1.00
N363   N     0.75216   0.10089   0.13242   0.00000  Uiso   1.00
N364   N     0.75345   0.00200   0.92499   0.00000  Uiso   1.00
N365   N     0.42780   0.69269   0.05227   0.00000  Uiso   1.00
N366   N     0.85647   0.00930   0.13861   0.00000  Uiso   1.00
N367   N     0.85776   0.91042   0.93118   0.00000  Uiso   1.00
N368   N     0.53211   0.60111   0.05846   0.00000  Uiso   1.00
C369   C     0.43992   0.86472   0.46397   0.00000  Uiso   1.00
C370   C     0.46189   0.80702   0.43589   0.00000  Uiso   1.00
C371   C     0.53139   0.81661   0.41573   0.00000  Uiso   1.00
C372   C     0.54033   0.75714   0.39145   0.00000  Uiso   1.00
C373   C     0.58337   0.67766   0.34846   0.00000  Uiso   1.00
C374   C     0.43465   0.80666   0.49306   0.00000  Uiso   1.00
C375   C     0.48123   0.81595   0.52097   0.00000  Uiso   1.00
C376   C     0.46723   0.75617   0.54481   0.00000  Uiso   1.00
C377   C     0.46794   0.67617   0.59058   0.00000  Uiso   1.00
C378   C     0.34941   0.89641   0.45797   0.00000  Uiso   1.00
C379   C     0.32431   0.98116   0.45639   0.00000  Uiso   1.00
C380   C     0.23854   0.99694   0.45070   0.00000  Uiso   1.00
C381   C     0.10690   0.05629   0.44200   0.00000  Uiso   1.00
C382   C     0.33221   0.74205   0.45669   0.00000  Uiso   1.00
C383   C     0.40339   0.74040   0.43194   0.00000  Uiso   1.00
C384   C     0.41223   0.68090   0.40768   0.00000  Uiso   1.00
C385   C     0.48173   0.69039   0.38748   0.00000  Uiso   1.00
C386   C     0.37615   0.74003   0.48910   0.00000  Uiso   1.00
C387   C     0.36207   0.68023   0.51291   0.00000  Uiso   1.00
C388   C     0.40863   0.68942   0.54085   0.00000  Uiso   1.00
C389   C     0.29091   0.82978   0.45402   0.00000  Uiso   1.00
C390   C     0.20516   0.84544   0.44833   0.00000  Uiso   1.00
C391   C     0.17994   0.93020   0.44674   0.00000  Uiso   1.00
H392   H     0.48546   0.91659   0.46705   0.00000  Uiso   1.00
H393   H     0.57665   0.86817   0.41880   0.00000  Uiso   1.00
H394   H     0.52649   0.86752   0.52402   0.00000  Uiso   1.00
H395   H     0.36960   0.03270   0.45945   0.00000  Uiso   1.00
H396   H     0.65197   0.78510   0.36357   0.00000  Uiso   1.00
H397   H     0.54619   0.78373   0.58544   0.00000  Uiso   1.00
H398   H     0.21535   0.13205   0.44929   0.00000  Uiso   1.00
H399   H     0.28667   0.69018   0.45361   0.00000  Uiso   1.00
H400   H     0.36695   0.62934   0.40462   0.00000  Uiso   1.00
H401   H     0.31679   0.62869   0.50984   0.00000  Uiso   1.00
H402   H     0.15990   0.79387   0.44528   0.00000  Uiso   1.00
H403   H     0.48177   0.59125   0.35206   0.00000  Uiso   1.00
H404   H     0.37599   0.58989   0.57393   0.00000  Uiso   1.00
H405   H     0.04515   0.93820   0.43778   0.00000  Uiso   1.00
O406   O     0.62328   0.65222   0.32584   0.00000  Uiso   1.00
O407   O     0.48450   0.65044   0.61692   0.00000  Uiso   1.00
O408   O     0.05045   0.10742   0.43829   0.00000  Uiso   1.00
N409   N     0.60089   0.74784   0.36758   0.00000  Uiso   1.00
N410   N     0.50200   0.74655   0.57501   0.00000  Uiso   1.00
N411   N     0.19269   0.07220   0.44773   0.00000  Uiso   1.00
N412   N     0.50930   0.64353   0.36139   0.00000  Uiso   1.00
N413   N     0.41042   0.64224   0.56882   0.00000  Uiso   1.00
N414   N     0.10111   0.96789   0.44154   0.00000  Uiso   1.00
C415   C     0.93992   0.36472   0.96397   0.00000  Uiso   1.00
C416   C     0.96189   0.30702   0.93589   0.00000  Uiso   1.00
C417   C     0.03139   0.31661   0.91573   0.00000  Uiso   1.00
C418   C     0.04033   0.25714   0.89145   0.00000  Uiso   1.00
C419   C     0.08337   0.17766   0.84846   0.00000  Uiso   1.00
C420   C     0.93465   0.30666   0.99306   0.00000  Uiso   1.00
C421   C     0.98123   0.31595   0.02097   0.00000  Uiso   1.00
C422   C     0.96723   0.25617   0.04481   0.00000  Uiso   1.00
C423   C     0.96794   0.17617   0.09058   0.00000  Uiso   1.00
C424   C     0.84941   0.39641   0.95797   0.00000  Uiso   1.00
C425   C     0.82431   0.48116   0.95639   0.00000  Uiso   1.00
C426   C     0.73854   0.49694   0.95070   0.00000  Uiso   1.00
C427   C     0.60690   0.55629   0.94200   0.00000  Uiso   1.00
C428   C     0.83221   0.24205   0.95669   0.00000  Uiso   1.00
C429   C     0.90339   0.24040   0.93194   0.00000  Uiso   1.00
C430   C     0.91223   0.18090   0.90768   0.00000  Uiso   1.00
C431   C     0.98173   0.19039   0.88748   0.00000  Uiso   1.00
C432   C     0.87615   0.24003   0.98910   0.00000  Uiso   1.00
C433   C     0.86207   0.18023   0.01291   0.00000  Uiso   1.00
C434   C     0.90863   0.18942   0.04085   0.00000  Uiso   1.00
C435   C     0.79091   0.32978   0.95402   0.00000  Uiso   1.00
C436   C     0.70516   0.34544   0.94833   0.00000  Uiso   1.00
C437   C     0.67994   0.43020   0.94674   0.00000  Uiso   1.00
H438   H     0.98546   0.41659   0.96705   0.00000  Uiso   1.00
H439   H     0.07665   0.36817   0.91880   0.00000  Uiso   1.00
H440   H     0.02649   0.36752   0.02402   0.00000  Uiso   1.00
H441   H     0.86960   0.53270   0.95945   0.00000  Uiso   1.00
H442   H     0.15197   0.28510   0.86357   0.00000  Uiso   1.00
H443   H     0.04619   0.28373   0.08544   0.00000  Uiso   1.00
H444   H     0.71535   0.63205   0.94929   0.00000  Uiso   1.00
H445   H     0.78667   0.19018   0.95361   0.00000  Uiso   1.00
H446   H     0.86695   0.12934   0.90462   0.00000  Uiso   1.00
H447   H     0.81679   0.12869   0.00984   0.00000  Uiso   1.00
H448   H     0.65990   0.29387   0.94528   0.00000  Uiso   1.00
H449   H     0.98177   0.09125   0.85206   0.00000  Uiso   1.00
H450   H     0.87599   0.08989   0.07393   0.00000  Uiso   1.00
H451   H     0.54515   0.43820   0.93778   0.00000  Uiso   1.00
O452   O     0.12328   0.15222   0.82584   0.00000  Uiso   1.00
O453   O     0.98450   0.15044   0.11692   0.00000  Uiso   1.00
O454   O     0.55045   0.60742   0.93829   0.00000  Uiso   1.00
N455   N     0.10089   0.24784   0.86758   0.00000  Uiso   1.00
N456   N     0.00200   0.24655   0.07501   0.00000  Uiso   1.00
N457   N     0.69269   0.57220   0.94773   0.00000  Uiso   1.00
N458   N     0.00930   0.14353   0.86139   0.00000  Uiso   1.00
N459   N     0.91042   0.14224   0.06882   0.00000  Uiso   1.00
N460   N     0.60111   0.46789   0.94154   0.00000  Uiso   1.00
C461   C     0.06008   0.63528   0.96397   0.00000  Uiso   1.00
C462   C     0.03811   0.69298   0.93589   0.00000  Uiso   1.00
C463   C     0.96861   0.68339   0.91573   0.00000  Uiso   1.00
C464   C     0.95967   0.74286   0.89145   0.00000  Uiso   1.00
C465   C     0.91663   0.82234   0.84846   0.00000  Uiso   1.00
C466   C     0.06535   0.69334   0.99306   0.00000  Uiso   1.00
C467   C     0.01877   0.68405   0.02097   0.00000  Uiso   1.00
C468   C     0.03277   0.74383   0.04481   0.00000  Uiso   1.00
C469   C     0.03206   0.82383   0.09058   0.00000  Uiso   1.00
C470   C     0.15059   0.60359   0.95797   0.00000  Uiso   1.00
C471   C     0.17569   0.51884   0.95639   0.00000  Uiso   1.00
C472   C     0.26146   0.50306   0.95070   0.00000  Uiso   1.00
C473   C     0.39310   0.44371   0.94200   0.00000  Uiso   1.00
C474   C     0.16779   0.75795   0.95669   0.00000  Uiso   1.00
C475   C     0.09661   0.75960   0.93194   0.00000  Uiso   1.00
C476   C     0.08777   0.81910   0.90768   0.00000  Uiso   1.00
C477   C     0.01827   0.80961   0.88748   0.00000  Uiso   1.00
C478   C     0.12385   0.75997   0.98910   0.00000  Uiso   1.00
C479   C     0.13793   0.81977   0.01291   0.00000  Uiso   1.00
C480   C     0.09137   0.81058   0.04085   0.00000  Uiso   1.00
C481   C     0.20909   0.67022   0.95402   0.00000  Uiso   1.00
C482   C     0.29484   0.65456   0.94833   0.00000  Uiso   1.00
C483   C     0.32006   0.56980   0.94674   0.00000  Uiso   1.00
H484   H     0.01454   0.58341   0.96705   0.00000  Uiso   1.00
H485   H     0.92335   0.63183   0.91880   0.00000  Uiso   1.00
H486   H     0.97351   0.63248   0.02402   0.00000  Uiso   1.00
H487   H     0.13040   0.46730   0.95945   0.00000  Uiso   1.00
H488   H     0.84803   0.71490   0.86357   0.00000  Uiso   1.00
H489   H     0.95381   0.71627   0.08544   0.00000  Uiso   1.00
H490   H     0.28465   0.36795   0.94929   0.00000  Uiso   1.00
H491   H     0.21333   0.80982   0.95361   0.00000  Uiso   1.00
H492   H     0.13305   0.87066   0.90462   0.00000  Uiso   1.00
H493   H     0.18321   0.87131   0.00984   0.00000  Uiso   1.00
H494   H     0.34010   0.70613   0.94528   0.00000  Uiso   1.00
H495   H     0.01823   0.90875   0.85206   0.00000  Uiso   1.00
H496   H     0.12401   0.91011   0.07393   0.00000  Uiso   1.00
H497   H     0.45485   0.56180   0.93778   0.00000  Uiso   1.00
O498   O     0.87672   0.84778   0.82584   0.00000  Uiso   1.00
O499   O     0.01550   0.84956   0.11692   0.00000  Uiso   1.00
O500   O     0.44955   0.39258   0.93829   0.00000  Uiso   1.00
N501   N     0.89911   0.75216   0.86758   0.00000  Uiso   1.00
N502   N     0.99800   0.75345   0.07501   0.00000  Uiso   1.00
N503   N     0.30731   0.42780   0.94773   0.00000  Uiso   1.00
N504   N     0.99070   0.85647   0.86139   0.00000  Uiso   1.00
N505   N     0.08958   0.85776   0.06882   0.00000  Uiso   1.00
N506   N     0.39889   0.53211   0.94154   0.00000  Uiso   1.00
C507   C     0.56008   0.13528   0.46397   0.00000  Uiso   1.00
C508   C     0.53811   0.19298   0.43589   0.00000  Uiso   1.00
C509   C     0.46861   0.18339   0.41573   0.00000  Uiso   1.00
C510   C     0.45967   0.24286   0.39145   0.00000  Uiso   1.00
C511   C     0.41663   0.32234   0.34846   0.00000  Uiso   1.00
C512   C     0.56535   0.19334   0.49306   0.00000  Uiso   1.00
C513   C     0.51877   0.18405   0.52097   0.00000  Uiso   1.00
C514   C     0.53277   0.24383   0.54481   0.00000  Uiso   1.00
C515   C     0.53206   0.32383   0.59058   0.00000  Uiso   1.00
C516   C     0.65059   0.10359   0.45797   0.00000  Uiso   1.00
C517   C     0.67569   0.01884   0.45639   0.00000  Uiso   1.00
C518   C     0.76146   0.00306   0.45070   0.00000  Uiso   1.00
C519   C     0.89310   0.94371   0.44200   0.00000  Uiso   1.00
C520   C     0.66779   0.25795   0.45669   0.00000  Uiso   1.00
C521   C     0.59661   0.25960   0.43194   0.00000  Uiso   1.00
C522   C     0.58777   0.31910   0.40768   0.00000  Uiso   1.00
C523   C     0.51827   0.30961   0.38748   0.00000  Uiso   1.00
C524   C     0.62385   0.25997   0.48910   0.00000  Uiso   1.00
C525   C     0.63793   0.31977   0.51291   0.00000  Uiso   1.00
C526   C     0.59137   0.31058   0.54085   0.00000  Uiso   1.00
C527   C     0.70909   0.17022   0.45402   0.00000  Uiso   1.00
C528   C     0.79484   0.15456   0.44833   0.00000  Uiso   1.00
C529   C     0.82006   0.06980   0.44674   0.00000  Uiso   1.00
H530   H     0.51454   0.08341   0.46705   0.00000  Uiso   1.00
H531   H     0.42335   0.13183   0.41880   0.00000  Uiso   1.00
H532   H     0.47351   0.13248   0.52402   0.00000  Uiso   1.00
H533   H     0.63040   0.96730   0.45945   0.00000  Uiso   1.00
H534   H     0.34803   0.21490   0.36357   0.00000  Uiso   1.00
H535   H     0.45381   0.21627   0.58544   0.00000  Uiso   1.00
H536   H     0.78465   0.86795   0.44929   0.00000  Uiso   1.00
H537   H     0.71333   0.30982   0.45361   0.00000  Uiso   1.00
H538   H     0.63305   0.37066   0.40462   0.00000  Uiso   1.00
H539   H     0.68321   0.37131   0.50984   0.00000  Uiso   1.00
H540   H     0.84010   0.20613   0.44528   0.00000  Uiso   1.00
H541   H     0.51823   0.40875   0.35206   0.00000  Uiso   1.00
H542   H     0.62401   0.41011   0.57393   0.00000  Uiso   1.00
H543   H     0.95485   0.06180   0.43778   0.00000  Uiso   1.00
O544   O     0.37672   0.34778   0.32584   0.00000  Uiso   1.00
O545   O     0.51550   0.34956   0.61692   0.00000  Uiso   1.00
O546   O     0.94955   0.89258   0.43829   0.00000  Uiso   1.00
N547   N     0.39911   0.25216   0.36758   0.00000  Uiso   1.00
N548   N     0.49800   0.25345   0.57501   0.00000  Uiso   1.00
N549   N     0.80731   0.92780   0.44773   0.00000  Uiso   1.00
N550   N     0.49070   0.35647   0.36139   0.00000  Uiso   1.00
N551   N     0.58958   0.35776   0.56882   0.00000  Uiso   1.00
N552   N     0.89889   0.03211   0.44154   0.00000  Uiso   1.00
C553   C     0.63528   0.43992   0.21397   0.00000  Uiso   1.00
C554   C     0.69298   0.46189   0.18589   0.00000  Uiso   1.00
C555   C     0.68339   0.53139   0.16573   0.00000  Uiso   1.00
C556   C     0.74286   0.54033   0.14145   0.00000  Uiso   1.00
C557   C     0.82234   0.58337   0.09846   0.00000  Uiso   1.00
C558   C     0.69334   0.43465   0.24306   0.00000  Uiso   1.00
C559   C     0.68405   0.48123   0.27097   0.00000  Uiso   1.00
C560   C     0.74383   0.46723   0.29481   0.00000  Uiso   1.00
C561   C     0.82383   0.46794   0.34058   0.00000  Uiso   1.00
C562   C     0.60359   0.34941   0.20797   0.00000  Uiso   1.00
C563   C     0.51884   0.32431   0.20639   0.00000  Uiso   1.00
C564   C     0.50306   0.23854   0.20070   0.00000  Uiso   1.00
C565   C     0.44371   0.10690   0.19200   0.00000  Uiso   1.00
C566   C     0.75795   0.33221   0.20669   0.00000  Uiso   1.00
C567   C     0.75960   0.40339   0.18194   0.00000  Uiso   1.00
C568   C     0.81910   0.41223   0.15768   0.00000  Uiso   1.00
C569   C     0.80961   0.48173   0.13748   0.00000  Uiso   1.00
C570   C     0.75997   0.37615   0.23910   0.00000  Uiso   1.00
C571   C     0.81977   0.36207   0.26291   0.00000  Uiso   1.00
C572   C     0.81058   0.40863   0.29085   0.00000  Uiso   1.00
C573   C     0.67022   0.29091   0.20402   0.00000  Uiso   1.00
C574   C     0.65456   0.20516   0.19833   0.00000  Uiso   1.00
C575   C     0.56980   0.17994   0.19674   0.00000  Uiso   1.00
H576   H     0.58341   0.48546   0.21705   0.00000  Uiso   1.00
H577   H     0.63183   0.57665   0.16880   0.00000  Uiso   1.00
H578   H     0.63248   0.52649   0.27402   0.00000  Uiso   1.00
H579   H     0.46730   0.36960   0.20945   0.00000  Uiso   1.00
H580   H     0.71490   0.65197   0.11357   0.00000  Uiso   1.00
H581   H     0.71627   0.54619   0.33544   0.00000  Uiso   1.00
H582   H     0.36795   0.21535   0.19929   0.00000  Uiso   1.00
H583   H     0.80982   0.28667   0.20361   0.00000  Uiso   1.00
H584   H     0.87066   0.36695   0.15462   0.00000  Uiso   1.00
H585   H     0.87131   0.31679   0.25984   0.00000  Uiso   1.00
H586   H     0.70613   0.15990   0.19528   0.00000  Uiso   1.00
H587   H     0.90875   0.48177   0.10206   0.00000  Uiso   1.00
H588   H     0.91011   0.37599   0.32393   0.00000  Uiso   1.00
H589   H     0.56180   0.04515   0.18778   0.00000  Uiso   1.00
O590   O     0.84778   0.62328   0.07584   0.00000  Uiso   1.00
O591   O     0.84956   0.48450   0.36692   0.00000  Uiso   1.00
O592   O     0.39258   0.05045   0.18829   0.00000  Uiso   1.00
N593   N     0.75216   0.60089   0.11758   0.00000  Uiso   1.00
N594   N     0.75345   0.50200   0.32501   0.00000  Uiso   1.00
N595   N     0.42780   0.19269   0.19773   0.00000  Uiso   1.00
N596   N     0.85647   0.50930   0.11139   0.00000  Uiso   1.00
N597   N     0.85776   0.41042   0.31882   0.00000  Uiso   1.00
N598   N     0.53211   0.10111   0.19154   0.00000  Uiso   1.00
C599   C     0.13528   0.93992   0.71397   0.00000  Uiso   1.00
C600   C     0.19298   0.96189   0.68589   0.00000  Uiso   1.00
C601   C     0.18339   0.03139   0.66573   0.00000  Uiso   1.00
C602   C     0.24286   0.04033   0.64145   0.00000  Uiso   1.00
C603   C     0.32234   0.08337   0.59846   0.00000  Uiso   1.00
C604   C     0.19334   0.93465   0.74306   0.00000  Uiso   1.00
C605   C     0.18405   0.98123   0.77097   0.00000  Uiso   1.00
C606   C     0.24383   0.96723   0.79481   0.00000  Uiso   1.00
C607   C     0.32383   0.96794   0.84058   0.00000  Uiso   1.00
C608   C     0.10359   0.84941   0.70797   0.00000  Uiso   1.00
C609   C     0.01884   0.82431   0.70639   0.00000  Uiso   1.00
C610   C     0.00306   0.73854   0.70070   0.00000  Uiso   1.00
C611   C     0.94371   0.60690   0.69200   0.00000  Uiso   1.00
C612   C     0.25795   0.83221   0.70669   0.00000  Uiso   1.00
C613   C     0.25960   0.90339   0.68194   0.00000  Uiso   1.00
C614   C     0.31910   0.91223   0.65768   0.00000  Uiso   1.00
C615   C     0.30961   0.98173   0.63748   0.00000  Uiso   1.00
C616   C     0.25997   0.87615   0.73910   0.00000  Uiso   1.00
C617   C     0.31977   0.86207   0.76291   0.00000  Uiso   1.00
C618   C     0.31058   0.90863   0.79085   0.00000  Uiso   1.00
C619   C     0.17022   0.79091   0.70402   0.00000  Uiso   1.00
C620   C     0.15456   0.70516   0.69833   0.00000  Uiso   1.00
C621   C     0.06980   0.67994   0.69674   0.00000  Uiso   1.00
H622   H     0.08341   0.98546   0.71705   0.00000  Uiso   1.00
H623   H     0.13183   0.07665   0.66880   0.00000  Uiso   1.00
H624   H     0.13248   0.02649   0.77402   0.00000  Uiso   1.00
H625   H     0.96730   0.86960   0.70945   0.00000  Uiso   1.00
H626   H     0.21490   0.15197   0.61357   0.00000  Uiso   1.00
H627   H     0.21627   0.04619   0.83544   0.00000  Uiso   1.00
H628   H     0.86795   0.71535   0.69929   0.00000  Uiso   1.00
H629   H     0.30982   0.78667   0.70361   0.00000  Uiso   1.00
H630   H     0.37066   0.86695   0.65462   0.00000  Uiso   1.00
H631   H     0.37131   0.81679   0.75984   0.00000  Uiso   1.00
H632   H     0.20613   0.65990   0.69528   0.00000  Uiso   1.00
H633   H     0.40875   0.98177   0.60206   0.00000  Uiso   1.00
H634   H     0.41011   0.87599   0.82393   0.00000  Uiso   1.00
H635   H     0.06180   0.54515   0.68778   0.00000  Uiso   1.00
O636   O     0.34778   0.12328   0.57584   0.00000  Uiso   1.00
O637   O     0.34956   0.98450   0.86692   0.00000  Uiso   1.00
O638   O     0.89258   0.55045   0.68829   0.00000  Uiso   1.00
N639   N     0.25216   0.10089   0.61758   0.00000  Uiso   1.00
N640   N     0.25345   0.00200   0.82501   0.00000  Uiso   1.00
N641   N     0.92780   0.69269   0.69773   0.00000  Uiso   1.00
N642   N     0.35647   0.00930   0.61139   0.00000  Uiso   1.00
N643   N     0.35776   0.91042   0.81882   0.00000  Uiso   1.00
N644   N     0.03211   0.60111   0.69154   0.00000  Uiso   1.00
C645   C     0.86472   0.06008   0.71397   0.00000  Uiso   1.00
C646   C     0.80702   0.03811   0.68589   0.00000  Uiso   1.00
C647   C     0.81661   0.96861   0.66573   0.00000  Uiso   1.00
C648   C     0.75714   0.95967   0.64145   0.00000  Uiso   1.00
C649   C     0.67766   0.91663   0.59846   0.00000  Uiso   1.00
C650   C     0.80666   0.06535   0.74306   0.00000  Uiso   1.00
C651   C     0.81595   0.01877   0.77097   0.00000  Uiso   1.00
C652   C     0.75617   0.03277   0.79481   0.00000  Uiso   1.00
C653   C     0.67617   0.03206   0.84058   0.00000  Uiso   1.00
C654   C     0.89641   0.15059   0.70797   0.00000  Uiso   1.00
C655   C     0.98116   0.17569   0.70639   0.00000  Uiso   1.00
C656   C     0.99694   0.26146   0.70070   0.00000  Uiso   1.00
C657   C     0.05629   0.39310   0.69200   0.00000  Uiso   1.00
C658   C     0.74205   0.16779   0.70669   0.00000  Uiso   1.00
C659   C     0.74040   0.09661   0.68194   0.00000  Uiso   1.00
C660   C     0.68090   0.08777   0.65768   0.00000  Uiso   1.00
C661   C     0.69039   0.01827   0.63748   0.00000  Uiso   1.00
C662   C     0.74003   0.12385   0.73910   0.00000  Uiso   1.00
C663   C     0.68023   0.13793   0.76291   0.00000  Uiso   1.00
C664   C     0.68942   0.09137   0.79085   0.00000  Uiso   1.00
C665   C     0.82978   0.20909   0.70402   0.00000  Uiso   1.00
C666   C     0.84544   0.29484   0.69833   0.00000  Uiso   1.00
C667   C     0.93020   0.32006   0.69674   0.00000  Uiso   1.00
H668   H     0.91659   0.01454   0.71705   0.00000  Uiso   1.00
H669   H     0.86817   0.92335   0.66880   0.00000  Uiso   1.00
H670   H     0.86752   0.97351   0.77402   0.00000  Uiso   1.00
H671   H     0.03270   0.13040   0.70945   0.00000  Uiso   1.00
H672   H     0.78510   0.84803   0.61357   0.00000  Uiso   1.00
H673   H     0.78373   0.95381   0.83544   0.00000  Uiso   1.00
H674   H     0.13205   0.28465   0.69929   0.00000  Uiso   1.00
H675   H     0.69018   0.21333   0.70361   0.00000  Uiso   1.00
H676   H     0.62934   0.13305   0.65462   0.00000  Uiso   1.00
H677   H     0.62869   0.18321   0.75984   0.00000  Uiso   1.00
H678   H     0.79387   0.34010   0.69528   0.00000  Uiso   1.00
H679   H     0.59125   0.01823   0.60206   0.00000  Uiso   1.00
H680   H     0.58989   0.12401   0.82393   0.00000  Uiso   1.00
H681   H     0.93820   0.45485   0.68778   0.00000  Uiso   1.00
O682   O     0.65222   0.87672   0.57584   0.00000  Uiso   1.00
O683   O     0.65044   0.01550   0.86692   0.00000  Uiso   1.00
O684   O     0.10742   0.44955   0.68829   0.00000  Uiso   1.00
N685   N     0.74784   0.89911   0.61758   0.00000  Uiso   1.00
N686   N     0.74655   0.99800   0.82501   0.00000  Uiso   1.00
N687   N     0.07220   0.30731   0.69773   0.00000  Uiso   1.00
N688   N     0.64353   0.99070   0.61139   0.00000  Uiso   1.00
N689   N     0.64224   0.08958   0.81882   0.00000  Uiso   1.00
N690   N     0.96789   0.39889   0.69154   0.00000  Uiso   1.00
C691   C     0.36472   0.56008   0.21397   0.00000  Uiso   1.00
C692   C     0.30702   0.53811   0.18589   0.00000  Uiso   1.00
C693   C     0.31661   0.46861   0.16573   0.00000  Uiso   1.00
C694   C     0.25714   0.45967   0.14145   0.00000  Uiso   1.00
C695   C     0.17766   0.41663   0.09846   0.00000  Uiso   1.00
C696   C     0.30666   0.56535   0.24306   0.00000  Uiso   1.00
C697   C     0.31595   0.51877   0.27097   0.00000  Uiso   1.00
C698   C     0.25617   0.53277   0.29481   0.00000  Uiso   1.00
C699   C     0.17617   0.53206   0.34058   0.00000  Uiso   1.00
C700   C     0.39641   0.65059   0.20797   0.00000  Uiso   1.00
C701   C     0.48116   0.67569   0.20639   0.00000  Uiso   1.00
C702   C     0.49694   0.76146   0.20070   0.00000  Uiso   1.00
C703   C     0.55629   0.89310   0.19200   0.00000  Uiso   1.00
C704   C     0.24205   0.66779   0.20669   0.00000  Uiso   1.00
C705   C     0.24040   0.59661   0.18194   0.00000  Uiso   1.00
C706   C     0.18090   0.58777   0.15768   0.00000  Uiso   1.00
C707   C     0.19039   0.51827   0.13748   0.00000  Uiso   1.00
C708   C     0.24003   0.62385   0.23910   0.00000  Uiso   1.00
C709   C     0.18023   0.63793   0.26291   0.00000  Uiso   1.00
C710   C     0.18942   0.59137   0.29085   0.00000  Uiso   1.00
C711   C     0.32978   0.70909   0.20402   0.00000  Uiso   1.00
C712   C     0.34544   0.79484   0.19833   0.00000  Uiso   1.00
C713   C     0.43020   0.82006   0.19674   0.00000  Uiso   1.00
H714   H     0.41659   0.51454   0.21705   0.00000  Uiso   1.00
H715   H     0.36817   0.42335   0.16880   0.00000  Uiso   1.00
H716   H     0.36752   0.47351   0.27402   0.00000  Uiso   1.00
H717   H     0.53270   0.63040   0.20945   0.00000  Uiso   1.00
H718   H     0.28510   0.34803   0.11357   0.00000  Uiso   1.00
H719   H     0.28373   0.45381   0.33544   0.00000  Uiso   1.00
H720   H     0.63205   0.78465   0.19929   0.00000  Uiso   1.00
H721   H     0.19018   0.71333   0.20361   0.00000  Uiso   1.00
H722   H     0.12934   0.63305   0.15462   0.00000  Uiso   1.00
H723   H     0.12869   0.68321   0.25984   0.00000  Uiso   1.00
H724   H     0.29387   0.84010   0.19528   0.00000  Uiso   1.00
H725   H     0.09125   0.51823   0.10206   0.00000  Uiso   1.00
H726   H     0.08989   0.62401   0.32393   0.00000  Uiso   1.00
H727   H     0.43820   0.95485   0.18778   0.00000  Uiso   1.00
O728   O     0.15222   0.37672   0.07584   0.00000  Uiso   1.00
O729   O     0.15044   0.51550   0.36692   0.00000  Uiso   1.00
O730   O     0.60742   0.94955   0.18829   0.00000  Uiso   1.00
N731   N     0.24784   0.39911   0.11758   0.00000  Uiso   1.00
N732   N     0.24655   0.49800   0.32501   0.00000  Uiso   1.00
N733   N     0.57220   0.80731   0.19773   0.00000  Uiso   1.00
N734   N     0.14353   0.49070   0.11139   0.00000  Uiso   1.00
N735   N     0.14224   0.58958   0.31882   0.00000  Uiso   1.00
N736   N     0.46789   0.89889   0.19154   0.00000  Uiso   1.00
