data_job_03879
_audit_creation_date              2018-12-19
_audit_creation_method            'Materials Studio'
_symmetry_space_group_name_H-M    'P1'
_symmetry_Int_Tables_number       1
_symmetry_cell_setting            triclinic
loop_
_symmetry_equiv_pos_as_xyz
  x,y,z
_cell_length_a                    21.1727
_cell_length_b                    21.1727
_cell_length_c                    34.3723
_cell_angle_alpha                 90.0000
_cell_angle_beta                  90.0000
_cell_angle_gamma                 90.0000
loop_
_atom_site_label
_atom_site_type_symbol
_atom_site_fract_x
_atom_site_fract_y
_atom_site_fract_z
_atom_site_U_iso_or_equiv
_atom_site_adp_type
_atom_site_occupancy
C1     C     0.61079   0.66240   0.32867   0.00000  Uiso   1.00
C2     C     0.56873   0.64856   0.29368   0.00000  Uiso   1.00
C3     C     0.51709   0.68419   0.28199   0.00000  Uiso   1.00
C4     C     0.48472   0.66367   0.24921   0.00000  Uiso   1.00
C5     C     0.41656   0.65041   0.19798   0.00000  Uiso   1.00
C6     C     0.60924   0.60308   0.35382   0.00000  Uiso   1.00
C7     C     0.59168   0.60047   0.39268   0.00000  Uiso   1.00
C8     C     0.59343   0.54166   0.41053   0.00000  Uiso   1.00
C9     C     0.58822   0.45780   0.45266   0.00000  Uiso   1.00
C10    C     0.67792   0.66717   0.31288   0.00000  Uiso   1.00
C11    C     0.71811   0.71844   0.31734   0.00000  Uiso   1.00
C12    C     0.77769   0.71359   0.30073   0.00000  Uiso   1.00
C13    C     0.87910   0.72924   0.27932   0.00000  Uiso   1.00
C14    C     0.64514   0.56261   0.29125   0.00000  Uiso   1.00
C15    C     0.58738   0.59436   0.27336   0.00000  Uiso   1.00
C16    C     0.55509   0.57378   0.24059   0.00000  Uiso   1.00
C17    C     0.50342   0.60937   0.22885   0.00000  Uiso   1.00
C18    C     0.62790   0.54888   0.33349   0.00000  Uiso   1.00
C19    C     0.62968   0.49006   0.35128   0.00000  Uiso   1.00
C20    C     0.61212   0.48736   0.39017   0.00000  Uiso   1.00
C21    C     0.69658   0.61297   0.29256   0.00000  Uiso   1.00
C22    C     0.75611   0.60803   0.27594   0.00000  Uiso   1.00
C23    C     0.79638   0.65929   0.28037   0.00000  Uiso   1.00
H24    H     0.59626   0.70460   0.34450   0.00000  Uiso   1.00
H25    H     0.50266   0.72613   0.29773   0.00000  Uiso   1.00
H26    H     0.57725   0.64242   0.40841   0.00000  Uiso   1.00
H27    H     0.70366   0.76038   0.33308   0.00000  Uiso   1.00
H28    H     0.40711   0.72609   0.23692   0.00000  Uiso   1.00
H29    H     0.56440   0.54959   0.47029   0.00000  Uiso   1.00
H30    H     0.83095   0.79832   0.31144   0.00000  Uiso   1.00
H31    H     0.65966   0.52040   0.27543   0.00000  Uiso   1.00
H32    H     0.56954   0.53183   0.22487   0.00000  Uiso   1.00
H33    H     0.64413   0.44812   0.33554   0.00000  Uiso   1.00
H34    H     0.77053   0.56608   0.26021   0.00000  Uiso   1.00
H35    H     0.46138   0.56839   0.17778   0.00000  Uiso   1.00
H36    H     0.61868   0.39189   0.41116   0.00000  Uiso   1.00
H37    H     0.88523   0.64062   0.25231   0.00000  Uiso   1.00
O38    O     0.37381   0.65807   0.17534   0.00000  Uiso   1.00
O39    O     0.58018   0.42651   0.48152   0.00000  Uiso   1.00
O40    O     0.92989   0.75284   0.27311   0.00000  Uiso   1.00
N41    N     0.43226   0.68741   0.22994   0.00000  Uiso   1.00
N42    N     0.57930   0.52240   0.44812   0.00000  Uiso   1.00
N43    N     0.82852   0.75493   0.29962   0.00000  Uiso   1.00
N44    N     0.46146   0.60255   0.19811   0.00000  Uiso   1.00
N45    N     0.60851   0.43754   0.41630   0.00000  Uiso   1.00
N46    N     0.85772   0.67008   0.26780   0.00000  Uiso   1.00
C47    C     0.11079   0.16240   0.82867   0.00000  Uiso   1.00
C48    C     0.06873   0.14856   0.79368   0.00000  Uiso   1.00
C49    C     0.01709   0.18419   0.78199   0.00000  Uiso   1.00
C50    C     0.98472   0.16367   0.74921   0.00000  Uiso   1.00
C51    C     0.91656   0.15041   0.69798   0.00000  Uiso   1.00
C52    C     0.10924   0.10308   0.85382   0.00000  Uiso   1.00
C53    C     0.09168   0.10047   0.89268   0.00000  Uiso   1.00
C54    C     0.09343   0.04166   0.91053   0.00000  Uiso   1.00
C55    C     0.08822   0.95780   0.95266   0.00000  Uiso   1.00
C56    C     0.17792   0.16717   0.81288   0.00000  Uiso   1.00
C57    C     0.21811   0.21844   0.81734   0.00000  Uiso   1.00
C58    C     0.27769   0.21359   0.80073   0.00000  Uiso   1.00
C59    C     0.37910   0.22924   0.77932   0.00000  Uiso   1.00
C60    C     0.14514   0.06261   0.79125   0.00000  Uiso   1.00
C61    C     0.08738   0.09436   0.77336   0.00000  Uiso   1.00
C62    C     0.05509   0.07378   0.74059   0.00000  Uiso   1.00
C63    C     0.00342   0.10937   0.72885   0.00000  Uiso   1.00
C64    C     0.12790   0.04888   0.83349   0.00000  Uiso   1.00
C65    C     0.12968   0.99006   0.85128   0.00000  Uiso   1.00
C66    C     0.11212   0.98736   0.89017   0.00000  Uiso   1.00
C67    C     0.19658   0.11297   0.79256   0.00000  Uiso   1.00
C68    C     0.25611   0.10803   0.77594   0.00000  Uiso   1.00
C69    C     0.29638   0.15929   0.78037   0.00000  Uiso   1.00
H70    H     0.09626   0.20460   0.84450   0.00000  Uiso   1.00
H71    H     0.00266   0.22613   0.79773   0.00000  Uiso   1.00
H72    H     0.07725   0.14242   0.90841   0.00000  Uiso   1.00
H73    H     0.20366   0.26038   0.83308   0.00000  Uiso   1.00
H74    H     0.90711   0.22609   0.73692   0.00000  Uiso   1.00
H75    H     0.06440   0.04959   0.97029   0.00000  Uiso   1.00
H76    H     0.33095   0.29832   0.81144   0.00000  Uiso   1.00
H77    H     0.15966   0.02040   0.77543   0.00000  Uiso   1.00
H78    H     0.06954   0.03183   0.72487   0.00000  Uiso   1.00
H79    H     0.14413   0.94812   0.83554   0.00000  Uiso   1.00
H80    H     0.27053   0.06608   0.76021   0.00000  Uiso   1.00
H81    H     0.96138   0.06839   0.67778   0.00000  Uiso   1.00
H82    H     0.11868   0.89189   0.91116   0.00000  Uiso   1.00
H83    H     0.38523   0.14062   0.75231   0.00000  Uiso   1.00
O84    O     0.87381   0.15807   0.67534   0.00000  Uiso   1.00
O85    O     0.08018   0.92651   0.98152   0.00000  Uiso   1.00
O86    O     0.42989   0.25284   0.77311   0.00000  Uiso   1.00
N87    N     0.93226   0.18741   0.72994   0.00000  Uiso   1.00
N88    N     0.07930   0.02240   0.94812   0.00000  Uiso   1.00
N89    N     0.32852   0.25493   0.79962   0.00000  Uiso   1.00
N90    N     0.96146   0.10255   0.69811   0.00000  Uiso   1.00
N91    N     0.10851   0.93754   0.91630   0.00000  Uiso   1.00
N92    N     0.35772   0.17008   0.76780   0.00000  Uiso   1.00
C93    C     0.38921   0.33760   0.32867   0.00000  Uiso   1.00
C94    C     0.43127   0.35144   0.29368   0.00000  Uiso   1.00
C95    C     0.48291   0.31581   0.28199   0.00000  Uiso   1.00
C96    C     0.51528   0.33633   0.24921   0.00000  Uiso   1.00
C97    C     0.58344   0.34959   0.19798   0.00000  Uiso   1.00
C98    C     0.39076   0.39692   0.35382   0.00000  Uiso   1.00
C99    C     0.40832   0.39953   0.39268   0.00000  Uiso   1.00
C100   C     0.40657   0.45834   0.41053   0.00000  Uiso   1.00
C101   C     0.41178   0.54220   0.45266   0.00000  Uiso   1.00
C102   C     0.32208   0.33283   0.31288   0.00000  Uiso   1.00
C103   C     0.28189   0.28156   0.31734   0.00000  Uiso   1.00
C104   C     0.22231   0.28641   0.30073   0.00000  Uiso   1.00
C105   C     0.12090   0.27076   0.27932   0.00000  Uiso   1.00
C106   C     0.35486   0.43739   0.29125   0.00000  Uiso   1.00
C107   C     0.41262   0.40564   0.27336   0.00000  Uiso   1.00
C108   C     0.44491   0.42622   0.24059   0.00000  Uiso   1.00
C109   C     0.49658   0.39063   0.22885   0.00000  Uiso   1.00
C110   C     0.37210   0.45112   0.33349   0.00000  Uiso   1.00
C111   C     0.37032   0.50994   0.35128   0.00000  Uiso   1.00
C112   C     0.38788   0.51264   0.39017   0.00000  Uiso   1.00
C113   C     0.30342   0.38703   0.29256   0.00000  Uiso   1.00
C114   C     0.24389   0.39197   0.27594   0.00000  Uiso   1.00
C115   C     0.20362   0.34071   0.28037   0.00000  Uiso   1.00
H116   H     0.40374   0.29540   0.34450   0.00000  Uiso   1.00
H117   H     0.49734   0.27387   0.29773   0.00000  Uiso   1.00
H118   H     0.42275   0.35758   0.40841   0.00000  Uiso   1.00
H119   H     0.29634   0.23962   0.33308   0.00000  Uiso   1.00
H120   H     0.59289   0.27391   0.23692   0.00000  Uiso   1.00
H121   H     0.43560   0.45041   0.47029   0.00000  Uiso   1.00
H122   H     0.16905   0.20168   0.31144   0.00000  Uiso   1.00
H123   H     0.34034   0.47960   0.27543   0.00000  Uiso   1.00
H124   H     0.43046   0.46817   0.22487   0.00000  Uiso   1.00
H125   H     0.35587   0.55188   0.33554   0.00000  Uiso   1.00
H126   H     0.22947   0.43392   0.26021   0.00000  Uiso   1.00
H127   H     0.53862   0.43161   0.17778   0.00000  Uiso   1.00
H128   H     0.38132   0.60811   0.41116   0.00000  Uiso   1.00
H129   H     0.11477   0.35938   0.25231   0.00000  Uiso   1.00
O130   O     0.62619   0.34193   0.17534   0.00000  Uiso   1.00
O131   O     0.41982   0.57349   0.48152   0.00000  Uiso   1.00
O132   O     0.07011   0.24716   0.27311   0.00000  Uiso   1.00
N133   N     0.56774   0.31259   0.22994   0.00000  Uiso   1.00
N134   N     0.42070   0.47760   0.44812   0.00000  Uiso   1.00
N135   N     0.17148   0.24507   0.29962   0.00000  Uiso   1.00
N136   N     0.53854   0.39745   0.19811   0.00000  Uiso   1.00
N137   N     0.39149   0.56246   0.41630   0.00000  Uiso   1.00
N138   N     0.14228   0.32992   0.26780   0.00000  Uiso   1.00
C139   C     0.88921   0.83760   0.82867   0.00000  Uiso   1.00
C140   C     0.93127   0.85144   0.79368   0.00000  Uiso   1.00
C141   C     0.98291   0.81581   0.78199   0.00000  Uiso   1.00
C142   C     0.01528   0.83633   0.74921   0.00000  Uiso   1.00
C143   C     0.08344   0.84959   0.69798   0.00000  Uiso   1.00
C144   C     0.89076   0.89692   0.85382   0.00000  Uiso   1.00
C145   C     0.90832   0.89953   0.89268   0.00000  Uiso   1.00
C146   C     0.90657   0.95834   0.91053   0.00000  Uiso   1.00
C147   C     0.91178   0.04220   0.95266   0.00000  Uiso   1.00
C148   C     0.82208   0.83283   0.81288   0.00000  Uiso   1.00
C149   C     0.78189   0.78156   0.81734   0.00000  Uiso   1.00
C150   C     0.72231   0.78641   0.80073   0.00000  Uiso   1.00
C151   C     0.62090   0.77076   0.77932   0.00000  Uiso   1.00
C152   C     0.85486   0.93739   0.79125   0.00000  Uiso   1.00
C153   C     0.91262   0.90564   0.77336   0.00000  Uiso   1.00
C154   C     0.94491   0.92622   0.74059   0.00000  Uiso   1.00
C155   C     0.99658   0.89063   0.72885   0.00000  Uiso   1.00
C156   C     0.87210   0.95112   0.83349   0.00000  Uiso   1.00
C157   C     0.87032   0.00994   0.85128   0.00000  Uiso   1.00
C158   C     0.88788   0.01264   0.89017   0.00000  Uiso   1.00
C159   C     0.80342   0.88703   0.79256   0.00000  Uiso   1.00
C160   C     0.74389   0.89197   0.77594   0.00000  Uiso   1.00
C161   C     0.70362   0.84071   0.78037   0.00000  Uiso   1.00
H162   H     0.90374   0.79540   0.84450   0.00000  Uiso   1.00
H163   H     0.99734   0.77387   0.79773   0.00000  Uiso   1.00
H164   H     0.92275   0.85758   0.90841   0.00000  Uiso   1.00
H165   H     0.79634   0.73962   0.83308   0.00000  Uiso   1.00
H166   H     0.09289   0.77391   0.73692   0.00000  Uiso   1.00
H167   H     0.93560   0.95041   0.97029   0.00000  Uiso   1.00
H168   H     0.66905   0.70168   0.81144   0.00000  Uiso   1.00
H169   H     0.84034   0.97960   0.77543   0.00000  Uiso   1.00
H170   H     0.93046   0.96817   0.72487   0.00000  Uiso   1.00
H171   H     0.85587   0.05188   0.83554   0.00000  Uiso   1.00
H172   H     0.72947   0.93392   0.76021   0.00000  Uiso   1.00
H173   H     0.03862   0.93161   0.67778   0.00000  Uiso   1.00
H174   H     0.88132   0.10811   0.91116   0.00000  Uiso   1.00
H175   H     0.61477   0.85938   0.75231   0.00000  Uiso   1.00
O176   O     0.12619   0.84193   0.67534   0.00000  Uiso   1.00
O177   O     0.91982   0.07349   0.98152   0.00000  Uiso   1.00
O178   O     0.57011   0.74716   0.77311   0.00000  Uiso   1.00
N179   N     0.06774   0.81259   0.72994   0.00000  Uiso   1.00
N180   N     0.92070   0.97760   0.94812   0.00000  Uiso   1.00
N181   N     0.67148   0.74507   0.79962   0.00000  Uiso   1.00
N182   N     0.03854   0.89745   0.69811   0.00000  Uiso   1.00
N183   N     0.89149   0.06246   0.91630   0.00000  Uiso   1.00
N184   N     0.64228   0.82992   0.76780   0.00000  Uiso   1.00
C185   C     0.66240   0.38921   0.67133   0.00000  Uiso   1.00
C186   C     0.64856   0.43127   0.70632   0.00000  Uiso   1.00
C187   C     0.68419   0.48291   0.71801   0.00000  Uiso   1.00
C188   C     0.66367   0.51528   0.75079   0.00000  Uiso   1.00
C189   C     0.65041   0.58344   0.80202   0.00000  Uiso   1.00
C190   C     0.60308   0.39076   0.64618   0.00000  Uiso   1.00
C191   C     0.60047   0.40832   0.60732   0.00000  Uiso   1.00
C192   C     0.54166   0.40657   0.58947   0.00000  Uiso   1.00
C193   C     0.45780   0.41178   0.54734   0.00000  Uiso   1.00
C194   C     0.66717   0.32208   0.68712   0.00000  Uiso   1.00
C195   C     0.71844   0.28189   0.68266   0.00000  Uiso   1.00
C196   C     0.71359   0.22231   0.69927   0.00000  Uiso   1.00
C197   C     0.72924   0.12090   0.72068   0.00000  Uiso   1.00
C198   C     0.56261   0.35486   0.70875   0.00000  Uiso   1.00
C199   C     0.59436   0.41262   0.72664   0.00000  Uiso   1.00
C200   C     0.57378   0.44491   0.75941   0.00000  Uiso   1.00
C201   C     0.60937   0.49658   0.77115   0.00000  Uiso   1.00
C202   C     0.54888   0.37210   0.66651   0.00000  Uiso   1.00
C203   C     0.49006   0.37032   0.64872   0.00000  Uiso   1.00
C204   C     0.48736   0.38788   0.60983   0.00000  Uiso   1.00
C205   C     0.61297   0.30342   0.70744   0.00000  Uiso   1.00
C206   C     0.60803   0.24389   0.72406   0.00000  Uiso   1.00
C207   C     0.65929   0.20362   0.71963   0.00000  Uiso   1.00
H208   H     0.70460   0.40374   0.65550   0.00000  Uiso   1.00
H209   H     0.72613   0.49734   0.70227   0.00000  Uiso   1.00
H210   H     0.64242   0.42275   0.59159   0.00000  Uiso   1.00
H211   H     0.76038   0.29634   0.66692   0.00000  Uiso   1.00
H212   H     0.72609   0.59289   0.76308   0.00000  Uiso   1.00
H213   H     0.54959   0.43560   0.52971   0.00000  Uiso   1.00
H214   H     0.79832   0.16905   0.68856   0.00000  Uiso   1.00
H215   H     0.52040   0.34034   0.72457   0.00000  Uiso   1.00
H216   H     0.53183   0.43046   0.77513   0.00000  Uiso   1.00
H217   H     0.44812   0.35587   0.66446   0.00000  Uiso   1.00
H218   H     0.56608   0.22947   0.73979   0.00000  Uiso   1.00
H219   H     0.56839   0.53862   0.82222   0.00000  Uiso   1.00
H220   H     0.39189   0.38132   0.58884   0.00000  Uiso   1.00
H221   H     0.64062   0.11477   0.74769   0.00000  Uiso   1.00
O222   O     0.65807   0.62619   0.82466   0.00000  Uiso   1.00
O223   O     0.42651   0.41982   0.51848   0.00000  Uiso   1.00
O224   O     0.75284   0.07011   0.72689   0.00000  Uiso   1.00
N225   N     0.68741   0.56774   0.77006   0.00000  Uiso   1.00
N226   N     0.52240   0.42070   0.55188   0.00000  Uiso   1.00
N227   N     0.75493   0.17148   0.70038   0.00000  Uiso   1.00
N228   N     0.60255   0.53854   0.80189   0.00000  Uiso   1.00
N229   N     0.43754   0.39149   0.58370   0.00000  Uiso   1.00
N230   N     0.67008   0.14228   0.73220   0.00000  Uiso   1.00
C231   C     0.16240   0.88921   0.17133   0.00000  Uiso   1.00
C232   C     0.14856   0.93127   0.20632   0.00000  Uiso   1.00
C233   C     0.18419   0.98291   0.21801   0.00000  Uiso   1.00
C234   C     0.16367   0.01528   0.25079   0.00000  Uiso   1.00
C235   C     0.15041   0.08344   0.30202   0.00000  Uiso   1.00
C236   C     0.10308   0.89076   0.14618   0.00000  Uiso   1.00
C237   C     0.10047   0.90832   0.10732   0.00000  Uiso   1.00
C238   C     0.04166   0.90657   0.08947   0.00000  Uiso   1.00
C239   C     0.95780   0.91178   0.04734   0.00000  Uiso   1.00
C240   C     0.16717   0.82208   0.18712   0.00000  Uiso   1.00
C241   C     0.21844   0.78189   0.18266   0.00000  Uiso   1.00
C242   C     0.21359   0.72231   0.19927   0.00000  Uiso   1.00
C243   C     0.22924   0.62090   0.22068   0.00000  Uiso   1.00
C244   C     0.06261   0.85486   0.20875   0.00000  Uiso   1.00
C245   C     0.09436   0.91262   0.22664   0.00000  Uiso   1.00
C246   C     0.07378   0.94491   0.25941   0.00000  Uiso   1.00
C247   C     0.10937   0.99658   0.27115   0.00000  Uiso   1.00
C248   C     0.04888   0.87210   0.16651   0.00000  Uiso   1.00
C249   C     0.99006   0.87032   0.14872   0.00000  Uiso   1.00
C250   C     0.98736   0.88788   0.10983   0.00000  Uiso   1.00
C251   C     0.11297   0.80342   0.20744   0.00000  Uiso   1.00
C252   C     0.10803   0.74389   0.22406   0.00000  Uiso   1.00
C253   C     0.15929   0.70362   0.21963   0.00000  Uiso   1.00
H254   H     0.20460   0.90374   0.15550   0.00000  Uiso   1.00
H255   H     0.22613   0.99734   0.20227   0.00000  Uiso   1.00
H256   H     0.14242   0.92275   0.09159   0.00000  Uiso   1.00
H257   H     0.26038   0.79634   0.16692   0.00000  Uiso   1.00
H258   H     0.22609   0.09289   0.26308   0.00000  Uiso   1.00
H259   H     0.04959   0.93560   0.02971   0.00000  Uiso   1.00
H260   H     0.29832   0.66905   0.18856   0.00000  Uiso   1.00
H261   H     0.02040   0.84034   0.22457   0.00000  Uiso   1.00
H262   H     0.03183   0.93046   0.27513   0.00000  Uiso   1.00
H263   H     0.94812   0.85587   0.16446   0.00000  Uiso   1.00
H264   H     0.06608   0.72947   0.23979   0.00000  Uiso   1.00
H265   H     0.06839   0.03862   0.32222   0.00000  Uiso   1.00
H266   H     0.89189   0.88132   0.08884   0.00000  Uiso   1.00
H267   H     0.14062   0.61477   0.24769   0.00000  Uiso   1.00
O268   O     0.15807   0.12619   0.32466   0.00000  Uiso   1.00
O269   O     0.92651   0.91982   0.01848   0.00000  Uiso   1.00
O270   O     0.25284   0.57011   0.22689   0.00000  Uiso   1.00
N271   N     0.18741   0.06774   0.27006   0.00000  Uiso   1.00
N272   N     0.02240   0.92070   0.05188   0.00000  Uiso   1.00
N273   N     0.25493   0.67148   0.20038   0.00000  Uiso   1.00
N274   N     0.10255   0.03854   0.30189   0.00000  Uiso   1.00
N275   N     0.93754   0.89149   0.08370   0.00000  Uiso   1.00
N276   N     0.17008   0.64228   0.23220   0.00000  Uiso   1.00
C277   C     0.33760   0.61079   0.67133   0.00000  Uiso   1.00
C278   C     0.35144   0.56873   0.70632   0.00000  Uiso   1.00
C279   C     0.31581   0.51709   0.71801   0.00000  Uiso   1.00
C280   C     0.33633   0.48472   0.75079   0.00000  Uiso   1.00
C281   C     0.34959   0.41656   0.80202   0.00000  Uiso   1.00
C282   C     0.39692   0.60924   0.64618   0.00000  Uiso   1.00
C283   C     0.39953   0.59168   0.60732   0.00000  Uiso   1.00
C284   C     0.45834   0.59343   0.58947   0.00000  Uiso   1.00
C285   C     0.54220   0.58822   0.54734   0.00000  Uiso   1.00
C286   C     0.33283   0.67792   0.68712   0.00000  Uiso   1.00
C287   C     0.28156   0.71811   0.68266   0.00000  Uiso   1.00
C288   C     0.28641   0.77769   0.69927   0.00000  Uiso   1.00
C289   C     0.27076   0.87910   0.72068   0.00000  Uiso   1.00
C290   C     0.43739   0.64514   0.70875   0.00000  Uiso   1.00
C291   C     0.40564   0.58738   0.72664   0.00000  Uiso   1.00
C292   C     0.42622   0.55509   0.75941   0.00000  Uiso   1.00
C293   C     0.39063   0.50342   0.77115   0.00000  Uiso   1.00
C294   C     0.45112   0.62790   0.66651   0.00000  Uiso   1.00
C295   C     0.50994   0.62968   0.64872   0.00000  Uiso   1.00
C296   C     0.51264   0.61212   0.60983   0.00000  Uiso   1.00
C297   C     0.38703   0.69658   0.70744   0.00000  Uiso   1.00
C298   C     0.39197   0.75611   0.72406   0.00000  Uiso   1.00
C299   C     0.34071   0.79638   0.71963   0.00000  Uiso   1.00
H300   H     0.29540   0.59626   0.65550   0.00000  Uiso   1.00
H301   H     0.27387   0.50266   0.70227   0.00000  Uiso   1.00
H302   H     0.35758   0.57725   0.59159   0.00000  Uiso   1.00
H303   H     0.23962   0.70366   0.66692   0.00000  Uiso   1.00
H304   H     0.27391   0.40711   0.76308   0.00000  Uiso   1.00
H305   H     0.45041   0.56440   0.52971   0.00000  Uiso   1.00
H306   H     0.20168   0.83095   0.68856   0.00000  Uiso   1.00
H307   H     0.47960   0.65966   0.72457   0.00000  Uiso   1.00
H308   H     0.46817   0.56954   0.77513   0.00000  Uiso   1.00
H309   H     0.55188   0.64413   0.66446   0.00000  Uiso   1.00
H310   H     0.43392   0.77053   0.73979   0.00000  Uiso   1.00
H311   H     0.43161   0.46138   0.82222   0.00000  Uiso   1.00
H312   H     0.60811   0.61868   0.58884   0.00000  Uiso   1.00
H313   H     0.35938   0.88523   0.74769   0.00000  Uiso   1.00
O314   O     0.34193   0.37381   0.82466   0.00000  Uiso   1.00
O315   O     0.57349   0.58018   0.51848   0.00000  Uiso   1.00
O316   O     0.24716   0.92989   0.72689   0.00000  Uiso   1.00
N317   N     0.31259   0.43226   0.77006   0.00000  Uiso   1.00
N318   N     0.47760   0.57930   0.55188   0.00000  Uiso   1.00
N319   N     0.24507   0.82852   0.70038   0.00000  Uiso   1.00
N320   N     0.39745   0.46146   0.80189   0.00000  Uiso   1.00
N321   N     0.56246   0.60851   0.58370   0.00000  Uiso   1.00
N322   N     0.32992   0.85772   0.73220   0.00000  Uiso   1.00
C323   C     0.83760   0.11079   0.17133   0.00000  Uiso   1.00
C324   C     0.85144   0.06873   0.20632   0.00000  Uiso   1.00
C325   C     0.81581   0.01709   0.21801   0.00000  Uiso   1.00
C326   C     0.83633   0.98472   0.25079   0.00000  Uiso   1.00
C327   C     0.84959   0.91656   0.30202   0.00000  Uiso   1.00
C328   C     0.89692   0.10924   0.14618   0.00000  Uiso   1.00
C329   C     0.89953   0.09168   0.10732   0.00000  Uiso   1.00
C330   C     0.95834   0.09343   0.08947   0.00000  Uiso   1.00
C331   C     0.04220   0.08822   0.04734   0.00000  Uiso   1.00
C332   C     0.83283   0.17792   0.18712   0.00000  Uiso   1.00
C333   C     0.78156   0.21811   0.18266   0.00000  Uiso   1.00
C334   C     0.78641   0.27769   0.19927   0.00000  Uiso   1.00
C335   C     0.77076   0.37910   0.22068   0.00000  Uiso   1.00
C336   C     0.93739   0.14514   0.20875   0.00000  Uiso   1.00
C337   C     0.90564   0.08738   0.22664   0.00000  Uiso   1.00
C338   C     0.92622   0.05509   0.25941   0.00000  Uiso   1.00
C339   C     0.89063   0.00342   0.27115   0.00000  Uiso   1.00
C340   C     0.95112   0.12790   0.16651   0.00000  Uiso   1.00
C341   C     0.00994   0.12968   0.14872   0.00000  Uiso   1.00
C342   C     0.01264   0.11212   0.10983   0.00000  Uiso   1.00
C343   C     0.88703   0.19658   0.20744   0.00000  Uiso   1.00
C344   C     0.89197   0.25611   0.22406   0.00000  Uiso   1.00
C345   C     0.84071   0.29638   0.21963   0.00000  Uiso   1.00
H346   H     0.79540   0.09626   0.15550   0.00000  Uiso   1.00
H347   H     0.77387   0.00266   0.20227   0.00000  Uiso   1.00
H348   H     0.85758   0.07725   0.09159   0.00000  Uiso   1.00
H349   H     0.73962   0.20366   0.16692   0.00000  Uiso   1.00
H350   H     0.77391   0.90711   0.26308   0.00000  Uiso   1.00
H351   H     0.95041   0.06440   0.02971   0.00000  Uiso   1.00
H352   H     0.70168   0.33095   0.18856   0.00000  Uiso   1.00
H353   H     0.97960   0.15966   0.22457   0.00000  Uiso   1.00
H354   H     0.96817   0.06954   0.27513   0.00000  Uiso   1.00
H355   H     0.05188   0.14413   0.16446   0.00000  Uiso   1.00
H356   H     0.93392   0.27053   0.23979   0.00000  Uiso   1.00
H357   H     0.93161   0.96138   0.32222   0.00000  Uiso   1.00
H358   H     0.10811   0.11868   0.08884   0.00000  Uiso   1.00
H359   H     0.85938   0.38523   0.24769   0.00000  Uiso   1.00
O360   O     0.84193   0.87381   0.32466   0.00000  Uiso   1.00
O361   O     0.07349   0.08018   0.01848   0.00000  Uiso   1.00
O362   O     0.74716   0.42989   0.22689   0.00000  Uiso   1.00
N363   N     0.81259   0.93226   0.27006   0.00000  Uiso   1.00
N364   N     0.97760   0.07930   0.05188   0.00000  Uiso   1.00
N365   N     0.74507   0.32852   0.20038   0.00000  Uiso   1.00
N366   N     0.89745   0.96146   0.30189   0.00000  Uiso   1.00
N367   N     0.06246   0.10851   0.08370   0.00000  Uiso   1.00
N368   N     0.82992   0.35772   0.23220   0.00000  Uiso   1.00
C369   C     0.88921   0.66240   0.42133   0.00000  Uiso   1.00
C370   C     0.93127   0.64856   0.45632   0.00000  Uiso   1.00
C371   C     0.98291   0.68419   0.46801   0.00000  Uiso   1.00
C372   C     0.01528   0.66367   0.50079   0.00000  Uiso   1.00
C373   C     0.08344   0.65041   0.55202   0.00000  Uiso   1.00
C374   C     0.89076   0.60308   0.39618   0.00000  Uiso   1.00
C375   C     0.90832   0.60047   0.35732   0.00000  Uiso   1.00
C376   C     0.90657   0.54166   0.33947   0.00000  Uiso   1.00
C377   C     0.91178   0.45780   0.29734   0.00000  Uiso   1.00
C378   C     0.82208   0.66717   0.43712   0.00000  Uiso   1.00
C379   C     0.78189   0.71844   0.43266   0.00000  Uiso   1.00
C380   C     0.72231   0.71359   0.44927   0.00000  Uiso   1.00
C381   C     0.62090   0.72924   0.47068   0.00000  Uiso   1.00
C382   C     0.85486   0.56261   0.45875   0.00000  Uiso   1.00
C383   C     0.91262   0.59436   0.47664   0.00000  Uiso   1.00
C384   C     0.94491   0.57378   0.50941   0.00000  Uiso   1.00
C385   C     0.99658   0.60937   0.52115   0.00000  Uiso   1.00
C386   C     0.87210   0.54888   0.41651   0.00000  Uiso   1.00
C387   C     0.87032   0.49006   0.39872   0.00000  Uiso   1.00
C388   C     0.88788   0.48736   0.35983   0.00000  Uiso   1.00
C389   C     0.80342   0.61297   0.45744   0.00000  Uiso   1.00
C390   C     0.74389   0.60803   0.47406   0.00000  Uiso   1.00
C391   C     0.70362   0.65929   0.46963   0.00000  Uiso   1.00
H392   H     0.90374   0.70460   0.40550   0.00000  Uiso   1.00
H393   H     0.99734   0.72613   0.45227   0.00000  Uiso   1.00
H394   H     0.92275   0.64242   0.34159   0.00000  Uiso   1.00
H395   H     0.79634   0.76038   0.41692   0.00000  Uiso   1.00
H396   H     0.09289   0.72609   0.51308   0.00000  Uiso   1.00
H397   H     0.93560   0.54959   0.27971   0.00000  Uiso   1.00
H398   H     0.66905   0.79832   0.43856   0.00000  Uiso   1.00
H399   H     0.84034   0.52040   0.47457   0.00000  Uiso   1.00
H400   H     0.93046   0.53183   0.52513   0.00000  Uiso   1.00
H401   H     0.85587   0.44812   0.41446   0.00000  Uiso   1.00
H402   H     0.72947   0.56608   0.48979   0.00000  Uiso   1.00
H403   H     0.03862   0.56839   0.57222   0.00000  Uiso   1.00
H404   H     0.88132   0.39189   0.33884   0.00000  Uiso   1.00
H405   H     0.61477   0.64062   0.49769   0.00000  Uiso   1.00
O406   O     0.12619   0.65807   0.57466   0.00000  Uiso   1.00
O407   O     0.91982   0.42651   0.26848   0.00000  Uiso   1.00
O408   O     0.57011   0.75284   0.47689   0.00000  Uiso   1.00
N409   N     0.06774   0.68741   0.52006   0.00000  Uiso   1.00
N410   N     0.92070   0.52240   0.30188   0.00000  Uiso   1.00
N411   N     0.67148   0.75493   0.45038   0.00000  Uiso   1.00
N412   N     0.03854   0.60255   0.55189   0.00000  Uiso   1.00
N413   N     0.89149   0.43754   0.33370   0.00000  Uiso   1.00
N414   N     0.64228   0.67008   0.48220   0.00000  Uiso   1.00
C415   C     0.38921   0.16240   0.92133   0.00000  Uiso   1.00
C416   C     0.43127   0.14856   0.95632   0.00000  Uiso   1.00
C417   C     0.48291   0.18419   0.96801   0.00000  Uiso   1.00
C418   C     0.51528   0.16367   0.00079   0.00000  Uiso   1.00
C419   C     0.58344   0.15041   0.05202   0.00000  Uiso   1.00
C420   C     0.39076   0.10308   0.89618   0.00000  Uiso   1.00
C421   C     0.40832   0.10047   0.85732   0.00000  Uiso   1.00
C422   C     0.40657   0.04166   0.83947   0.00000  Uiso   1.00
C423   C     0.41178   0.95780   0.79734   0.00000  Uiso   1.00
C424   C     0.32208   0.16717   0.93712   0.00000  Uiso   1.00
C425   C     0.28189   0.21844   0.93266   0.00000  Uiso   1.00
C426   C     0.22231   0.21359   0.94927   0.00000  Uiso   1.00
C427   C     0.12090   0.22924   0.97068   0.00000  Uiso   1.00
C428   C     0.35486   0.06261   0.95875   0.00000  Uiso   1.00
C429   C     0.41262   0.09436   0.97664   0.00000  Uiso   1.00
C430   C     0.44491   0.07378   0.00941   0.00000  Uiso   1.00
C431   C     0.49658   0.10937   0.02115   0.00000  Uiso   1.00
C432   C     0.37210   0.04888   0.91651   0.00000  Uiso   1.00
C433   C     0.37032   0.99006   0.89872   0.00000  Uiso   1.00
C434   C     0.38788   0.98736   0.85983   0.00000  Uiso   1.00
C435   C     0.30342   0.11297   0.95744   0.00000  Uiso   1.00
C436   C     0.24389   0.10803   0.97406   0.00000  Uiso   1.00
C437   C     0.20362   0.15929   0.96963   0.00000  Uiso   1.00
H438   H     0.40374   0.20460   0.90550   0.00000  Uiso   1.00
H439   H     0.49734   0.22613   0.95227   0.00000  Uiso   1.00
H440   H     0.42275   0.14242   0.84159   0.00000  Uiso   1.00
H441   H     0.29634   0.26038   0.91692   0.00000  Uiso   1.00
H442   H     0.59289   0.22609   0.01308   0.00000  Uiso   1.00
H443   H     0.43560   0.04959   0.77971   0.00000  Uiso   1.00
H444   H     0.16905   0.29832   0.93856   0.00000  Uiso   1.00
H445   H     0.34034   0.02040   0.97457   0.00000  Uiso   1.00
H446   H     0.43046   0.03183   0.02513   0.00000  Uiso   1.00
H447   H     0.35587   0.94812   0.91446   0.00000  Uiso   1.00
H448   H     0.22947   0.06608   0.98979   0.00000  Uiso   1.00
H449   H     0.53862   0.06839   0.07222   0.00000  Uiso   1.00
H450   H     0.38132   0.89189   0.83884   0.00000  Uiso   1.00
H451   H     0.11477   0.14062   0.99769   0.00000  Uiso   1.00
O452   O     0.62619   0.15807   0.07466   0.00000  Uiso   1.00
O453   O     0.41982   0.92651   0.76848   0.00000  Uiso   1.00
O454   O     0.07011   0.25284   0.97689   0.00000  Uiso   1.00
N455   N     0.56774   0.18741   0.02006   0.00000  Uiso   1.00
N456   N     0.42070   0.02240   0.80188   0.00000  Uiso   1.00
N457   N     0.17148   0.25493   0.95038   0.00000  Uiso   1.00
N458   N     0.53854   0.10255   0.05189   0.00000  Uiso   1.00
N459   N     0.39149   0.93754   0.83370   0.00000  Uiso   1.00
N460   N     0.14228   0.17008   0.98220   0.00000  Uiso   1.00
C461   C     0.11079   0.33760   0.42133   0.00000  Uiso   1.00
C462   C     0.06873   0.35144   0.45632   0.00000  Uiso   1.00
C463   C     0.01709   0.31581   0.46801   0.00000  Uiso   1.00
C464   C     0.98472   0.33633   0.50079   0.00000  Uiso   1.00
C465   C     0.91656   0.34959   0.55202   0.00000  Uiso   1.00
C466   C     0.10924   0.39692   0.39618   0.00000  Uiso   1.00
C467   C     0.09168   0.39953   0.35732   0.00000  Uiso   1.00
C468   C     0.09343   0.45834   0.33947   0.00000  Uiso   1.00
C469   C     0.08822   0.54220   0.29734   0.00000  Uiso   1.00
C470   C     0.17792   0.33283   0.43712   0.00000  Uiso   1.00
C471   C     0.21811   0.28156   0.43266   0.00000  Uiso   1.00
C472   C     0.27769   0.28641   0.44927   0.00000  Uiso   1.00
C473   C     0.37910   0.27076   0.47068   0.00000  Uiso   1.00
C474   C     0.14514   0.43739   0.45875   0.00000  Uiso   1.00
C475   C     0.08738   0.40564   0.47664   0.00000  Uiso   1.00
C476   C     0.05509   0.42622   0.50941   0.00000  Uiso   1.00
C477   C     0.00342   0.39063   0.52115   0.00000  Uiso   1.00
C478   C     0.12790   0.45112   0.41651   0.00000  Uiso   1.00
C479   C     0.12968   0.50994   0.39872   0.00000  Uiso   1.00
C480   C     0.11212   0.51264   0.35983   0.00000  Uiso   1.00
C481   C     0.19658   0.38703   0.45744   0.00000  Uiso   1.00
C482   C     0.25611   0.39197   0.47406   0.00000  Uiso   1.00
C483   C     0.29638   0.34071   0.46963   0.00000  Uiso   1.00
H484   H     0.09626   0.29540   0.40550   0.00000  Uiso   1.00
H485   H     0.00266   0.27387   0.45227   0.00000  Uiso   1.00
H486   H     0.07725   0.35758   0.34159   0.00000  Uiso   1.00
H487   H     0.20366   0.23962   0.41692   0.00000  Uiso   1.00
H488   H     0.90711   0.27391   0.51308   0.00000  Uiso   1.00
H489   H     0.06440   0.45041   0.27971   0.00000  Uiso   1.00
H490   H     0.33095   0.20168   0.43856   0.00000  Uiso   1.00
H491   H     0.15966   0.47960   0.47457   0.00000  Uiso   1.00
H492   H     0.06954   0.46817   0.52513   0.00000  Uiso   1.00
H493   H     0.14413   0.55188   0.41446   0.00000  Uiso   1.00
H494   H     0.27053   0.43392   0.48979   0.00000  Uiso   1.00
H495   H     0.96138   0.43161   0.57222   0.00000  Uiso   1.00
H496   H     0.11868   0.60811   0.33884   0.00000  Uiso   1.00
H497   H     0.38523   0.35938   0.49769   0.00000  Uiso   1.00
O498   O     0.87381   0.34193   0.57466   0.00000  Uiso   1.00
O499   O     0.08018   0.57349   0.26848   0.00000  Uiso   1.00
O500   O     0.42989   0.24716   0.47689   0.00000  Uiso   1.00
N501   N     0.93226   0.31259   0.52006   0.00000  Uiso   1.00
N502   N     0.07930   0.47760   0.30188   0.00000  Uiso   1.00
N503   N     0.32852   0.24507   0.45038   0.00000  Uiso   1.00
N504   N     0.96146   0.39745   0.55189   0.00000  Uiso   1.00
N505   N     0.10851   0.56246   0.33370   0.00000  Uiso   1.00
N506   N     0.35772   0.32992   0.48220   0.00000  Uiso   1.00
C507   C     0.61079   0.83760   0.92133   0.00000  Uiso   1.00
C508   C     0.56873   0.85144   0.95632   0.00000  Uiso   1.00
C509   C     0.51709   0.81581   0.96801   0.00000  Uiso   1.00
C510   C     0.48472   0.83633   0.00079   0.00000  Uiso   1.00
C511   C     0.41656   0.84959   0.05202   0.00000  Uiso   1.00
C512   C     0.60924   0.89692   0.89618   0.00000  Uiso   1.00
C513   C     0.59168   0.89953   0.85732   0.00000  Uiso   1.00
C514   C     0.59343   0.95834   0.83947   0.00000  Uiso   1.00
C515   C     0.58822   0.04220   0.79734   0.00000  Uiso   1.00
C516   C     0.67792   0.83283   0.93712   0.00000  Uiso   1.00
C517   C     0.71811   0.78156   0.93266   0.00000  Uiso   1.00
C518   C     0.77769   0.78641   0.94927   0.00000  Uiso   1.00
C519   C     0.87910   0.77076   0.97068   0.00000  Uiso   1.00
C520   C     0.64514   0.93739   0.95875   0.00000  Uiso   1.00
C521   C     0.58738   0.90564   0.97664   0.00000  Uiso   1.00
C522   C     0.55509   0.92622   0.00941   0.00000  Uiso   1.00
C523   C     0.50342   0.89063   0.02115   0.00000  Uiso   1.00
C524   C     0.62790   0.95112   0.91651   0.00000  Uiso   1.00
C525   C     0.62968   0.00994   0.89872   0.00000  Uiso   1.00
C526   C     0.61212   0.01264   0.85983   0.00000  Uiso   1.00
C527   C     0.69658   0.88703   0.95744   0.00000  Uiso   1.00
C528   C     0.75611   0.89197   0.97406   0.00000  Uiso   1.00
C529   C     0.79638   0.84071   0.96963   0.00000  Uiso   1.00
H530   H     0.59626   0.79540   0.90550   0.00000  Uiso   1.00
H531   H     0.50266   0.77387   0.95227   0.00000  Uiso   1.00
H532   H     0.57725   0.85758   0.84159   0.00000  Uiso   1.00
H533   H     0.70366   0.73962   0.91692   0.00000  Uiso   1.00
H534   H     0.40711   0.77391   0.01308   0.00000  Uiso   1.00
H535   H     0.56440   0.95041   0.77971   0.00000  Uiso   1.00
H536   H     0.83095   0.70168   0.93856   0.00000  Uiso   1.00
H537   H     0.65966   0.97960   0.97457   0.00000  Uiso   1.00
H538   H     0.56954   0.96817   0.02513   0.00000  Uiso   1.00
H539   H     0.64413   0.05188   0.91446   0.00000  Uiso   1.00
H540   H     0.77053   0.93392   0.98979   0.00000  Uiso   1.00
H541   H     0.46138   0.93161   0.07222   0.00000  Uiso   1.00
H542   H     0.61868   0.10811   0.83884   0.00000  Uiso   1.00
H543   H     0.88523   0.85938   0.99769   0.00000  Uiso   1.00
O544   O     0.37381   0.84193   0.07466   0.00000  Uiso   1.00
O545   O     0.58018   0.07349   0.76848   0.00000  Uiso   1.00
O546   O     0.92989   0.74716   0.97689   0.00000  Uiso   1.00
N547   N     0.43226   0.81259   0.02006   0.00000  Uiso   1.00
N548   N     0.57930   0.97760   0.80188   0.00000  Uiso   1.00
N549   N     0.82852   0.74507   0.95038   0.00000  Uiso   1.00
N550   N     0.46146   0.89745   0.05189   0.00000  Uiso   1.00
N551   N     0.60851   0.06246   0.83370   0.00000  Uiso   1.00
N552   N     0.85772   0.82992   0.98220   0.00000  Uiso   1.00
C553   C     0.83760   0.38921   0.07867   0.00000  Uiso   1.00
C554   C     0.85144   0.43127   0.04368   0.00000  Uiso   1.00
C555   C     0.81581   0.48291   0.03199   0.00000  Uiso   1.00
C556   C     0.83633   0.51528   0.99921   0.00000  Uiso   1.00
C557   C     0.84959   0.58344   0.94798   0.00000  Uiso   1.00
C558   C     0.89692   0.39076   0.10382   0.00000  Uiso   1.00
C559   C     0.89953   0.40832   0.14268   0.00000  Uiso   1.00
C560   C     0.95834   0.40657   0.16053   0.00000  Uiso   1.00
C561   C     0.04220   0.41178   0.20266   0.00000  Uiso   1.00
C562   C     0.83283   0.32208   0.06288   0.00000  Uiso   1.00
C563   C     0.78156   0.28189   0.06734   0.00000  Uiso   1.00
C564   C     0.78641   0.22231   0.05073   0.00000  Uiso   1.00
C565   C     0.77076   0.12090   0.02932   0.00000  Uiso   1.00
C566   C     0.93739   0.35486   0.04125   0.00000  Uiso   1.00
C567   C     0.90564   0.41262   0.02336   0.00000  Uiso   1.00
C568   C     0.92622   0.44491   0.99059   0.00000  Uiso   1.00
C569   C     0.89063   0.49658   0.97885   0.00000  Uiso   1.00
C570   C     0.95112   0.37210   0.08349   0.00000  Uiso   1.00
C571   C     0.00994   0.37032   0.10128   0.00000  Uiso   1.00
C572   C     0.01264   0.38788   0.14017   0.00000  Uiso   1.00
C573   C     0.88703   0.30342   0.04256   0.00000  Uiso   1.00
C574   C     0.89197   0.24389   0.02594   0.00000  Uiso   1.00
C575   C     0.84071   0.20362   0.03037   0.00000  Uiso   1.00
H576   H     0.79540   0.40374   0.09450   0.00000  Uiso   1.00
H577   H     0.77387   0.49734   0.04773   0.00000  Uiso   1.00
H578   H     0.85758   0.42275   0.15841   0.00000  Uiso   1.00
H579   H     0.73962   0.29634   0.08308   0.00000  Uiso   1.00
H580   H     0.77391   0.59289   0.98692   0.00000  Uiso   1.00
H581   H     0.95041   0.43560   0.22029   0.00000  Uiso   1.00
H582   H     0.70168   0.16905   0.06144   0.00000  Uiso   1.00
H583   H     0.97960   0.34034   0.02543   0.00000  Uiso   1.00
H584   H     0.96817   0.43046   0.97487   0.00000  Uiso   1.00
H585   H     0.05188   0.35587   0.08554   0.00000  Uiso   1.00
H586   H     0.93392   0.22947   0.01021   0.00000  Uiso   1.00
H587   H     0.93161   0.53862   0.92778   0.00000  Uiso   1.00
H588   H     0.10811   0.38132   0.16116   0.00000  Uiso   1.00
H589   H     0.85938   0.11477   0.00231   0.00000  Uiso   1.00
O590   O     0.84193   0.62619   0.92534   0.00000  Uiso   1.00
O591   O     0.07349   0.41982   0.23152   0.00000  Uiso   1.00
O592   O     0.74716   0.07011   0.02311   0.00000  Uiso   1.00
N593   N     0.81259   0.56774   0.97994   0.00000  Uiso   1.00
N594   N     0.97760   0.42070   0.19812   0.00000  Uiso   1.00
N595   N     0.74507   0.17148   0.04962   0.00000  Uiso   1.00
N596   N     0.89745   0.53854   0.94811   0.00000  Uiso   1.00
N597   N     0.06246   0.39149   0.16630   0.00000  Uiso   1.00
N598   N     0.82992   0.14228   0.01780   0.00000  Uiso   1.00
C599   C     0.33760   0.88921   0.57867   0.00000  Uiso   1.00
C600   C     0.35144   0.93127   0.54368   0.00000  Uiso   1.00
C601   C     0.31581   0.98291   0.53199   0.00000  Uiso   1.00
C602   C     0.33633   0.01528   0.49921   0.00000  Uiso   1.00
C603   C     0.34959   0.08344   0.44798   0.00000  Uiso   1.00
C604   C     0.39692   0.89076   0.60382   0.00000  Uiso   1.00
C605   C     0.39953   0.90832   0.64268   0.00000  Uiso   1.00
C606   C     0.45834   0.90657   0.66053   0.00000  Uiso   1.00
C607   C     0.54220   0.91178   0.70266   0.00000  Uiso   1.00
C608   C     0.33283   0.82208   0.56288   0.00000  Uiso   1.00
C609   C     0.28156   0.78189   0.56734   0.00000  Uiso   1.00
C610   C     0.28641   0.72231   0.55073   0.00000  Uiso   1.00
C611   C     0.27076   0.62090   0.52932   0.00000  Uiso   1.00
C612   C     0.43739   0.85486   0.54125   0.00000  Uiso   1.00
C613   C     0.40564   0.91262   0.52336   0.00000  Uiso   1.00
C614   C     0.42622   0.94491   0.49059   0.00000  Uiso   1.00
C615   C     0.39063   0.99658   0.47885   0.00000  Uiso   1.00
C616   C     0.45112   0.87210   0.58349   0.00000  Uiso   1.00
C617   C     0.50994   0.87032   0.60128   0.00000  Uiso   1.00
C618   C     0.51264   0.88788   0.64017   0.00000  Uiso   1.00
C619   C     0.38703   0.80342   0.54256   0.00000  Uiso   1.00
C620   C     0.39197   0.74389   0.52594   0.00000  Uiso   1.00
C621   C     0.34071   0.70362   0.53037   0.00000  Uiso   1.00
H622   H     0.29540   0.90374   0.59450   0.00000  Uiso   1.00
H623   H     0.27387   0.99734   0.54773   0.00000  Uiso   1.00
H624   H     0.35758   0.92275   0.65841   0.00000  Uiso   1.00
H625   H     0.23962   0.79634   0.58308   0.00000  Uiso   1.00
H626   H     0.27391   0.09289   0.48692   0.00000  Uiso   1.00
H627   H     0.45041   0.93560   0.72029   0.00000  Uiso   1.00
H628   H     0.20168   0.66905   0.56144   0.00000  Uiso   1.00
H629   H     0.47960   0.84034   0.52543   0.00000  Uiso   1.00
H630   H     0.46817   0.93046   0.47487   0.00000  Uiso   1.00
H631   H     0.55188   0.85587   0.58554   0.00000  Uiso   1.00
H632   H     0.43392   0.72947   0.51021   0.00000  Uiso   1.00
H633   H     0.43161   0.03862   0.42778   0.00000  Uiso   1.00
H634   H     0.60811   0.88132   0.66116   0.00000  Uiso   1.00
H635   H     0.35938   0.61477   0.50231   0.00000  Uiso   1.00
O636   O     0.34193   0.12619   0.42534   0.00000  Uiso   1.00
O637   O     0.57349   0.91982   0.73152   0.00000  Uiso   1.00
O638   O     0.24716   0.57011   0.52311   0.00000  Uiso   1.00
N639   N     0.31259   0.06774   0.47994   0.00000  Uiso   1.00
N640   N     0.47760   0.92070   0.69812   0.00000  Uiso   1.00
N641   N     0.24507   0.67148   0.54962   0.00000  Uiso   1.00
N642   N     0.39745   0.03854   0.44811   0.00000  Uiso   1.00
N643   N     0.56246   0.89149   0.66630   0.00000  Uiso   1.00
N644   N     0.32992   0.64228   0.51780   0.00000  Uiso   1.00
C645   C     0.16240   0.61079   0.07867   0.00000  Uiso   1.00
C646   C     0.14856   0.56873   0.04368   0.00000  Uiso   1.00
C647   C     0.18419   0.51709   0.03199   0.00000  Uiso   1.00
C648   C     0.16367   0.48472   0.99921   0.00000  Uiso   1.00
C649   C     0.15041   0.41656   0.94798   0.00000  Uiso   1.00
C650   C     0.10308   0.60924   0.10382   0.00000  Uiso   1.00
C651   C     0.10047   0.59168   0.14268   0.00000  Uiso   1.00
C652   C     0.04166   0.59343   0.16053   0.00000  Uiso   1.00
C653   C     0.95780   0.58822   0.20266   0.00000  Uiso   1.00
C654   C     0.16717   0.67792   0.06288   0.00000  Uiso   1.00
C655   C     0.21844   0.71811   0.06734   0.00000  Uiso   1.00
C656   C     0.21359   0.77769   0.05073   0.00000  Uiso   1.00
C657   C     0.22924   0.87910   0.02932   0.00000  Uiso   1.00
C658   C     0.06261   0.64514   0.04125   0.00000  Uiso   1.00
C659   C     0.09436   0.58738   0.02336   0.00000  Uiso   1.00
C660   C     0.07378   0.55509   0.99059   0.00000  Uiso   1.00
C661   C     0.10937   0.50342   0.97885   0.00000  Uiso   1.00
C662   C     0.04888   0.62790   0.08349   0.00000  Uiso   1.00
C663   C     0.99006   0.62968   0.10128   0.00000  Uiso   1.00
C664   C     0.98736   0.61212   0.14017   0.00000  Uiso   1.00
C665   C     0.11297   0.69658   0.04256   0.00000  Uiso   1.00
C666   C     0.10803   0.75611   0.02594   0.00000  Uiso   1.00
C667   C     0.15929   0.79638   0.03037   0.00000  Uiso   1.00
H668   H     0.20460   0.59626   0.09450   0.00000  Uiso   1.00
H669   H     0.22613   0.50266   0.04773   0.00000  Uiso   1.00
H670   H     0.14242   0.57725   0.15841   0.00000  Uiso   1.00
H671   H     0.26038   0.70366   0.08308   0.00000  Uiso   1.00
H672   H     0.22609   0.40711   0.98692   0.00000  Uiso   1.00
H673   H     0.04959   0.56440   0.22029   0.00000  Uiso   1.00
H674   H     0.29832   0.83095   0.06144   0.00000  Uiso   1.00
H675   H     0.02040   0.65966   0.02543   0.00000  Uiso   1.00
H676   H     0.03183   0.56954   0.97487   0.00000  Uiso   1.00
H677   H     0.94812   0.64413   0.08554   0.00000  Uiso   1.00
H678   H     0.06608   0.77053   0.01021   0.00000  Uiso   1.00
H679   H     0.06839   0.46138   0.92778   0.00000  Uiso   1.00
H680   H     0.89189   0.61868   0.16116   0.00000  Uiso   1.00
H681   H     0.14062   0.88523   0.00231   0.00000  Uiso   1.00
O682   O     0.15807   0.37381   0.92534   0.00000  Uiso   1.00
O683   O     0.92651   0.58018   0.23152   0.00000  Uiso   1.00
O684   O     0.25284   0.92989   0.02311   0.00000  Uiso   1.00
N685   N     0.18741   0.43226   0.97994   0.00000  Uiso   1.00
N686   N     0.02240   0.57930   0.19812   0.00000  Uiso   1.00
N687   N     0.25493   0.82852   0.04962   0.00000  Uiso   1.00
N688   N     0.10255   0.46146   0.94811   0.00000  Uiso   1.00
N689   N     0.93754   0.60851   0.16630   0.00000  Uiso   1.00
N690   N     0.17008   0.85772   0.01780   0.00000  Uiso   1.00
C691   C     0.66240   0.11079   0.57867   0.00000  Uiso   1.00
C692   C     0.64856   0.06873   0.54368   0.00000  Uiso   1.00
C693   C     0.68419   0.01709   0.53199   0.00000  Uiso   1.00
C694   C     0.66367   0.98472   0.49921   0.00000  Uiso   1.00
C695   C     0.65041   0.91656   0.44798   0.00000  Uiso   1.00
C696   C     0.60308   0.10924   0.60382   0.00000  Uiso   1.00
C697   C     0.60047   0.09168   0.64268   0.00000  Uiso   1.00
C698   C     0.54166   0.09343   0.66053   0.00000  Uiso   1.00
C699   C     0.45780   0.08822   0.70266   0.00000  Uiso   1.00
C700   C     0.66717   0.17792   0.56288   0.00000  Uiso   1.00
C701   C     0.71844   0.21811   0.56734   0.00000  Uiso   1.00
C702   C     0.71359   0.27769   0.55073   0.00000  Uiso   1.00
C703   C     0.72924   0.37910   0.52932   0.00000  Uiso   1.00
C704   C     0.56261   0.14514   0.54125   0.00000  Uiso   1.00
C705   C     0.59436   0.08738   0.52336   0.00000  Uiso   1.00
C706   C     0.57378   0.05509   0.49059   0.00000  Uiso   1.00
C707   C     0.60937   0.00342   0.47885   0.00000  Uiso   1.00
C708   C     0.54888   0.12790   0.58349   0.00000  Uiso   1.00
C709   C     0.49006   0.12968   0.60128   0.00000  Uiso   1.00
C710   C     0.48736   0.11212   0.64017   0.00000  Uiso   1.00
C711   C     0.61297   0.19658   0.54256   0.00000  Uiso   1.00
C712   C     0.60803   0.25611   0.52594   0.00000  Uiso   1.00
C713   C     0.65929   0.29638   0.53037   0.00000  Uiso   1.00
H714   H     0.70460   0.09626   0.59450   0.00000  Uiso   1.00
H715   H     0.72613   0.00266   0.54773   0.00000  Uiso   1.00
H716   H     0.64242   0.07725   0.65841   0.00000  Uiso   1.00
H717   H     0.76038   0.20366   0.58308   0.00000  Uiso   1.00
H718   H     0.72609   0.90711   0.48692   0.00000  Uiso   1.00
H719   H     0.54959   0.06440   0.72029   0.00000  Uiso   1.00
H720   H     0.79832   0.33095   0.56144   0.00000  Uiso   1.00
H721   H     0.52040   0.15966   0.52543   0.00000  Uiso   1.00
H722   H     0.53183   0.06954   0.47487   0.00000  Uiso   1.00
H723   H     0.44812   0.14413   0.58554   0.00000  Uiso   1.00
H724   H     0.56608   0.27053   0.51021   0.00000  Uiso   1.00
H725   H     0.56839   0.96138   0.42778   0.00000  Uiso   1.00
H726   H     0.39189   0.11868   0.66116   0.00000  Uiso   1.00
H727   H     0.64062   0.38523   0.50231   0.00000  Uiso   1.00
O728   O     0.65807   0.87381   0.42534   0.00000  Uiso   1.00
O729   O     0.42651   0.08018   0.73152   0.00000  Uiso   1.00
O730   O     0.75284   0.42989   0.52311   0.00000  Uiso   1.00
N731   N     0.68741   0.93226   0.47994   0.00000  Uiso   1.00
N732   N     0.52240   0.07930   0.69812   0.00000  Uiso   1.00
N733   N     0.75493   0.32852   0.54962   0.00000  Uiso   1.00
N734   N     0.60255   0.96146   0.44811   0.00000  Uiso   1.00
N735   N     0.43754   0.10851   0.66630   0.00000  Uiso   1.00
N736   N     0.67008   0.35772   0.51780   0.00000  Uiso   1.00
