data_job_02578
_audit_creation_date              2018-12-19
_audit_creation_method            'Materials Studio'
_symmetry_space_group_name_H-M    'P1'
_symmetry_Int_Tables_number       1
_symmetry_cell_setting            triclinic
loop_
_symmetry_equiv_pos_as_xyz
  x,y,z
_cell_length_a                    22.8717
_cell_length_b                    40.2677
_cell_length_c                    10.1820
_cell_angle_alpha                 90.0000
_cell_angle_beta                  90.0000
_cell_angle_gamma                 90.0000
loop_
_atom_site_label
_atom_site_type_symbol
_atom_site_fract_x
_atom_site_fract_y
_atom_site_fract_z
_atom_site_U_iso_or_equiv
_atom_site_adp_type
_atom_site_occupancy
C1     C     0.21606   0.14375   0.33886   0.00000  Uiso   1.00
C2     C     0.25781   0.16278   0.42814   0.00000  Uiso   1.00
C3     C     0.26400   0.15816   0.56249   0.00000  Uiso   1.00
C4     C     0.30456   0.17805   0.62654   0.00000  Uiso   1.00
C5     C     0.36433   0.20401   0.77551   0.00000  Uiso   1.00
C6     C     0.17835   0.16990   0.27129   0.00000  Uiso   1.00
C7     C     0.11773   0.17125   0.27375   0.00000  Uiso   1.00
C8     C     0.09140   0.19713   0.20575   0.00000  Uiso   1.00
C9     C     0.02781   0.23412   0.11114   0.00000  Uiso   1.00
C10    C     0.25384   0.12842   0.23139   0.00000  Uiso   1.00
C11    C     0.25667   0.09490   0.20027   0.00000  Uiso   1.00
C12    C     0.29389   0.08586   0.09865   0.00000  Uiso   1.00
C13    C     0.34750   0.05846   0.94208   0.00000  Uiso   1.00
C14    C     0.27710   0.18729   0.21370   0.00000  Uiso   1.00
C15    C     0.29096   0.18643   0.36015   0.00000  Uiso   1.00
C16    C     0.33153   0.20633   0.42402   0.00000  Uiso   1.00
C17    C     0.33778   0.20174   0.55844   0.00000  Uiso   1.00
C18    C     0.21150   0.19355   0.20331   0.00000  Uiso   1.00
C19    C     0.18526   0.21943   0.13528   0.00000  Uiso   1.00
C20    C     0.12462   0.22082   0.13765   0.00000  Uiso   1.00
C21    C     0.28699   0.15207   0.16341   0.00000  Uiso   1.00
C22    C     0.32421   0.14308   0.06180   0.00000  Uiso   1.00
C23    C     0.32711   0.10956   0.03054   0.00000  Uiso   1.00
H24    H     0.19024   0.12534   0.39178   0.00000  Uiso   1.00
H25    H     0.23832   0.13985   0.61506   0.00000  Uiso   1.00
H26    H     0.09208   0.15294   0.32636   0.00000  Uiso   1.00
H27    H     0.23101   0.07661   0.25290   0.00000  Uiso   1.00
H28    H     0.30624   0.16638   0.83264   0.00000  Uiso   1.00
H29    H     0.99788   0.19398   0.22386   0.00000  Uiso   1.00
H30    H     0.29083   0.03301   0.06894   0.00000  Uiso   1.00
H31    H     0.30291   0.20571   0.16077   0.00000  Uiso   1.00
H32    H     0.35718   0.22463   0.37138   0.00000  Uiso   1.00
H33    H     0.21094   0.23772   0.08268   0.00000  Uiso   1.00
H34    H     0.34986   0.16139   0.00922   0.00000  Uiso   1.00
H35    H     0.40271   0.23520   0.63486   0.00000  Uiso   1.00
H36    H     0.09434   0.26279   0.02607   0.00000  Uiso   1.00
H37    H     0.38730   0.10183   0.87116   0.00000  Uiso   1.00
O38    O     0.38813   0.21180   0.87647   0.00000  Uiso   1.00
O39    O     0.98357   0.24799   0.07775   0.00000  Uiso   1.00
O40    O     0.36792   0.03681   0.87451   0.00000  Uiso   1.00
N41    N     0.32151   0.17998   0.75718   0.00000  Uiso   1.00
N42    N     0.03320   0.20578   0.18803   0.00000  Uiso   1.00
N43    N     0.30708   0.05529   0.04317   0.00000  Uiso   1.00
N44    N     0.37342   0.21700   0.65076   0.00000  Uiso   1.00
N45    N     0.08511   0.24281   0.08160   0.00000  Uiso   1.00
N46    N     0.35899   0.09232   0.93675   0.00000  Uiso   1.00
C47    C     0.21606   0.64375   0.83886   0.00000  Uiso   1.00
C48    C     0.25781   0.66278   0.92814   0.00000  Uiso   1.00
C49    C     0.26400   0.65816   0.06249   0.00000  Uiso   1.00
C50    C     0.30456   0.67805   0.12654   0.00000  Uiso   1.00
C51    C     0.36433   0.70401   0.27551   0.00000  Uiso   1.00
C52    C     0.17835   0.66990   0.77129   0.00000  Uiso   1.00
C53    C     0.11773   0.67125   0.77375   0.00000  Uiso   1.00
C54    C     0.09140   0.69713   0.70575   0.00000  Uiso   1.00
C55    C     0.02781   0.73412   0.61114   0.00000  Uiso   1.00
C56    C     0.25384   0.62842   0.73139   0.00000  Uiso   1.00
C57    C     0.25667   0.59490   0.70027   0.00000  Uiso   1.00
C58    C     0.29389   0.58586   0.59865   0.00000  Uiso   1.00
C59    C     0.34750   0.55846   0.44208   0.00000  Uiso   1.00
C60    C     0.27710   0.68729   0.71370   0.00000  Uiso   1.00
C61    C     0.29096   0.68643   0.86015   0.00000  Uiso   1.00
C62    C     0.33153   0.70633   0.92402   0.00000  Uiso   1.00
C63    C     0.33778   0.70174   0.05844   0.00000  Uiso   1.00
C64    C     0.21150   0.69355   0.70331   0.00000  Uiso   1.00
C65    C     0.18526   0.71943   0.63528   0.00000  Uiso   1.00
C66    C     0.12462   0.72082   0.63765   0.00000  Uiso   1.00
C67    C     0.28699   0.65207   0.66341   0.00000  Uiso   1.00
C68    C     0.32421   0.64308   0.56180   0.00000  Uiso   1.00
C69    C     0.32711   0.60956   0.53054   0.00000  Uiso   1.00
H70    H     0.19024   0.62534   0.89178   0.00000  Uiso   1.00
H71    H     0.23832   0.63985   0.11506   0.00000  Uiso   1.00
H72    H     0.09208   0.65294   0.82636   0.00000  Uiso   1.00
H73    H     0.23101   0.57661   0.75290   0.00000  Uiso   1.00
H74    H     0.30624   0.66638   0.33264   0.00000  Uiso   1.00
H75    H     0.99788   0.69398   0.72386   0.00000  Uiso   1.00
H76    H     0.29083   0.53301   0.56894   0.00000  Uiso   1.00
H77    H     0.30291   0.70571   0.66077   0.00000  Uiso   1.00
H78    H     0.35718   0.72463   0.87138   0.00000  Uiso   1.00
H79    H     0.21094   0.73772   0.58268   0.00000  Uiso   1.00
H80    H     0.34986   0.66139   0.50922   0.00000  Uiso   1.00
H81    H     0.40271   0.73520   0.13486   0.00000  Uiso   1.00
H82    H     0.09434   0.76279   0.52607   0.00000  Uiso   1.00
H83    H     0.38730   0.60183   0.37116   0.00000  Uiso   1.00
O84    O     0.38813   0.71180   0.37647   0.00000  Uiso   1.00
O85    O     0.98357   0.74799   0.57775   0.00000  Uiso   1.00
O86    O     0.36792   0.53681   0.37451   0.00000  Uiso   1.00
N87    N     0.32151   0.67998   0.25718   0.00000  Uiso   1.00
N88    N     0.03320   0.70578   0.68803   0.00000  Uiso   1.00
N89    N     0.30708   0.55529   0.54317   0.00000  Uiso   1.00
N90    N     0.37342   0.71700   0.15076   0.00000  Uiso   1.00
N91    N     0.08511   0.74281   0.58160   0.00000  Uiso   1.00
N92    N     0.35899   0.59232   0.43675   0.00000  Uiso   1.00
C93    C     0.71606   0.14375   0.83886   0.00000  Uiso   1.00
C94    C     0.75781   0.16278   0.92814   0.00000  Uiso   1.00
C95    C     0.76400   0.15816   0.06249   0.00000  Uiso   1.00
C96    C     0.80456   0.17805   0.12654   0.00000  Uiso   1.00
C97    C     0.86433   0.20401   0.27551   0.00000  Uiso   1.00
C98    C     0.67835   0.16990   0.77129   0.00000  Uiso   1.00
C99    C     0.61773   0.17125   0.77375   0.00000  Uiso   1.00
C100   C     0.59140   0.19713   0.70575   0.00000  Uiso   1.00
C101   C     0.52781   0.23412   0.61114   0.00000  Uiso   1.00
C102   C     0.75384   0.12842   0.73139   0.00000  Uiso   1.00
C103   C     0.75667   0.09490   0.70027   0.00000  Uiso   1.00
C104   C     0.79389   0.08586   0.59865   0.00000  Uiso   1.00
C105   C     0.84750   0.05846   0.44208   0.00000  Uiso   1.00
C106   C     0.77710   0.18729   0.71370   0.00000  Uiso   1.00
C107   C     0.79096   0.18643   0.86015   0.00000  Uiso   1.00
C108   C     0.83153   0.20633   0.92402   0.00000  Uiso   1.00
C109   C     0.83778   0.20174   0.05844   0.00000  Uiso   1.00
C110   C     0.71150   0.19355   0.70331   0.00000  Uiso   1.00
C111   C     0.68526   0.21943   0.63528   0.00000  Uiso   1.00
C112   C     0.62462   0.22082   0.63765   0.00000  Uiso   1.00
C113   C     0.78699   0.15207   0.66341   0.00000  Uiso   1.00
C114   C     0.82421   0.14308   0.56180   0.00000  Uiso   1.00
C115   C     0.82711   0.10956   0.53054   0.00000  Uiso   1.00
H116   H     0.69024   0.12534   0.89178   0.00000  Uiso   1.00
H117   H     0.73832   0.13985   0.11506   0.00000  Uiso   1.00
H118   H     0.59208   0.15294   0.82636   0.00000  Uiso   1.00
H119   H     0.73101   0.07661   0.75290   0.00000  Uiso   1.00
H120   H     0.80624   0.16638   0.33264   0.00000  Uiso   1.00
H121   H     0.49788   0.19398   0.72386   0.00000  Uiso   1.00
H122   H     0.79083   0.03301   0.56894   0.00000  Uiso   1.00
H123   H     0.80291   0.20571   0.66077   0.00000  Uiso   1.00
H124   H     0.85718   0.22463   0.87138   0.00000  Uiso   1.00
H125   H     0.71094   0.23772   0.58268   0.00000  Uiso   1.00
H126   H     0.84986   0.16139   0.50922   0.00000  Uiso   1.00
H127   H     0.90271   0.23520   0.13486   0.00000  Uiso   1.00
H128   H     0.59434   0.26279   0.52607   0.00000  Uiso   1.00
H129   H     0.88730   0.10183   0.37116   0.00000  Uiso   1.00
O130   O     0.88813   0.21180   0.37647   0.00000  Uiso   1.00
O131   O     0.48357   0.24799   0.57775   0.00000  Uiso   1.00
O132   O     0.86792   0.03681   0.37451   0.00000  Uiso   1.00
N133   N     0.82151   0.17998   0.25718   0.00000  Uiso   1.00
N134   N     0.53320   0.20578   0.68803   0.00000  Uiso   1.00
N135   N     0.80708   0.05529   0.54317   0.00000  Uiso   1.00
N136   N     0.87342   0.21700   0.15076   0.00000  Uiso   1.00
N137   N     0.58511   0.24281   0.58160   0.00000  Uiso   1.00
N138   N     0.85899   0.09232   0.43675   0.00000  Uiso   1.00
C139   C     0.71606   0.64375   0.33886   0.00000  Uiso   1.00
C140   C     0.75781   0.66278   0.42814   0.00000  Uiso   1.00
C141   C     0.76400   0.65816   0.56249   0.00000  Uiso   1.00
C142   C     0.80456   0.67805   0.62654   0.00000  Uiso   1.00
C143   C     0.86433   0.70401   0.77551   0.00000  Uiso   1.00
C144   C     0.67835   0.66990   0.27129   0.00000  Uiso   1.00
C145   C     0.61773   0.67125   0.27375   0.00000  Uiso   1.00
C146   C     0.59140   0.69713   0.20575   0.00000  Uiso   1.00
C147   C     0.52781   0.73412   0.11114   0.00000  Uiso   1.00
C148   C     0.75384   0.62842   0.23139   0.00000  Uiso   1.00
C149   C     0.75667   0.59490   0.20027   0.00000  Uiso   1.00
C150   C     0.79389   0.58586   0.09865   0.00000  Uiso   1.00
C151   C     0.84750   0.55846   0.94208   0.00000  Uiso   1.00
C152   C     0.77710   0.68729   0.21370   0.00000  Uiso   1.00
C153   C     0.79096   0.68643   0.36015   0.00000  Uiso   1.00
C154   C     0.83153   0.70633   0.42402   0.00000  Uiso   1.00
C155   C     0.83778   0.70174   0.55844   0.00000  Uiso   1.00
C156   C     0.71150   0.69355   0.20331   0.00000  Uiso   1.00
C157   C     0.68526   0.71943   0.13528   0.00000  Uiso   1.00
C158   C     0.62462   0.72082   0.13765   0.00000  Uiso   1.00
C159   C     0.78699   0.65207   0.16341   0.00000  Uiso   1.00
C160   C     0.82421   0.64308   0.06180   0.00000  Uiso   1.00
C161   C     0.82711   0.60956   0.03054   0.00000  Uiso   1.00
H162   H     0.69024   0.62534   0.39178   0.00000  Uiso   1.00
H163   H     0.73832   0.63985   0.61506   0.00000  Uiso   1.00
H164   H     0.59208   0.65294   0.32636   0.00000  Uiso   1.00
H165   H     0.73101   0.57661   0.25290   0.00000  Uiso   1.00
H166   H     0.80624   0.66638   0.83264   0.00000  Uiso   1.00
H167   H     0.49788   0.69398   0.22386   0.00000  Uiso   1.00
H168   H     0.79083   0.53301   0.06894   0.00000  Uiso   1.00
H169   H     0.80291   0.70571   0.16077   0.00000  Uiso   1.00
H170   H     0.85718   0.72463   0.37138   0.00000  Uiso   1.00
H171   H     0.71094   0.73772   0.08268   0.00000  Uiso   1.00
H172   H     0.84986   0.66139   0.00922   0.00000  Uiso   1.00
H173   H     0.90271   0.73520   0.63486   0.00000  Uiso   1.00
H174   H     0.59434   0.76279   0.02607   0.00000  Uiso   1.00
H175   H     0.88730   0.60183   0.87116   0.00000  Uiso   1.00
O176   O     0.88813   0.71180   0.87647   0.00000  Uiso   1.00
O177   O     0.48357   0.74799   0.07775   0.00000  Uiso   1.00
O178   O     0.86792   0.53681   0.87451   0.00000  Uiso   1.00
N179   N     0.82151   0.67998   0.75718   0.00000  Uiso   1.00
N180   N     0.53320   0.70578   0.18803   0.00000  Uiso   1.00
N181   N     0.80708   0.55529   0.04317   0.00000  Uiso   1.00
N182   N     0.87342   0.71700   0.65076   0.00000  Uiso   1.00
N183   N     0.58511   0.74281   0.08160   0.00000  Uiso   1.00
N184   N     0.85899   0.59232   0.93675   0.00000  Uiso   1.00
C185   C     0.78394   0.85625   0.33886   0.00000  Uiso   1.00
C186   C     0.74219   0.83722   0.42814   0.00000  Uiso   1.00
C187   C     0.73600   0.84184   0.56249   0.00000  Uiso   1.00
C188   C     0.69544   0.82195   0.62654   0.00000  Uiso   1.00
C189   C     0.63567   0.79599   0.77551   0.00000  Uiso   1.00
C190   C     0.82165   0.83010   0.27129   0.00000  Uiso   1.00
C191   C     0.88227   0.82875   0.27375   0.00000  Uiso   1.00
C192   C     0.90860   0.80287   0.20575   0.00000  Uiso   1.00
C193   C     0.97219   0.76588   0.11114   0.00000  Uiso   1.00
C194   C     0.74616   0.87158   0.23139   0.00000  Uiso   1.00
C195   C     0.74333   0.90510   0.20027   0.00000  Uiso   1.00
C196   C     0.70611   0.91414   0.09865   0.00000  Uiso   1.00
C197   C     0.65250   0.94154   0.94208   0.00000  Uiso   1.00
C198   C     0.72290   0.81271   0.21370   0.00000  Uiso   1.00
C199   C     0.70904   0.81357   0.36015   0.00000  Uiso   1.00
C200   C     0.66847   0.79367   0.42402   0.00000  Uiso   1.00
C201   C     0.66222   0.79826   0.55844   0.00000  Uiso   1.00
C202   C     0.78850   0.80645   0.20331   0.00000  Uiso   1.00
C203   C     0.81474   0.78057   0.13528   0.00000  Uiso   1.00
C204   C     0.87538   0.77918   0.13765   0.00000  Uiso   1.00
C205   C     0.71301   0.84793   0.16341   0.00000  Uiso   1.00
C206   C     0.67579   0.85692   0.06180   0.00000  Uiso   1.00
C207   C     0.67289   0.89044   0.03054   0.00000  Uiso   1.00
H208   H     0.80976   0.87466   0.39178   0.00000  Uiso   1.00
H209   H     0.76168   0.86015   0.61506   0.00000  Uiso   1.00
H210   H     0.90792   0.84706   0.32636   0.00000  Uiso   1.00
H211   H     0.76899   0.92339   0.25290   0.00000  Uiso   1.00
H212   H     0.69376   0.83362   0.83264   0.00000  Uiso   1.00
H213   H     0.00212   0.80602   0.22386   0.00000  Uiso   1.00
H214   H     0.70917   0.96699   0.06894   0.00000  Uiso   1.00
H215   H     0.69709   0.79429   0.16077   0.00000  Uiso   1.00
H216   H     0.64282   0.77537   0.37138   0.00000  Uiso   1.00
H217   H     0.78906   0.76228   0.08268   0.00000  Uiso   1.00
H218   H     0.65014   0.83861   0.00922   0.00000  Uiso   1.00
H219   H     0.59729   0.76480   0.63486   0.00000  Uiso   1.00
H220   H     0.90566   0.73721   0.02607   0.00000  Uiso   1.00
H221   H     0.61270   0.89817   0.87116   0.00000  Uiso   1.00
O222   O     0.61187   0.78820   0.87647   0.00000  Uiso   1.00
O223   O     0.01643   0.75201   0.07775   0.00000  Uiso   1.00
O224   O     0.63208   0.96319   0.87451   0.00000  Uiso   1.00
N225   N     0.67849   0.82002   0.75718   0.00000  Uiso   1.00
N226   N     0.96680   0.79422   0.18803   0.00000  Uiso   1.00
N227   N     0.69292   0.94471   0.04317   0.00000  Uiso   1.00
N228   N     0.62658   0.78300   0.65076   0.00000  Uiso   1.00
N229   N     0.91489   0.75719   0.08160   0.00000  Uiso   1.00
N230   N     0.64101   0.90768   0.93675   0.00000  Uiso   1.00
C231   C     0.78394   0.35625   0.83886   0.00000  Uiso   1.00
C232   C     0.74219   0.33722   0.92814   0.00000  Uiso   1.00
C233   C     0.73600   0.34184   0.06249   0.00000  Uiso   1.00
C234   C     0.69544   0.32195   0.12654   0.00000  Uiso   1.00
C235   C     0.63567   0.29599   0.27551   0.00000  Uiso   1.00
C236   C     0.82165   0.33010   0.77129   0.00000  Uiso   1.00
C237   C     0.88227   0.32875   0.77375   0.00000  Uiso   1.00
C238   C     0.90860   0.30287   0.70575   0.00000  Uiso   1.00
C239   C     0.97219   0.26588   0.61114   0.00000  Uiso   1.00
C240   C     0.74616   0.37158   0.73139   0.00000  Uiso   1.00
C241   C     0.74333   0.40510   0.70027   0.00000  Uiso   1.00
C242   C     0.70611   0.41414   0.59865   0.00000  Uiso   1.00
C243   C     0.65250   0.44154   0.44208   0.00000  Uiso   1.00
C244   C     0.72290   0.31271   0.71370   0.00000  Uiso   1.00
C245   C     0.70904   0.31357   0.86015   0.00000  Uiso   1.00
C246   C     0.66847   0.29367   0.92402   0.00000  Uiso   1.00
C247   C     0.66222   0.29826   0.05844   0.00000  Uiso   1.00
C248   C     0.78850   0.30645   0.70331   0.00000  Uiso   1.00
C249   C     0.81474   0.28057   0.63528   0.00000  Uiso   1.00
C250   C     0.87538   0.27918   0.63765   0.00000  Uiso   1.00
C251   C     0.71301   0.34793   0.66341   0.00000  Uiso   1.00
C252   C     0.67579   0.35692   0.56180   0.00000  Uiso   1.00
C253   C     0.67289   0.39044   0.53054   0.00000  Uiso   1.00
H254   H     0.80976   0.37466   0.89178   0.00000  Uiso   1.00
H255   H     0.76168   0.36015   0.11506   0.00000  Uiso   1.00
H256   H     0.90792   0.34706   0.82636   0.00000  Uiso   1.00
H257   H     0.76899   0.42339   0.75290   0.00000  Uiso   1.00
H258   H     0.69376   0.33362   0.33264   0.00000  Uiso   1.00
H259   H     0.00212   0.30602   0.72386   0.00000  Uiso   1.00
H260   H     0.70917   0.46699   0.56894   0.00000  Uiso   1.00
H261   H     0.69709   0.29429   0.66077   0.00000  Uiso   1.00
H262   H     0.64282   0.27537   0.87138   0.00000  Uiso   1.00
H263   H     0.78906   0.26228   0.58268   0.00000  Uiso   1.00
H264   H     0.65014   0.33861   0.50922   0.00000  Uiso   1.00
H265   H     0.59729   0.26480   0.13486   0.00000  Uiso   1.00
H266   H     0.90566   0.23721   0.52607   0.00000  Uiso   1.00
H267   H     0.61270   0.39817   0.37116   0.00000  Uiso   1.00
O268   O     0.61187   0.28820   0.37647   0.00000  Uiso   1.00
O269   O     0.01643   0.25201   0.57775   0.00000  Uiso   1.00
O270   O     0.63208   0.46319   0.37451   0.00000  Uiso   1.00
N271   N     0.67849   0.32002   0.25718   0.00000  Uiso   1.00
N272   N     0.96680   0.29422   0.68803   0.00000  Uiso   1.00
N273   N     0.69292   0.44471   0.54317   0.00000  Uiso   1.00
N274   N     0.62658   0.28300   0.15076   0.00000  Uiso   1.00
N275   N     0.91489   0.25719   0.58160   0.00000  Uiso   1.00
N276   N     0.64101   0.40768   0.43675   0.00000  Uiso   1.00
C277   C     0.28394   0.85625   0.83886   0.00000  Uiso   1.00
C278   C     0.24219   0.83722   0.92814   0.00000  Uiso   1.00
C279   C     0.23600   0.84184   0.06249   0.00000  Uiso   1.00
C280   C     0.19544   0.82195   0.12654   0.00000  Uiso   1.00
C281   C     0.13567   0.79599   0.27551   0.00000  Uiso   1.00
C282   C     0.32165   0.83010   0.77129   0.00000  Uiso   1.00
C283   C     0.38227   0.82875   0.77375   0.00000  Uiso   1.00
C284   C     0.40860   0.80287   0.70575   0.00000  Uiso   1.00
C285   C     0.47219   0.76588   0.61114   0.00000  Uiso   1.00
C286   C     0.24616   0.87158   0.73139   0.00000  Uiso   1.00
C287   C     0.24333   0.90510   0.70027   0.00000  Uiso   1.00
C288   C     0.20611   0.91414   0.59865   0.00000  Uiso   1.00
C289   C     0.15250   0.94154   0.44208   0.00000  Uiso   1.00
C290   C     0.22290   0.81271   0.71370   0.00000  Uiso   1.00
C291   C     0.20904   0.81357   0.86015   0.00000  Uiso   1.00
C292   C     0.16847   0.79367   0.92402   0.00000  Uiso   1.00
C293   C     0.16222   0.79826   0.05844   0.00000  Uiso   1.00
C294   C     0.28850   0.80645   0.70331   0.00000  Uiso   1.00
C295   C     0.31474   0.78057   0.63528   0.00000  Uiso   1.00
C296   C     0.37538   0.77918   0.63765   0.00000  Uiso   1.00
C297   C     0.21301   0.84793   0.66341   0.00000  Uiso   1.00
C298   C     0.17579   0.85692   0.56180   0.00000  Uiso   1.00
C299   C     0.17289   0.89044   0.53054   0.00000  Uiso   1.00
H300   H     0.30976   0.87466   0.89178   0.00000  Uiso   1.00
H301   H     0.26168   0.86015   0.11506   0.00000  Uiso   1.00
H302   H     0.40792   0.84706   0.82636   0.00000  Uiso   1.00
H303   H     0.26899   0.92339   0.75290   0.00000  Uiso   1.00
H304   H     0.19376   0.83362   0.33264   0.00000  Uiso   1.00
H305   H     0.50212   0.80602   0.72386   0.00000  Uiso   1.00
H306   H     0.20917   0.96699   0.56894   0.00000  Uiso   1.00
H307   H     0.19709   0.79429   0.66077   0.00000  Uiso   1.00
H308   H     0.14282   0.77537   0.87138   0.00000  Uiso   1.00
H309   H     0.28906   0.76228   0.58268   0.00000  Uiso   1.00
H310   H     0.15014   0.83861   0.50922   0.00000  Uiso   1.00
H311   H     0.09729   0.76480   0.13486   0.00000  Uiso   1.00
H312   H     0.40566   0.73721   0.52607   0.00000  Uiso   1.00
H313   H     0.11270   0.89817   0.37116   0.00000  Uiso   1.00
O314   O     0.11187   0.78820   0.37647   0.00000  Uiso   1.00
O315   O     0.51643   0.75201   0.57775   0.00000  Uiso   1.00
O316   O     0.13208   0.96319   0.37451   0.00000  Uiso   1.00
N317   N     0.17849   0.82002   0.25718   0.00000  Uiso   1.00
N318   N     0.46680   0.79422   0.68803   0.00000  Uiso   1.00
N319   N     0.19292   0.94471   0.54317   0.00000  Uiso   1.00
N320   N     0.12658   0.78300   0.15076   0.00000  Uiso   1.00
N321   N     0.41489   0.75719   0.58160   0.00000  Uiso   1.00
N322   N     0.14101   0.90768   0.43675   0.00000  Uiso   1.00
C323   C     0.28394   0.35625   0.33886   0.00000  Uiso   1.00
C324   C     0.24219   0.33722   0.42814   0.00000  Uiso   1.00
C325   C     0.23600   0.34184   0.56249   0.00000  Uiso   1.00
C326   C     0.19544   0.32195   0.62654   0.00000  Uiso   1.00
C327   C     0.13567   0.29599   0.77551   0.00000  Uiso   1.00
C328   C     0.32165   0.33010   0.27129   0.00000  Uiso   1.00
C329   C     0.38227   0.32875   0.27375   0.00000  Uiso   1.00
C330   C     0.40860   0.30287   0.20575   0.00000  Uiso   1.00
C331   C     0.47219   0.26588   0.11114   0.00000  Uiso   1.00
C332   C     0.24616   0.37158   0.23139   0.00000  Uiso   1.00
C333   C     0.24333   0.40510   0.20027   0.00000  Uiso   1.00
C334   C     0.20611   0.41414   0.09865   0.00000  Uiso   1.00
C335   C     0.15250   0.44154   0.94208   0.00000  Uiso   1.00
C336   C     0.22290   0.31271   0.21370   0.00000  Uiso   1.00
C337   C     0.20904   0.31357   0.36015   0.00000  Uiso   1.00
C338   C     0.16847   0.29367   0.42402   0.00000  Uiso   1.00
C339   C     0.16222   0.29826   0.55844   0.00000  Uiso   1.00
C340   C     0.28850   0.30645   0.20331   0.00000  Uiso   1.00
C341   C     0.31474   0.28057   0.13528   0.00000  Uiso   1.00
C342   C     0.37538   0.27918   0.13765   0.00000  Uiso   1.00
C343   C     0.21301   0.34793   0.16341   0.00000  Uiso   1.00
C344   C     0.17579   0.35692   0.06180   0.00000  Uiso   1.00
C345   C     0.17289   0.39044   0.03054   0.00000  Uiso   1.00
H346   H     0.30976   0.37466   0.39178   0.00000  Uiso   1.00
H347   H     0.26168   0.36015   0.61506   0.00000  Uiso   1.00
H348   H     0.40792   0.34706   0.32636   0.00000  Uiso   1.00
H349   H     0.26899   0.42339   0.25290   0.00000  Uiso   1.00
H350   H     0.19376   0.33362   0.83264   0.00000  Uiso   1.00
H351   H     0.50212   0.30602   0.22386   0.00000  Uiso   1.00
H352   H     0.20917   0.46699   0.06894   0.00000  Uiso   1.00
H353   H     0.19709   0.29429   0.16077   0.00000  Uiso   1.00
H354   H     0.14282   0.27537   0.37138   0.00000  Uiso   1.00
H355   H     0.28906   0.26228   0.08268   0.00000  Uiso   1.00
H356   H     0.15014   0.33861   0.00922   0.00000  Uiso   1.00
H357   H     0.09729   0.26480   0.63486   0.00000  Uiso   1.00
H358   H     0.40566   0.23721   0.02607   0.00000  Uiso   1.00
H359   H     0.11270   0.39817   0.87116   0.00000  Uiso   1.00
O360   O     0.11187   0.28820   0.87647   0.00000  Uiso   1.00
O361   O     0.51643   0.25201   0.07775   0.00000  Uiso   1.00
O362   O     0.13208   0.46319   0.87451   0.00000  Uiso   1.00
N363   N     0.17849   0.32002   0.75718   0.00000  Uiso   1.00
N364   N     0.46680   0.29422   0.18803   0.00000  Uiso   1.00
N365   N     0.19292   0.44471   0.04317   0.00000  Uiso   1.00
N366   N     0.12658   0.28300   0.65076   0.00000  Uiso   1.00
N367   N     0.41489   0.25719   0.08160   0.00000  Uiso   1.00
N368   N     0.14101   0.40768   0.93675   0.00000  Uiso   1.00
C369   C     0.46606   0.10625   0.58886   0.00000  Uiso   1.00
C370   C     0.50781   0.08722   0.67814   0.00000  Uiso   1.00
C371   C     0.51400   0.09184   0.81249   0.00000  Uiso   1.00
C372   C     0.55456   0.07195   0.87654   0.00000  Uiso   1.00
C373   C     0.61433   0.04599   0.02551   0.00000  Uiso   1.00
C374   C     0.42835   0.08010   0.52129   0.00000  Uiso   1.00
C375   C     0.36773   0.07875   0.52375   0.00000  Uiso   1.00
C376   C     0.34140   0.05287   0.45575   0.00000  Uiso   1.00
C377   C     0.27781   0.01588   0.36114   0.00000  Uiso   1.00
C378   C     0.50384   0.12158   0.48139   0.00000  Uiso   1.00
C379   C     0.50667   0.15510   0.45027   0.00000  Uiso   1.00
C380   C     0.54389   0.16414   0.34865   0.00000  Uiso   1.00
C381   C     0.59750   0.19154   0.19208   0.00000  Uiso   1.00
C382   C     0.52710   0.06271   0.46370   0.00000  Uiso   1.00
C383   C     0.54096   0.06357   0.61015   0.00000  Uiso   1.00
C384   C     0.58153   0.04367   0.67402   0.00000  Uiso   1.00
C385   C     0.58778   0.04826   0.80844   0.00000  Uiso   1.00
C386   C     0.46150   0.05645   0.45331   0.00000  Uiso   1.00
C387   C     0.43526   0.03057   0.38528   0.00000  Uiso   1.00
C388   C     0.37462   0.02918   0.38765   0.00000  Uiso   1.00
C389   C     0.53699   0.09793   0.41341   0.00000  Uiso   1.00
C390   C     0.57421   0.10692   0.31180   0.00000  Uiso   1.00
C391   C     0.57711   0.14044   0.28054   0.00000  Uiso   1.00
H392   H     0.44024   0.12466   0.64178   0.00000  Uiso   1.00
H393   H     0.48832   0.11015   0.86506   0.00000  Uiso   1.00
H394   H     0.34208   0.09706   0.57636   0.00000  Uiso   1.00
H395   H     0.48101   0.17339   0.50290   0.00000  Uiso   1.00
H396   H     0.55624   0.08362   0.08264   0.00000  Uiso   1.00
H397   H     0.24788   0.05602   0.47386   0.00000  Uiso   1.00
H398   H     0.54083   0.21699   0.31894   0.00000  Uiso   1.00
H399   H     0.55291   0.04429   0.41077   0.00000  Uiso   1.00
H400   H     0.60718   0.02537   0.62138   0.00000  Uiso   1.00
H401   H     0.46094   0.01228   0.33268   0.00000  Uiso   1.00
H402   H     0.59986   0.08861   0.25922   0.00000  Uiso   1.00
H403   H     0.65271   0.01480   0.88486   0.00000  Uiso   1.00
H404   H     0.34434   0.98721   0.27607   0.00000  Uiso   1.00
H405   H     0.63730   0.14817   0.12116   0.00000  Uiso   1.00
O406   O     0.63813   0.03820   0.12647   0.00000  Uiso   1.00
O407   O     0.23357   0.00201   0.32775   0.00000  Uiso   1.00
O408   O     0.61792   0.21319   0.12451   0.00000  Uiso   1.00
N409   N     0.57151   0.07002   0.00718   0.00000  Uiso   1.00
N410   N     0.28320   0.04422   0.43803   0.00000  Uiso   1.00
N411   N     0.55708   0.19471   0.29317   0.00000  Uiso   1.00
N412   N     0.62342   0.03300   0.90076   0.00000  Uiso   1.00
N413   N     0.33511   0.00719   0.33160   0.00000  Uiso   1.00
N414   N     0.60899   0.15768   0.18675   0.00000  Uiso   1.00
C415   C     0.46606   0.60625   0.08886   0.00000  Uiso   1.00
C416   C     0.50781   0.58722   0.17814   0.00000  Uiso   1.00
C417   C     0.51400   0.59184   0.31249   0.00000  Uiso   1.00
C418   C     0.55456   0.57195   0.37654   0.00000  Uiso   1.00
C419   C     0.61433   0.54599   0.52551   0.00000  Uiso   1.00
C420   C     0.42835   0.58010   0.02129   0.00000  Uiso   1.00
C421   C     0.36773   0.57875   0.02375   0.00000  Uiso   1.00
C422   C     0.34140   0.55287   0.95575   0.00000  Uiso   1.00
C423   C     0.27781   0.51588   0.86114   0.00000  Uiso   1.00
C424   C     0.50384   0.62158   0.98139   0.00000  Uiso   1.00
C425   C     0.50667   0.65510   0.95027   0.00000  Uiso   1.00
C426   C     0.54389   0.66414   0.84865   0.00000  Uiso   1.00
C427   C     0.59750   0.69154   0.69208   0.00000  Uiso   1.00
C428   C     0.52710   0.56271   0.96370   0.00000  Uiso   1.00
C429   C     0.54096   0.56357   0.11015   0.00000  Uiso   1.00
C430   C     0.58153   0.54367   0.17402   0.00000  Uiso   1.00
C431   C     0.58778   0.54826   0.30844   0.00000  Uiso   1.00
C432   C     0.46150   0.55645   0.95331   0.00000  Uiso   1.00
C433   C     0.43526   0.53057   0.88528   0.00000  Uiso   1.00
C434   C     0.37462   0.52918   0.88765   0.00000  Uiso   1.00
C435   C     0.53699   0.59793   0.91341   0.00000  Uiso   1.00
C436   C     0.57421   0.60692   0.81180   0.00000  Uiso   1.00
C437   C     0.57711   0.64044   0.78054   0.00000  Uiso   1.00
H438   H     0.44024   0.62466   0.14178   0.00000  Uiso   1.00
H439   H     0.48832   0.61015   0.36506   0.00000  Uiso   1.00
H440   H     0.34208   0.59706   0.07636   0.00000  Uiso   1.00
H441   H     0.48101   0.67339   0.00290   0.00000  Uiso   1.00
H442   H     0.55624   0.58362   0.58264   0.00000  Uiso   1.00
H443   H     0.24788   0.55602   0.97386   0.00000  Uiso   1.00
H444   H     0.54083   0.71699   0.81894   0.00000  Uiso   1.00
H445   H     0.55291   0.54429   0.91077   0.00000  Uiso   1.00
H446   H     0.60718   0.52537   0.12138   0.00000  Uiso   1.00
H447   H     0.46094   0.51228   0.83268   0.00000  Uiso   1.00
H448   H     0.59986   0.58861   0.75922   0.00000  Uiso   1.00
H449   H     0.65271   0.51480   0.38486   0.00000  Uiso   1.00
H450   H     0.34434   0.48721   0.77607   0.00000  Uiso   1.00
H451   H     0.63730   0.64817   0.62116   0.00000  Uiso   1.00
O452   O     0.63813   0.53820   0.62647   0.00000  Uiso   1.00
O453   O     0.23357   0.50201   0.82775   0.00000  Uiso   1.00
O454   O     0.61792   0.71319   0.62451   0.00000  Uiso   1.00
N455   N     0.57151   0.57002   0.50718   0.00000  Uiso   1.00
N456   N     0.28320   0.54422   0.93803   0.00000  Uiso   1.00
N457   N     0.55708   0.69471   0.79317   0.00000  Uiso   1.00
N458   N     0.62342   0.53300   0.40076   0.00000  Uiso   1.00
N459   N     0.33511   0.50719   0.83160   0.00000  Uiso   1.00
N460   N     0.60899   0.65768   0.68675   0.00000  Uiso   1.00
C461   C     0.96606   0.10625   0.08886   0.00000  Uiso   1.00
C462   C     0.00781   0.08722   0.17814   0.00000  Uiso   1.00
C463   C     0.01400   0.09184   0.31249   0.00000  Uiso   1.00
C464   C     0.05456   0.07195   0.37654   0.00000  Uiso   1.00
C465   C     0.11433   0.04599   0.52551   0.00000  Uiso   1.00
C466   C     0.92835   0.08010   0.02129   0.00000  Uiso   1.00
C467   C     0.86773   0.07875   0.02375   0.00000  Uiso   1.00
C468   C     0.84140   0.05287   0.95575   0.00000  Uiso   1.00
C469   C     0.77781   0.01588   0.86114   0.00000  Uiso   1.00
C470   C     0.00384   0.12158   0.98139   0.00000  Uiso   1.00
C471   C     0.00667   0.15510   0.95027   0.00000  Uiso   1.00
C472   C     0.04389   0.16414   0.84865   0.00000  Uiso   1.00
C473   C     0.09750   0.19154   0.69208   0.00000  Uiso   1.00
C474   C     0.02710   0.06271   0.96370   0.00000  Uiso   1.00
C475   C     0.04096   0.06357   0.11015   0.00000  Uiso   1.00
C476   C     0.08153   0.04367   0.17402   0.00000  Uiso   1.00
C477   C     0.08778   0.04826   0.30844   0.00000  Uiso   1.00
C478   C     0.96150   0.05645   0.95331   0.00000  Uiso   1.00
C479   C     0.93526   0.03057   0.88528   0.00000  Uiso   1.00
C480   C     0.87462   0.02918   0.88765   0.00000  Uiso   1.00
C481   C     0.03699   0.09793   0.91341   0.00000  Uiso   1.00
C482   C     0.07421   0.10692   0.81180   0.00000  Uiso   1.00
C483   C     0.07711   0.14044   0.78054   0.00000  Uiso   1.00
H484   H     0.94024   0.12466   0.14178   0.00000  Uiso   1.00
H485   H     0.98832   0.11015   0.36506   0.00000  Uiso   1.00
H486   H     0.84208   0.09706   0.07636   0.00000  Uiso   1.00
H487   H     0.98101   0.17339   0.00290   0.00000  Uiso   1.00
H488   H     0.05624   0.08362   0.58264   0.00000  Uiso   1.00
H489   H     0.74788   0.05602   0.97386   0.00000  Uiso   1.00
H490   H     0.04083   0.21699   0.81894   0.00000  Uiso   1.00
H491   H     0.05291   0.04429   0.91077   0.00000  Uiso   1.00
H492   H     0.10718   0.02537   0.12138   0.00000  Uiso   1.00
H493   H     0.96094   0.01228   0.83268   0.00000  Uiso   1.00
H494   H     0.09986   0.08861   0.75922   0.00000  Uiso   1.00
H495   H     0.15271   0.01480   0.38486   0.00000  Uiso   1.00
H496   H     0.84434   0.98721   0.77607   0.00000  Uiso   1.00
H497   H     0.13730   0.14817   0.62116   0.00000  Uiso   1.00
O498   O     0.13813   0.03820   0.62647   0.00000  Uiso   1.00
O499   O     0.73357   0.00201   0.82775   0.00000  Uiso   1.00
O500   O     0.11792   0.21319   0.62451   0.00000  Uiso   1.00
N501   N     0.07151   0.07002   0.50718   0.00000  Uiso   1.00
N502   N     0.78320   0.04422   0.93803   0.00000  Uiso   1.00
N503   N     0.05708   0.19471   0.79317   0.00000  Uiso   1.00
N504   N     0.12342   0.03300   0.40076   0.00000  Uiso   1.00
N505   N     0.83511   0.00719   0.83160   0.00000  Uiso   1.00
N506   N     0.10899   0.15768   0.68675   0.00000  Uiso   1.00
C507   C     0.96606   0.60625   0.58886   0.00000  Uiso   1.00
C508   C     0.00781   0.58722   0.67814   0.00000  Uiso   1.00
C509   C     0.01400   0.59184   0.81249   0.00000  Uiso   1.00
C510   C     0.05456   0.57195   0.87654   0.00000  Uiso   1.00
C511   C     0.11433   0.54599   0.02551   0.00000  Uiso   1.00
C512   C     0.92835   0.58010   0.52129   0.00000  Uiso   1.00
C513   C     0.86773   0.57875   0.52375   0.00000  Uiso   1.00
C514   C     0.84140   0.55287   0.45575   0.00000  Uiso   1.00
C515   C     0.77781   0.51588   0.36114   0.00000  Uiso   1.00
C516   C     0.00384   0.62158   0.48139   0.00000  Uiso   1.00
C517   C     0.00667   0.65510   0.45027   0.00000  Uiso   1.00
C518   C     0.04389   0.66414   0.34865   0.00000  Uiso   1.00
C519   C     0.09750   0.69154   0.19208   0.00000  Uiso   1.00
C520   C     0.02710   0.56271   0.46370   0.00000  Uiso   1.00
C521   C     0.04096   0.56357   0.61015   0.00000  Uiso   1.00
C522   C     0.08153   0.54367   0.67402   0.00000  Uiso   1.00
C523   C     0.08778   0.54826   0.80844   0.00000  Uiso   1.00
C524   C     0.96150   0.55645   0.45331   0.00000  Uiso   1.00
C525   C     0.93526   0.53057   0.38528   0.00000  Uiso   1.00
C526   C     0.87462   0.52918   0.38765   0.00000  Uiso   1.00
C527   C     0.03699   0.59793   0.41341   0.00000  Uiso   1.00
C528   C     0.07421   0.60692   0.31180   0.00000  Uiso   1.00
C529   C     0.07711   0.64044   0.28054   0.00000  Uiso   1.00
H530   H     0.94024   0.62466   0.64178   0.00000  Uiso   1.00
H531   H     0.98832   0.61015   0.86506   0.00000  Uiso   1.00
H532   H     0.84208   0.59706   0.57636   0.00000  Uiso   1.00
H533   H     0.98101   0.67339   0.50290   0.00000  Uiso   1.00
H534   H     0.05624   0.58362   0.08264   0.00000  Uiso   1.00
H535   H     0.74788   0.55602   0.47386   0.00000  Uiso   1.00
H536   H     0.04083   0.71699   0.31894   0.00000  Uiso   1.00
H537   H     0.05291   0.54429   0.41077   0.00000  Uiso   1.00
H538   H     0.10718   0.52537   0.62138   0.00000  Uiso   1.00
H539   H     0.96094   0.51228   0.33268   0.00000  Uiso   1.00
H540   H     0.09986   0.58861   0.25922   0.00000  Uiso   1.00
H541   H     0.15271   0.51480   0.88486   0.00000  Uiso   1.00
H542   H     0.84434   0.48721   0.27607   0.00000  Uiso   1.00
H543   H     0.13730   0.64817   0.12116   0.00000  Uiso   1.00
O544   O     0.13813   0.53820   0.12647   0.00000  Uiso   1.00
O545   O     0.73357   0.50201   0.32775   0.00000  Uiso   1.00
O546   O     0.11792   0.71319   0.12451   0.00000  Uiso   1.00
N547   N     0.07151   0.57002   0.00718   0.00000  Uiso   1.00
N548   N     0.78320   0.54422   0.43803   0.00000  Uiso   1.00
N549   N     0.05708   0.69471   0.29317   0.00000  Uiso   1.00
N550   N     0.12342   0.53300   0.90076   0.00000  Uiso   1.00
N551   N     0.83511   0.50719   0.33160   0.00000  Uiso   1.00
N552   N     0.10899   0.65768   0.18675   0.00000  Uiso   1.00
C553   C     0.03394   0.39375   0.58886   0.00000  Uiso   1.00
C554   C     0.99219   0.41278   0.67814   0.00000  Uiso   1.00
C555   C     0.98600   0.40816   0.81249   0.00000  Uiso   1.00
C556   C     0.94544   0.42805   0.87654   0.00000  Uiso   1.00
C557   C     0.88567   0.45401   0.02551   0.00000  Uiso   1.00
C558   C     0.07165   0.41990   0.52129   0.00000  Uiso   1.00
C559   C     0.13227   0.42125   0.52375   0.00000  Uiso   1.00
C560   C     0.15860   0.44713   0.45575   0.00000  Uiso   1.00
C561   C     0.22219   0.48412   0.36114   0.00000  Uiso   1.00
C562   C     0.99616   0.37842   0.48139   0.00000  Uiso   1.00
C563   C     0.99333   0.34490   0.45027   0.00000  Uiso   1.00
C564   C     0.95611   0.33586   0.34865   0.00000  Uiso   1.00
C565   C     0.90250   0.30846   0.19208   0.00000  Uiso   1.00
C566   C     0.97290   0.43729   0.46370   0.00000  Uiso   1.00
C567   C     0.95904   0.43643   0.61015   0.00000  Uiso   1.00
C568   C     0.91847   0.45633   0.67402   0.00000  Uiso   1.00
C569   C     0.91222   0.45174   0.80844   0.00000  Uiso   1.00
C570   C     0.03850   0.44355   0.45331   0.00000  Uiso   1.00
C571   C     0.06474   0.46943   0.38528   0.00000  Uiso   1.00
C572   C     0.12538   0.47082   0.38765   0.00000  Uiso   1.00
C573   C     0.96301   0.40207   0.41341   0.00000  Uiso   1.00
C574   C     0.92579   0.39308   0.31180   0.00000  Uiso   1.00
C575   C     0.92289   0.35956   0.28054   0.00000  Uiso   1.00
H576   H     0.05976   0.37534   0.64178   0.00000  Uiso   1.00
H577   H     0.01168   0.38985   0.86506   0.00000  Uiso   1.00
H578   H     0.15792   0.40294   0.57636   0.00000  Uiso   1.00
H579   H     0.01899   0.32661   0.50290   0.00000  Uiso   1.00
H580   H     0.94376   0.41638   0.08264   0.00000  Uiso   1.00
H581   H     0.25212   0.44398   0.47386   0.00000  Uiso   1.00
H582   H     0.95917   0.28301   0.31894   0.00000  Uiso   1.00
H583   H     0.94709   0.45571   0.41077   0.00000  Uiso   1.00
H584   H     0.89282   0.47463   0.62138   0.00000  Uiso   1.00
H585   H     0.03906   0.48772   0.33268   0.00000  Uiso   1.00
H586   H     0.90014   0.41139   0.25922   0.00000  Uiso   1.00
H587   H     0.84729   0.48520   0.88486   0.00000  Uiso   1.00
H588   H     0.15566   0.51279   0.27607   0.00000  Uiso   1.00
H589   H     0.86270   0.35183   0.12116   0.00000  Uiso   1.00
O590   O     0.86187   0.46180   0.12647   0.00000  Uiso   1.00
O591   O     0.26643   0.49799   0.32775   0.00000  Uiso   1.00
O592   O     0.88208   0.28681   0.12451   0.00000  Uiso   1.00
N593   N     0.92849   0.42998   0.00718   0.00000  Uiso   1.00
N594   N     0.21680   0.45578   0.43803   0.00000  Uiso   1.00
N595   N     0.94292   0.30529   0.29317   0.00000  Uiso   1.00
N596   N     0.87658   0.46700   0.90076   0.00000  Uiso   1.00
N597   N     0.16489   0.49281   0.33160   0.00000  Uiso   1.00
N598   N     0.89101   0.34232   0.18675   0.00000  Uiso   1.00
C599   C     0.03394   0.89375   0.08886   0.00000  Uiso   1.00
C600   C     0.99219   0.91278   0.17814   0.00000  Uiso   1.00
C601   C     0.98600   0.90816   0.31249   0.00000  Uiso   1.00
C602   C     0.94544   0.92805   0.37654   0.00000  Uiso   1.00
C603   C     0.88567   0.95401   0.52551   0.00000  Uiso   1.00
C604   C     0.07165   0.91990   0.02129   0.00000  Uiso   1.00
C605   C     0.13227   0.92125   0.02375   0.00000  Uiso   1.00
C606   C     0.15860   0.94713   0.95575   0.00000  Uiso   1.00
C607   C     0.22219   0.98412   0.86114   0.00000  Uiso   1.00
C608   C     0.99616   0.87842   0.98139   0.00000  Uiso   1.00
C609   C     0.99333   0.84490   0.95027   0.00000  Uiso   1.00
C610   C     0.95611   0.83586   0.84865   0.00000  Uiso   1.00
C611   C     0.90250   0.80846   0.69208   0.00000  Uiso   1.00
C612   C     0.97290   0.93729   0.96370   0.00000  Uiso   1.00
C613   C     0.95904   0.93643   0.11015   0.00000  Uiso   1.00
C614   C     0.91847   0.95633   0.17402   0.00000  Uiso   1.00
C615   C     0.91222   0.95174   0.30844   0.00000  Uiso   1.00
C616   C     0.03850   0.94355   0.95331   0.00000  Uiso   1.00
C617   C     0.06474   0.96943   0.88528   0.00000  Uiso   1.00
C618   C     0.12538   0.97082   0.88765   0.00000  Uiso   1.00
C619   C     0.96301   0.90207   0.91341   0.00000  Uiso   1.00
C620   C     0.92579   0.89308   0.81180   0.00000  Uiso   1.00
C621   C     0.92289   0.85956   0.78054   0.00000  Uiso   1.00
H622   H     0.05976   0.87534   0.14178   0.00000  Uiso   1.00
H623   H     0.01168   0.88985   0.36506   0.00000  Uiso   1.00
H624   H     0.15792   0.90294   0.07636   0.00000  Uiso   1.00
H625   H     0.01899   0.82661   0.00290   0.00000  Uiso   1.00
H626   H     0.94376   0.91638   0.58264   0.00000  Uiso   1.00
H627   H     0.25212   0.94398   0.97386   0.00000  Uiso   1.00
H628   H     0.95917   0.78301   0.81894   0.00000  Uiso   1.00
H629   H     0.94709   0.95571   0.91077   0.00000  Uiso   1.00
H630   H     0.89282   0.97463   0.12138   0.00000  Uiso   1.00
H631   H     0.03906   0.98772   0.83268   0.00000  Uiso   1.00
H632   H     0.90014   0.91139   0.75922   0.00000  Uiso   1.00
H633   H     0.84729   0.98520   0.38486   0.00000  Uiso   1.00
H634   H     0.15566   0.01279   0.77607   0.00000  Uiso   1.00
H635   H     0.86270   0.85183   0.62116   0.00000  Uiso   1.00
O636   O     0.86187   0.96180   0.62647   0.00000  Uiso   1.00
O637   O     0.26643   0.99799   0.82775   0.00000  Uiso   1.00
O638   O     0.88208   0.78681   0.62451   0.00000  Uiso   1.00
N639   N     0.92849   0.92998   0.50718   0.00000  Uiso   1.00
N640   N     0.21680   0.95578   0.93803   0.00000  Uiso   1.00
N641   N     0.94292   0.80529   0.79317   0.00000  Uiso   1.00
N642   N     0.87658   0.96700   0.40076   0.00000  Uiso   1.00
N643   N     0.16489   0.99281   0.83160   0.00000  Uiso   1.00
N644   N     0.89101   0.84232   0.68675   0.00000  Uiso   1.00
C645   C     0.53394   0.39375   0.08886   0.00000  Uiso   1.00
C646   C     0.49219   0.41278   0.17814   0.00000  Uiso   1.00
C647   C     0.48600   0.40816   0.31249   0.00000  Uiso   1.00
C648   C     0.44544   0.42805   0.37654   0.00000  Uiso   1.00
C649   C     0.38567   0.45401   0.52551   0.00000  Uiso   1.00
C650   C     0.57165   0.41990   0.02129   0.00000  Uiso   1.00
C651   C     0.63227   0.42125   0.02375   0.00000  Uiso   1.00
C652   C     0.65860   0.44713   0.95575   0.00000  Uiso   1.00
C653   C     0.72219   0.48412   0.86114   0.00000  Uiso   1.00
C654   C     0.49616   0.37842   0.98139   0.00000  Uiso   1.00
C655   C     0.49333   0.34490   0.95027   0.00000  Uiso   1.00
C656   C     0.45611   0.33586   0.84865   0.00000  Uiso   1.00
C657   C     0.40250   0.30846   0.69208   0.00000  Uiso   1.00
C658   C     0.47290   0.43729   0.96370   0.00000  Uiso   1.00
C659   C     0.45904   0.43643   0.11015   0.00000  Uiso   1.00
C660   C     0.41847   0.45633   0.17402   0.00000  Uiso   1.00
C661   C     0.41222   0.45174   0.30844   0.00000  Uiso   1.00
C662   C     0.53850   0.44355   0.95331   0.00000  Uiso   1.00
C663   C     0.56474   0.46943   0.88528   0.00000  Uiso   1.00
C664   C     0.62538   0.47082   0.88765   0.00000  Uiso   1.00
C665   C     0.46301   0.40207   0.91341   0.00000  Uiso   1.00
C666   C     0.42579   0.39308   0.81180   0.00000  Uiso   1.00
C667   C     0.42289   0.35956   0.78054   0.00000  Uiso   1.00
H668   H     0.55976   0.37534   0.14178   0.00000  Uiso   1.00
H669   H     0.51168   0.38985   0.36506   0.00000  Uiso   1.00
H670   H     0.65792   0.40294   0.07636   0.00000  Uiso   1.00
H671   H     0.51899   0.32661   0.00290   0.00000  Uiso   1.00
H672   H     0.44376   0.41638   0.58264   0.00000  Uiso   1.00
H673   H     0.75212   0.44398   0.97386   0.00000  Uiso   1.00
H674   H     0.45917   0.28301   0.81894   0.00000  Uiso   1.00
H675   H     0.44709   0.45571   0.91077   0.00000  Uiso   1.00
H676   H     0.39282   0.47463   0.12138   0.00000  Uiso   1.00
H677   H     0.53906   0.48772   0.83268   0.00000  Uiso   1.00
H678   H     0.40014   0.41139   0.75922   0.00000  Uiso   1.00
H679   H     0.34729   0.48520   0.38486   0.00000  Uiso   1.00
H680   H     0.65566   0.51279   0.77607   0.00000  Uiso   1.00
H681   H     0.36270   0.35183   0.62116   0.00000  Uiso   1.00
O682   O     0.36187   0.46180   0.62647   0.00000  Uiso   1.00
O683   O     0.76643   0.49799   0.82775   0.00000  Uiso   1.00
O684   O     0.38208   0.28681   0.62451   0.00000  Uiso   1.00
N685   N     0.42849   0.42998   0.50718   0.00000  Uiso   1.00
N686   N     0.71680   0.45578   0.93803   0.00000  Uiso   1.00
N687   N     0.44292   0.30529   0.79317   0.00000  Uiso   1.00
N688   N     0.37658   0.46700   0.40076   0.00000  Uiso   1.00
N689   N     0.66489   0.49281   0.83160   0.00000  Uiso   1.00
N690   N     0.39101   0.34232   0.68675   0.00000  Uiso   1.00
C691   C     0.53394   0.89375   0.58886   0.00000  Uiso   1.00
C692   C     0.49219   0.91278   0.67814   0.00000  Uiso   1.00
C693   C     0.48600   0.90816   0.81249   0.00000  Uiso   1.00
C694   C     0.44544   0.92805   0.87654   0.00000  Uiso   1.00
C695   C     0.38567   0.95401   0.02551   0.00000  Uiso   1.00
C696   C     0.57165   0.91990   0.52129   0.00000  Uiso   1.00
C697   C     0.63227   0.92125   0.52375   0.00000  Uiso   1.00
C698   C     0.65860   0.94713   0.45575   0.00000  Uiso   1.00
C699   C     0.72219   0.98412   0.36114   0.00000  Uiso   1.00
C700   C     0.49616   0.87842   0.48139   0.00000  Uiso   1.00
C701   C     0.49333   0.84490   0.45027   0.00000  Uiso   1.00
C702   C     0.45611   0.83586   0.34865   0.00000  Uiso   1.00
C703   C     0.40250   0.80846   0.19208   0.00000  Uiso   1.00
C704   C     0.47290   0.93729   0.46370   0.00000  Uiso   1.00
C705   C     0.45904   0.93643   0.61015   0.00000  Uiso   1.00
C706   C     0.41847   0.95633   0.67402   0.00000  Uiso   1.00
C707   C     0.41222   0.95174   0.80844   0.00000  Uiso   1.00
C708   C     0.53850   0.94355   0.45331   0.00000  Uiso   1.00
C709   C     0.56474   0.96943   0.38528   0.00000  Uiso   1.00
C710   C     0.62538   0.97082   0.38765   0.00000  Uiso   1.00
C711   C     0.46301   0.90207   0.41341   0.00000  Uiso   1.00
C712   C     0.42579   0.89308   0.31180   0.00000  Uiso   1.00
C713   C     0.42289   0.85956   0.28054   0.00000  Uiso   1.00
H714   H     0.55976   0.87534   0.64178   0.00000  Uiso   1.00
H715   H     0.51168   0.88985   0.86506   0.00000  Uiso   1.00
H716   H     0.65792   0.90294   0.57636   0.00000  Uiso   1.00
H717   H     0.51899   0.82661   0.50290   0.00000  Uiso   1.00
H718   H     0.44376   0.91638   0.08264   0.00000  Uiso   1.00
H719   H     0.75212   0.94398   0.47386   0.00000  Uiso   1.00
H720   H     0.45917   0.78301   0.31894   0.00000  Uiso   1.00
H721   H     0.44709   0.95571   0.41077   0.00000  Uiso   1.00
H722   H     0.39282   0.97463   0.62138   0.00000  Uiso   1.00
H723   H     0.53906   0.98772   0.33268   0.00000  Uiso   1.00
H724   H     0.40014   0.91139   0.25922   0.00000  Uiso   1.00
H725   H     0.34729   0.98520   0.88486   0.00000  Uiso   1.00
H726   H     0.65566   0.01279   0.27607   0.00000  Uiso   1.00
H727   H     0.36270   0.85183   0.12116   0.00000  Uiso   1.00
O728   O     0.36187   0.96180   0.12647   0.00000  Uiso   1.00
O729   O     0.76643   0.99799   0.32775   0.00000  Uiso   1.00
O730   O     0.38208   0.78681   0.12451   0.00000  Uiso   1.00
N731   N     0.42849   0.92998   0.00718   0.00000  Uiso   1.00
N732   N     0.71680   0.95578   0.43803   0.00000  Uiso   1.00
N733   N     0.44292   0.80529   0.29317   0.00000  Uiso   1.00
N734   N     0.37658   0.96700   0.90076   0.00000  Uiso   1.00
N735   N     0.66489   0.99281   0.33160   0.00000  Uiso   1.00
N736   N     0.39101   0.84232   0.18675   0.00000  Uiso   1.00
