data_job_02439
_audit_creation_date              2018-12-19
_audit_creation_method            'Materials Studio'
_symmetry_space_group_name_H-M    'P1'
_symmetry_Int_Tables_number       1
_symmetry_cell_setting            triclinic
loop_
_symmetry_equiv_pos_as_xyz
  x,y,z
_cell_length_a                    23.0076
_cell_length_b                    16.4758
_cell_length_c                    27.9442
_cell_angle_alpha                 90.0000
_cell_angle_beta                  90.0000
_cell_angle_gamma                 90.0000
loop_
_atom_site_label
_atom_site_type_symbol
_atom_site_fract_x
_atom_site_fract_y
_atom_site_fract_z
_atom_site_U_iso_or_equiv
_atom_site_adp_type
_atom_site_occupancy
C1     C     0.58792   0.39172   0.40877   0.00000  Uiso   1.00
C2     C     0.61152   0.44284   0.44990   0.00000  Uiso   1.00
C3     C     0.60146   0.42918   0.49820   0.00000  Uiso   1.00
C4     C     0.62693   0.48284   0.53026   0.00000  Uiso   1.00
C5     C     0.65834   0.55237   0.59652   0.00000  Uiso   1.00
C6     C     0.55472   0.45013   0.37645   0.00000  Uiso   1.00
C7     C     0.49691   0.44258   0.36298   0.00000  Uiso   1.00
C8     C     0.47457   0.50238   0.33320   0.00000  Uiso   1.00
C9     C     0.41781   0.58319   0.28538   0.00000  Uiso   1.00
C10    C     0.64076   0.36416   0.38012   0.00000  Uiso   1.00
C11    C     0.65528   0.28433   0.36973   0.00000  Uiso   1.00
C12    C     0.70537   0.27175   0.34302   0.00000  Uiso   1.00
C13    C     0.78220   0.21907   0.30091   0.00000  Uiso   1.00
C14    C     0.65103   0.51134   0.37981   0.00000  Uiso   1.00
C15    C     0.64580   0.50782   0.43417   0.00000  Uiso   1.00
C16    C     0.67129   0.56152   0.46616   0.00000  Uiso   1.00
C17    C     0.66127   0.54793   0.51450   0.00000  Uiso   1.00
C18    C     0.58900   0.51510   0.36072   0.00000  Uiso   1.00
C19    C     0.56674   0.57493   0.33094   0.00000  Uiso   1.00
C20    C     0.50891   0.56747   0.31744   0.00000  Uiso   1.00
C21    C     0.67504   0.42913   0.36439   0.00000  Uiso   1.00
C22    C     0.72511   0.41667   0.33769   0.00000  Uiso   1.00
C23    C     0.73971   0.33684   0.32726   0.00000  Uiso   1.00
H24    H     0.56123   0.34114   0.42101   0.00000  Uiso   1.00
H25    H     0.57492   0.37889   0.51036   0.00000  Uiso   1.00
H26    H     0.47040   0.39229   0.37516   0.00000  Uiso   1.00
H27    H     0.62874   0.23407   0.38190   0.00000  Uiso   1.00
H28    H     0.60521   0.44942   0.60248   0.00000  Uiso   1.00
H29    H     0.38482   0.47766   0.31738   0.00000  Uiso   1.00
H30    H     0.71872   0.14400   0.33161   0.00000  Uiso   1.00
H31    H     0.67772   0.56192   0.36756   0.00000  Uiso   1.00
H32    H     0.69782   0.61179   0.45398   0.00000  Uiso   1.00
H33    H     0.59329   0.62519   0.31878   0.00000  Uiso   1.00
H34    H     0.75163   0.46697   0.32552   0.00000  Uiso   1.00
H35    H     0.70495   0.63845   0.55672   0.00000  Uiso   1.00
H36    H     0.48456   0.66669   0.27162   0.00000  Uiso   1.00
H37    H     0.81846   0.33304   0.28585   0.00000  Uiso   1.00
O38    O     0.66618   0.57277   0.63741   0.00000  Uiso   1.00
O39    O     0.37703   0.60982   0.26336   0.00000  Uiso   1.00
O40    O     0.81511   0.17207   0.28204   0.00000  Uiso   1.00
N41    N     0.62594   0.48705   0.57985   0.00000  Uiso   1.00
N42    N     0.41988   0.51347   0.31331   0.00000  Uiso   1.00
N43    N     0.73204   0.20153   0.32660   0.00000  Uiso   1.00
N44    N     0.67961   0.58877   0.55523   0.00000  Uiso   1.00
N45    N     0.47355   0.61518   0.28868   0.00000  Uiso   1.00
N46    N     0.78571   0.30324   0.30198   0.00000  Uiso   1.00
C47    C     0.08792   0.89172   0.90877   0.00000  Uiso   1.00
C48    C     0.11152   0.94284   0.94990   0.00000  Uiso   1.00
C49    C     0.10146   0.92918   0.99820   0.00000  Uiso   1.00
C50    C     0.12693   0.98284   0.03026   0.00000  Uiso   1.00
C51    C     0.15834   0.05237   0.09652   0.00000  Uiso   1.00
C52    C     0.05472   0.95013   0.87645   0.00000  Uiso   1.00
C53    C     0.99691   0.94258   0.86298   0.00000  Uiso   1.00
C54    C     0.97457   0.00238   0.83320   0.00000  Uiso   1.00
C55    C     0.91781   0.08319   0.78538   0.00000  Uiso   1.00
C56    C     0.14076   0.86416   0.88012   0.00000  Uiso   1.00
C57    C     0.15528   0.78433   0.86973   0.00000  Uiso   1.00
C58    C     0.20537   0.77175   0.84302   0.00000  Uiso   1.00
C59    C     0.28220   0.71907   0.80091   0.00000  Uiso   1.00
C60    C     0.15103   0.01134   0.87981   0.00000  Uiso   1.00
C61    C     0.14580   0.00782   0.93417   0.00000  Uiso   1.00
C62    C     0.17129   0.06152   0.96616   0.00000  Uiso   1.00
C63    C     0.16127   0.04793   0.01450   0.00000  Uiso   1.00
C64    C     0.08900   0.01510   0.86072   0.00000  Uiso   1.00
C65    C     0.06674   0.07493   0.83094   0.00000  Uiso   1.00
C66    C     0.00891   0.06747   0.81744   0.00000  Uiso   1.00
C67    C     0.17504   0.92913   0.86439   0.00000  Uiso   1.00
C68    C     0.22511   0.91667   0.83769   0.00000  Uiso   1.00
C69    C     0.23971   0.83684   0.82726   0.00000  Uiso   1.00
H70    H     0.06123   0.84114   0.92101   0.00000  Uiso   1.00
H71    H     0.07492   0.87889   0.01036   0.00000  Uiso   1.00
H72    H     0.97040   0.89229   0.87516   0.00000  Uiso   1.00
H73    H     0.12874   0.73407   0.88190   0.00000  Uiso   1.00
H74    H     0.10521   0.94942   0.10248   0.00000  Uiso   1.00
H75    H     0.88482   0.97766   0.81738   0.00000  Uiso   1.00
H76    H     0.21872   0.64400   0.83161   0.00000  Uiso   1.00
H77    H     0.17772   0.06192   0.86756   0.00000  Uiso   1.00
H78    H     0.19782   0.11179   0.95398   0.00000  Uiso   1.00
H79    H     0.09329   0.12519   0.81878   0.00000  Uiso   1.00
H80    H     0.25163   0.96697   0.82552   0.00000  Uiso   1.00
H81    H     0.20495   0.13845   0.05672   0.00000  Uiso   1.00
H82    H     0.98456   0.16669   0.77162   0.00000  Uiso   1.00
H83    H     0.31846   0.83304   0.78585   0.00000  Uiso   1.00
O84    O     0.16618   0.07277   0.13741   0.00000  Uiso   1.00
O85    O     0.87703   0.10982   0.76336   0.00000  Uiso   1.00
O86    O     0.31511   0.67207   0.78204   0.00000  Uiso   1.00
N87    N     0.12594   0.98705   0.07985   0.00000  Uiso   1.00
N88    N     0.91988   0.01347   0.81331   0.00000  Uiso   1.00
N89    N     0.23204   0.70153   0.82660   0.00000  Uiso   1.00
N90    N     0.17961   0.08877   0.05523   0.00000  Uiso   1.00
N91    N     0.97355   0.11518   0.78868   0.00000  Uiso   1.00
N92    N     0.28571   0.80324   0.80198   0.00000  Uiso   1.00
C93    C     0.91208   0.60828   0.90877   0.00000  Uiso   1.00
C94    C     0.88848   0.55716   0.94990   0.00000  Uiso   1.00
C95    C     0.89854   0.57082   0.99820   0.00000  Uiso   1.00
C96    C     0.87307   0.51716   0.03026   0.00000  Uiso   1.00
C97    C     0.84166   0.44763   0.09652   0.00000  Uiso   1.00
C98    C     0.94528   0.54987   0.87645   0.00000  Uiso   1.00
C99    C     0.00309   0.55742   0.86298   0.00000  Uiso   1.00
C100   C     0.02543   0.49762   0.83320   0.00000  Uiso   1.00
C101   C     0.08219   0.41681   0.78538   0.00000  Uiso   1.00
C102   C     0.85924   0.63584   0.88012   0.00000  Uiso   1.00
C103   C     0.84472   0.71567   0.86973   0.00000  Uiso   1.00
C104   C     0.79463   0.72825   0.84302   0.00000  Uiso   1.00
C105   C     0.71780   0.78093   0.80091   0.00000  Uiso   1.00
C106   C     0.84897   0.48866   0.87981   0.00000  Uiso   1.00
C107   C     0.85420   0.49218   0.93417   0.00000  Uiso   1.00
C108   C     0.82871   0.43848   0.96616   0.00000  Uiso   1.00
C109   C     0.83873   0.45207   0.01450   0.00000  Uiso   1.00
C110   C     0.91100   0.48490   0.86072   0.00000  Uiso   1.00
C111   C     0.93326   0.42507   0.83094   0.00000  Uiso   1.00
C112   C     0.99109   0.43253   0.81744   0.00000  Uiso   1.00
C113   C     0.82496   0.57087   0.86439   0.00000  Uiso   1.00
C114   C     0.77489   0.58333   0.83769   0.00000  Uiso   1.00
C115   C     0.76029   0.66316   0.82726   0.00000  Uiso   1.00
H116   H     0.93877   0.65886   0.92101   0.00000  Uiso   1.00
H117   H     0.92508   0.62111   0.01036   0.00000  Uiso   1.00
H118   H     0.02960   0.60771   0.87516   0.00000  Uiso   1.00
H119   H     0.87126   0.76593   0.88190   0.00000  Uiso   1.00
H120   H     0.89479   0.55058   0.10248   0.00000  Uiso   1.00
H121   H     0.11518   0.52234   0.81738   0.00000  Uiso   1.00
H122   H     0.78128   0.85600   0.83161   0.00000  Uiso   1.00
H123   H     0.82228   0.43808   0.86756   0.00000  Uiso   1.00
H124   H     0.80218   0.38821   0.95398   0.00000  Uiso   1.00
H125   H     0.90671   0.37481   0.81878   0.00000  Uiso   1.00
H126   H     0.74837   0.53303   0.82552   0.00000  Uiso   1.00
H127   H     0.79505   0.36155   0.05672   0.00000  Uiso   1.00
H128   H     0.01544   0.33331   0.77162   0.00000  Uiso   1.00
H129   H     0.68154   0.66696   0.78585   0.00000  Uiso   1.00
O130   O     0.83382   0.42723   0.13741   0.00000  Uiso   1.00
O131   O     0.12297   0.39018   0.76336   0.00000  Uiso   1.00
O132   O     0.68489   0.82793   0.78204   0.00000  Uiso   1.00
N133   N     0.87406   0.51295   0.07985   0.00000  Uiso   1.00
N134   N     0.08012   0.48653   0.81331   0.00000  Uiso   1.00
N135   N     0.76796   0.79847   0.82660   0.00000  Uiso   1.00
N136   N     0.82039   0.41123   0.05523   0.00000  Uiso   1.00
N137   N     0.02645   0.38482   0.78868   0.00000  Uiso   1.00
N138   N     0.71429   0.69676   0.80198   0.00000  Uiso   1.00
C139   C     0.41208   0.10828   0.40877   0.00000  Uiso   1.00
C140   C     0.38848   0.05716   0.44990   0.00000  Uiso   1.00
C141   C     0.39854   0.07082   0.49820   0.00000  Uiso   1.00
C142   C     0.37307   0.01716   0.53026   0.00000  Uiso   1.00
C143   C     0.34166   0.94763   0.59652   0.00000  Uiso   1.00
C144   C     0.44528   0.04987   0.37645   0.00000  Uiso   1.00
C145   C     0.50309   0.05742   0.36298   0.00000  Uiso   1.00
C146   C     0.52543   0.99762   0.33320   0.00000  Uiso   1.00
C147   C     0.58219   0.91681   0.28538   0.00000  Uiso   1.00
C148   C     0.35924   0.13584   0.38012   0.00000  Uiso   1.00
C149   C     0.34472   0.21567   0.36973   0.00000  Uiso   1.00
C150   C     0.29463   0.22825   0.34302   0.00000  Uiso   1.00
C151   C     0.21780   0.28093   0.30091   0.00000  Uiso   1.00
C152   C     0.34897   0.98866   0.37981   0.00000  Uiso   1.00
C153   C     0.35420   0.99218   0.43417   0.00000  Uiso   1.00
C154   C     0.32871   0.93848   0.46616   0.00000  Uiso   1.00
C155   C     0.33873   0.95207   0.51450   0.00000  Uiso   1.00
C156   C     0.41100   0.98490   0.36072   0.00000  Uiso   1.00
C157   C     0.43326   0.92507   0.33094   0.00000  Uiso   1.00
C158   C     0.49109   0.93253   0.31744   0.00000  Uiso   1.00
C159   C     0.32496   0.07087   0.36439   0.00000  Uiso   1.00
C160   C     0.27489   0.08333   0.33769   0.00000  Uiso   1.00
C161   C     0.26029   0.16316   0.32726   0.00000  Uiso   1.00
H162   H     0.43877   0.15886   0.42101   0.00000  Uiso   1.00
H163   H     0.42508   0.12111   0.51036   0.00000  Uiso   1.00
H164   H     0.52960   0.10771   0.37516   0.00000  Uiso   1.00
H165   H     0.37126   0.26593   0.38190   0.00000  Uiso   1.00
H166   H     0.39479   0.05058   0.60248   0.00000  Uiso   1.00
H167   H     0.61518   0.02234   0.31738   0.00000  Uiso   1.00
H168   H     0.28128   0.35600   0.33161   0.00000  Uiso   1.00
H169   H     0.32228   0.93808   0.36756   0.00000  Uiso   1.00
H170   H     0.30218   0.88821   0.45398   0.00000  Uiso   1.00
H171   H     0.40671   0.87481   0.31878   0.00000  Uiso   1.00
H172   H     0.24837   0.03303   0.32552   0.00000  Uiso   1.00
H173   H     0.29505   0.86155   0.55672   0.00000  Uiso   1.00
H174   H     0.51544   0.83331   0.27162   0.00000  Uiso   1.00
H175   H     0.18154   0.16696   0.28585   0.00000  Uiso   1.00
O176   O     0.33382   0.92723   0.63741   0.00000  Uiso   1.00
O177   O     0.62297   0.89018   0.26336   0.00000  Uiso   1.00
O178   O     0.18489   0.32793   0.28204   0.00000  Uiso   1.00
N179   N     0.37406   0.01295   0.57985   0.00000  Uiso   1.00
N180   N     0.58012   0.98653   0.31331   0.00000  Uiso   1.00
N181   N     0.26796   0.29847   0.32660   0.00000  Uiso   1.00
N182   N     0.32039   0.91123   0.55523   0.00000  Uiso   1.00
N183   N     0.52645   0.88482   0.28868   0.00000  Uiso   1.00
N184   N     0.21429   0.19676   0.30198   0.00000  Uiso   1.00
C185   C     0.41208   0.89172   0.09123   0.00000  Uiso   1.00
C186   C     0.38848   0.94284   0.05010   0.00000  Uiso   1.00
C187   C     0.39854   0.92918   0.00180   0.00000  Uiso   1.00
C188   C     0.37307   0.98284   0.96974   0.00000  Uiso   1.00
C189   C     0.34166   0.05237   0.90348   0.00000  Uiso   1.00
C190   C     0.44528   0.95013   0.12355   0.00000  Uiso   1.00
C191   C     0.50309   0.94258   0.13702   0.00000  Uiso   1.00
C192   C     0.52543   0.00238   0.16680   0.00000  Uiso   1.00
C193   C     0.58219   0.08319   0.21462   0.00000  Uiso   1.00
C194   C     0.35924   0.86416   0.11988   0.00000  Uiso   1.00
C195   C     0.34472   0.78433   0.13027   0.00000  Uiso   1.00
C196   C     0.29463   0.77175   0.15698   0.00000  Uiso   1.00
C197   C     0.21780   0.71907   0.19909   0.00000  Uiso   1.00
C198   C     0.34897   0.01134   0.12019   0.00000  Uiso   1.00
C199   C     0.35420   0.00782   0.06583   0.00000  Uiso   1.00
C200   C     0.32871   0.06152   0.03384   0.00000  Uiso   1.00
C201   C     0.33873   0.04793   0.98550   0.00000  Uiso   1.00
C202   C     0.41100   0.01510   0.13928   0.00000  Uiso   1.00
C203   C     0.43326   0.07493   0.16906   0.00000  Uiso   1.00
C204   C     0.49109   0.06747   0.18256   0.00000  Uiso   1.00
C205   C     0.32496   0.92913   0.13561   0.00000  Uiso   1.00
C206   C     0.27489   0.91667   0.16231   0.00000  Uiso   1.00
C207   C     0.26029   0.83684   0.17274   0.00000  Uiso   1.00
H208   H     0.43877   0.84114   0.07899   0.00000  Uiso   1.00
H209   H     0.42508   0.87889   0.98964   0.00000  Uiso   1.00
H210   H     0.52960   0.89229   0.12484   0.00000  Uiso   1.00
H211   H     0.37126   0.73407   0.11810   0.00000  Uiso   1.00
H212   H     0.39479   0.94942   0.89752   0.00000  Uiso   1.00
H213   H     0.61518   0.97766   0.18262   0.00000  Uiso   1.00
H214   H     0.28128   0.64400   0.16839   0.00000  Uiso   1.00
H215   H     0.32228   0.06192   0.13244   0.00000  Uiso   1.00
H216   H     0.30218   0.11179   0.04602   0.00000  Uiso   1.00
H217   H     0.40671   0.12519   0.18122   0.00000  Uiso   1.00
H218   H     0.24837   0.96697   0.17448   0.00000  Uiso   1.00
H219   H     0.29505   0.13845   0.94328   0.00000  Uiso   1.00
H220   H     0.51544   0.16669   0.22838   0.00000  Uiso   1.00
H221   H     0.18154   0.83304   0.21415   0.00000  Uiso   1.00
O222   O     0.33382   0.07277   0.86259   0.00000  Uiso   1.00
O223   O     0.62297   0.10982   0.23664   0.00000  Uiso   1.00
O224   O     0.18489   0.67207   0.21796   0.00000  Uiso   1.00
N225   N     0.37406   0.98705   0.92015   0.00000  Uiso   1.00
N226   N     0.58012   0.01347   0.18669   0.00000  Uiso   1.00
N227   N     0.26796   0.70153   0.17340   0.00000  Uiso   1.00
N228   N     0.32039   0.08877   0.94477   0.00000  Uiso   1.00
N229   N     0.52645   0.11518   0.21132   0.00000  Uiso   1.00
N230   N     0.21429   0.80324   0.19802   0.00000  Uiso   1.00
C231   C     0.91208   0.39172   0.59123   0.00000  Uiso   1.00
C232   C     0.88848   0.44284   0.55010   0.00000  Uiso   1.00
C233   C     0.89854   0.42918   0.50180   0.00000  Uiso   1.00
C234   C     0.87307   0.48284   0.46974   0.00000  Uiso   1.00
C235   C     0.84166   0.55237   0.40348   0.00000  Uiso   1.00
C236   C     0.94528   0.45013   0.62355   0.00000  Uiso   1.00
C237   C     0.00309   0.44258   0.63702   0.00000  Uiso   1.00
C238   C     0.02543   0.50238   0.66680   0.00000  Uiso   1.00
C239   C     0.08219   0.58319   0.71462   0.00000  Uiso   1.00
C240   C     0.85924   0.36416   0.61988   0.00000  Uiso   1.00
C241   C     0.84472   0.28433   0.63027   0.00000  Uiso   1.00
C242   C     0.79463   0.27175   0.65698   0.00000  Uiso   1.00
C243   C     0.71780   0.21907   0.69909   0.00000  Uiso   1.00
C244   C     0.84897   0.51134   0.62019   0.00000  Uiso   1.00
C245   C     0.85420   0.50782   0.56583   0.00000  Uiso   1.00
C246   C     0.82871   0.56152   0.53384   0.00000  Uiso   1.00
C247   C     0.83873   0.54793   0.48550   0.00000  Uiso   1.00
C248   C     0.91100   0.51510   0.63928   0.00000  Uiso   1.00
C249   C     0.93326   0.57493   0.66906   0.00000  Uiso   1.00
C250   C     0.99109   0.56747   0.68256   0.00000  Uiso   1.00
C251   C     0.82496   0.42913   0.63561   0.00000  Uiso   1.00
C252   C     0.77489   0.41667   0.66231   0.00000  Uiso   1.00
C253   C     0.76029   0.33684   0.67274   0.00000  Uiso   1.00
H254   H     0.93877   0.34114   0.57899   0.00000  Uiso   1.00
H255   H     0.92508   0.37889   0.48964   0.00000  Uiso   1.00
H256   H     0.02960   0.39229   0.62484   0.00000  Uiso   1.00
H257   H     0.87126   0.23407   0.61810   0.00000  Uiso   1.00
H258   H     0.89479   0.44942   0.39752   0.00000  Uiso   1.00
H259   H     0.11518   0.47766   0.68262   0.00000  Uiso   1.00
H260   H     0.78128   0.14400   0.66839   0.00000  Uiso   1.00
H261   H     0.82228   0.56192   0.63244   0.00000  Uiso   1.00
H262   H     0.80218   0.61179   0.54602   0.00000  Uiso   1.00
H263   H     0.90671   0.62519   0.68122   0.00000  Uiso   1.00
H264   H     0.74837   0.46697   0.67448   0.00000  Uiso   1.00
H265   H     0.79505   0.63845   0.44328   0.00000  Uiso   1.00
H266   H     0.01544   0.66669   0.72838   0.00000  Uiso   1.00
H267   H     0.68154   0.33304   0.71415   0.00000  Uiso   1.00
O268   O     0.83382   0.57277   0.36259   0.00000  Uiso   1.00
O269   O     0.12297   0.60982   0.73664   0.00000  Uiso   1.00
O270   O     0.68489   0.17207   0.71796   0.00000  Uiso   1.00
N271   N     0.87406   0.48705   0.42015   0.00000  Uiso   1.00
N272   N     0.08012   0.51347   0.68669   0.00000  Uiso   1.00
N273   N     0.76796   0.20153   0.67340   0.00000  Uiso   1.00
N274   N     0.82039   0.58877   0.44477   0.00000  Uiso   1.00
N275   N     0.02645   0.61518   0.71132   0.00000  Uiso   1.00
N276   N     0.71429   0.30324   0.69802   0.00000  Uiso   1.00
C277   C     0.08792   0.10828   0.59123   0.00000  Uiso   1.00
C278   C     0.11152   0.05716   0.55010   0.00000  Uiso   1.00
C279   C     0.10146   0.07082   0.50180   0.00000  Uiso   1.00
C280   C     0.12693   0.01716   0.46974   0.00000  Uiso   1.00
C281   C     0.15834   0.94763   0.40348   0.00000  Uiso   1.00
C282   C     0.05472   0.04987   0.62355   0.00000  Uiso   1.00
C283   C     0.99691   0.05742   0.63702   0.00000  Uiso   1.00
C284   C     0.97457   0.99762   0.66680   0.00000  Uiso   1.00
C285   C     0.91781   0.91681   0.71462   0.00000  Uiso   1.00
C286   C     0.14076   0.13584   0.61988   0.00000  Uiso   1.00
C287   C     0.15528   0.21567   0.63027   0.00000  Uiso   1.00
C288   C     0.20537   0.22825   0.65698   0.00000  Uiso   1.00
C289   C     0.28220   0.28093   0.69909   0.00000  Uiso   1.00
C290   C     0.15103   0.98866   0.62019   0.00000  Uiso   1.00
C291   C     0.14580   0.99218   0.56583   0.00000  Uiso   1.00
C292   C     0.17129   0.93848   0.53384   0.00000  Uiso   1.00
C293   C     0.16127   0.95207   0.48550   0.00000  Uiso   1.00
C294   C     0.08900   0.98490   0.63928   0.00000  Uiso   1.00
C295   C     0.06674   0.92507   0.66906   0.00000  Uiso   1.00
C296   C     0.00891   0.93253   0.68256   0.00000  Uiso   1.00
C297   C     0.17504   0.07087   0.63561   0.00000  Uiso   1.00
C298   C     0.22511   0.08333   0.66231   0.00000  Uiso   1.00
C299   C     0.23971   0.16316   0.67274   0.00000  Uiso   1.00
H300   H     0.06123   0.15886   0.57899   0.00000  Uiso   1.00
H301   H     0.07492   0.12111   0.48964   0.00000  Uiso   1.00
H302   H     0.97040   0.10771   0.62484   0.00000  Uiso   1.00
H303   H     0.12874   0.26593   0.61810   0.00000  Uiso   1.00
H304   H     0.10521   0.05058   0.39752   0.00000  Uiso   1.00
H305   H     0.88482   0.02234   0.68262   0.00000  Uiso   1.00
H306   H     0.21872   0.35600   0.66839   0.00000  Uiso   1.00
H307   H     0.17772   0.93808   0.63244   0.00000  Uiso   1.00
H308   H     0.19782   0.88821   0.54602   0.00000  Uiso   1.00
H309   H     0.09329   0.87481   0.68122   0.00000  Uiso   1.00
H310   H     0.25163   0.03303   0.67448   0.00000  Uiso   1.00
H311   H     0.20495   0.86155   0.44328   0.00000  Uiso   1.00
H312   H     0.98456   0.83331   0.72838   0.00000  Uiso   1.00
H313   H     0.31846   0.16696   0.71415   0.00000  Uiso   1.00
O314   O     0.16618   0.92723   0.36259   0.00000  Uiso   1.00
O315   O     0.87703   0.89018   0.73664   0.00000  Uiso   1.00
O316   O     0.31511   0.32793   0.71796   0.00000  Uiso   1.00
N317   N     0.12594   0.01295   0.42015   0.00000  Uiso   1.00
N318   N     0.91988   0.98653   0.68669   0.00000  Uiso   1.00
N319   N     0.23204   0.29847   0.67340   0.00000  Uiso   1.00
N320   N     0.17961   0.91123   0.44477   0.00000  Uiso   1.00
N321   N     0.97355   0.88482   0.71132   0.00000  Uiso   1.00
N322   N     0.28571   0.19676   0.69802   0.00000  Uiso   1.00
C323   C     0.58792   0.60828   0.09123   0.00000  Uiso   1.00
C324   C     0.61152   0.55716   0.05010   0.00000  Uiso   1.00
C325   C     0.60146   0.57082   0.00180   0.00000  Uiso   1.00
C326   C     0.62693   0.51716   0.96974   0.00000  Uiso   1.00
C327   C     0.65834   0.44763   0.90348   0.00000  Uiso   1.00
C328   C     0.55472   0.54987   0.12355   0.00000  Uiso   1.00
C329   C     0.49691   0.55742   0.13702   0.00000  Uiso   1.00
C330   C     0.47457   0.49762   0.16680   0.00000  Uiso   1.00
C331   C     0.41781   0.41681   0.21462   0.00000  Uiso   1.00
C332   C     0.64076   0.63584   0.11988   0.00000  Uiso   1.00
C333   C     0.65528   0.71567   0.13027   0.00000  Uiso   1.00
C334   C     0.70537   0.72825   0.15698   0.00000  Uiso   1.00
C335   C     0.78220   0.78093   0.19909   0.00000  Uiso   1.00
C336   C     0.65103   0.48866   0.12019   0.00000  Uiso   1.00
C337   C     0.64580   0.49218   0.06583   0.00000  Uiso   1.00
C338   C     0.67129   0.43848   0.03384   0.00000  Uiso   1.00
C339   C     0.66127   0.45207   0.98550   0.00000  Uiso   1.00
C340   C     0.58900   0.48490   0.13928   0.00000  Uiso   1.00
C341   C     0.56674   0.42507   0.16906   0.00000  Uiso   1.00
C342   C     0.50891   0.43253   0.18256   0.00000  Uiso   1.00
C343   C     0.67504   0.57087   0.13561   0.00000  Uiso   1.00
C344   C     0.72511   0.58333   0.16231   0.00000  Uiso   1.00
C345   C     0.73971   0.66316   0.17274   0.00000  Uiso   1.00
H346   H     0.56123   0.65886   0.07899   0.00000  Uiso   1.00
H347   H     0.57492   0.62111   0.98964   0.00000  Uiso   1.00
H348   H     0.47040   0.60771   0.12484   0.00000  Uiso   1.00
H349   H     0.62874   0.76593   0.11810   0.00000  Uiso   1.00
H350   H     0.60521   0.55058   0.89752   0.00000  Uiso   1.00
H351   H     0.38482   0.52234   0.18262   0.00000  Uiso   1.00
H352   H     0.71872   0.85600   0.16839   0.00000  Uiso   1.00
H353   H     0.67772   0.43808   0.13244   0.00000  Uiso   1.00
H354   H     0.69782   0.38821   0.04602   0.00000  Uiso   1.00
H355   H     0.59329   0.37481   0.18122   0.00000  Uiso   1.00
H356   H     0.75163   0.53303   0.17448   0.00000  Uiso   1.00
H357   H     0.70495   0.36155   0.94328   0.00000  Uiso   1.00
H358   H     0.48456   0.33331   0.22838   0.00000  Uiso   1.00
H359   H     0.81846   0.66696   0.21415   0.00000  Uiso   1.00
O360   O     0.66618   0.42723   0.86259   0.00000  Uiso   1.00
O361   O     0.37703   0.39018   0.23664   0.00000  Uiso   1.00
O362   O     0.81511   0.82793   0.21796   0.00000  Uiso   1.00
N363   N     0.62594   0.51295   0.92015   0.00000  Uiso   1.00
N364   N     0.41988   0.48653   0.18669   0.00000  Uiso   1.00
N365   N     0.73204   0.79847   0.17340   0.00000  Uiso   1.00
N366   N     0.67961   0.41123   0.94477   0.00000  Uiso   1.00
N367   N     0.47355   0.38482   0.21132   0.00000  Uiso   1.00
N368   N     0.78571   0.69676   0.19802   0.00000  Uiso   1.00
C369   C     0.41208   0.60828   0.59123   0.00000  Uiso   1.00
C370   C     0.38848   0.55716   0.55010   0.00000  Uiso   1.00
C371   C     0.39854   0.57082   0.50180   0.00000  Uiso   1.00
C372   C     0.37307   0.51716   0.46974   0.00000  Uiso   1.00
C373   C     0.34166   0.44763   0.40348   0.00000  Uiso   1.00
C374   C     0.44528   0.54987   0.62355   0.00000  Uiso   1.00
C375   C     0.50309   0.55742   0.63702   0.00000  Uiso   1.00
C376   C     0.52543   0.49762   0.66680   0.00000  Uiso   1.00
C377   C     0.58219   0.41681   0.71462   0.00000  Uiso   1.00
C378   C     0.35924   0.63584   0.61988   0.00000  Uiso   1.00
C379   C     0.34472   0.71567   0.63027   0.00000  Uiso   1.00
C380   C     0.29463   0.72825   0.65698   0.00000  Uiso   1.00
C381   C     0.21780   0.78093   0.69909   0.00000  Uiso   1.00
C382   C     0.34897   0.48866   0.62019   0.00000  Uiso   1.00
C383   C     0.35420   0.49218   0.56583   0.00000  Uiso   1.00
C384   C     0.32871   0.43848   0.53384   0.00000  Uiso   1.00
C385   C     0.33873   0.45207   0.48550   0.00000  Uiso   1.00
C386   C     0.41100   0.48490   0.63928   0.00000  Uiso   1.00
C387   C     0.43326   0.42507   0.66906   0.00000  Uiso   1.00
C388   C     0.49109   0.43253   0.68256   0.00000  Uiso   1.00
C389   C     0.32496   0.57087   0.63561   0.00000  Uiso   1.00
C390   C     0.27489   0.58333   0.66231   0.00000  Uiso   1.00
C391   C     0.26029   0.66316   0.67274   0.00000  Uiso   1.00
H392   H     0.43877   0.65886   0.57899   0.00000  Uiso   1.00
H393   H     0.42508   0.62111   0.48964   0.00000  Uiso   1.00
H394   H     0.52960   0.60771   0.62484   0.00000  Uiso   1.00
H395   H     0.37126   0.76593   0.61810   0.00000  Uiso   1.00
H396   H     0.39479   0.55058   0.39752   0.00000  Uiso   1.00
H397   H     0.61518   0.52234   0.68262   0.00000  Uiso   1.00
H398   H     0.28128   0.85600   0.66839   0.00000  Uiso   1.00
H399   H     0.32228   0.43808   0.63244   0.00000  Uiso   1.00
H400   H     0.30218   0.38821   0.54602   0.00000  Uiso   1.00
H401   H     0.40671   0.37481   0.68122   0.00000  Uiso   1.00
H402   H     0.24837   0.53303   0.67448   0.00000  Uiso   1.00
H403   H     0.29505   0.36155   0.44328   0.00000  Uiso   1.00
H404   H     0.51544   0.33331   0.72838   0.00000  Uiso   1.00
H405   H     0.18154   0.66696   0.71415   0.00000  Uiso   1.00
O406   O     0.33382   0.42723   0.36259   0.00000  Uiso   1.00
O407   O     0.62297   0.39018   0.73664   0.00000  Uiso   1.00
O408   O     0.18489   0.82793   0.71796   0.00000  Uiso   1.00
N409   N     0.37406   0.51295   0.42015   0.00000  Uiso   1.00
N410   N     0.58012   0.48653   0.68669   0.00000  Uiso   1.00
N411   N     0.26796   0.79847   0.67340   0.00000  Uiso   1.00
N412   N     0.32039   0.41123   0.44477   0.00000  Uiso   1.00
N413   N     0.52645   0.38482   0.71132   0.00000  Uiso   1.00
N414   N     0.21429   0.69676   0.69802   0.00000  Uiso   1.00
C415   C     0.91208   0.10828   0.09123   0.00000  Uiso   1.00
C416   C     0.88848   0.05716   0.05010   0.00000  Uiso   1.00
C417   C     0.89854   0.07082   0.00180   0.00000  Uiso   1.00
C418   C     0.87307   0.01716   0.96974   0.00000  Uiso   1.00
C419   C     0.84166   0.94763   0.90348   0.00000  Uiso   1.00
C420   C     0.94528   0.04987   0.12355   0.00000  Uiso   1.00
C421   C     0.00309   0.05742   0.13702   0.00000  Uiso   1.00
C422   C     0.02543   0.99762   0.16680   0.00000  Uiso   1.00
C423   C     0.08219   0.91681   0.21462   0.00000  Uiso   1.00
C424   C     0.85924   0.13584   0.11988   0.00000  Uiso   1.00
C425   C     0.84472   0.21567   0.13027   0.00000  Uiso   1.00
C426   C     0.79463   0.22825   0.15698   0.00000  Uiso   1.00
C427   C     0.71780   0.28093   0.19909   0.00000  Uiso   1.00
C428   C     0.84897   0.98866   0.12019   0.00000  Uiso   1.00
C429   C     0.85420   0.99218   0.06583   0.00000  Uiso   1.00
C430   C     0.82871   0.93848   0.03384   0.00000  Uiso   1.00
C431   C     0.83873   0.95207   0.98550   0.00000  Uiso   1.00
C432   C     0.91100   0.98490   0.13928   0.00000  Uiso   1.00
C433   C     0.93326   0.92507   0.16906   0.00000  Uiso   1.00
C434   C     0.99109   0.93253   0.18256   0.00000  Uiso   1.00
C435   C     0.82496   0.07087   0.13561   0.00000  Uiso   1.00
C436   C     0.77489   0.08333   0.16231   0.00000  Uiso   1.00
C437   C     0.76029   0.16316   0.17274   0.00000  Uiso   1.00
H438   H     0.93877   0.15886   0.07899   0.00000  Uiso   1.00
H439   H     0.92508   0.12111   0.98964   0.00000  Uiso   1.00
H440   H     0.02960   0.10771   0.12484   0.00000  Uiso   1.00
H441   H     0.87126   0.26593   0.11810   0.00000  Uiso   1.00
H442   H     0.89479   0.05058   0.89752   0.00000  Uiso   1.00
H443   H     0.11518   0.02234   0.18262   0.00000  Uiso   1.00
H444   H     0.78128   0.35600   0.16839   0.00000  Uiso   1.00
H445   H     0.82228   0.93808   0.13244   0.00000  Uiso   1.00
H446   H     0.80218   0.88821   0.04602   0.00000  Uiso   1.00
H447   H     0.90671   0.87481   0.18122   0.00000  Uiso   1.00
H448   H     0.74837   0.03303   0.17448   0.00000  Uiso   1.00
H449   H     0.79505   0.86155   0.94328   0.00000  Uiso   1.00
H450   H     0.01544   0.83331   0.22838   0.00000  Uiso   1.00
H451   H     0.68154   0.16696   0.21415   0.00000  Uiso   1.00
O452   O     0.83382   0.92723   0.86259   0.00000  Uiso   1.00
O453   O     0.12297   0.89018   0.23664   0.00000  Uiso   1.00
O454   O     0.68489   0.32793   0.21796   0.00000  Uiso   1.00
N455   N     0.87406   0.01295   0.92015   0.00000  Uiso   1.00
N456   N     0.08012   0.98653   0.18669   0.00000  Uiso   1.00
N457   N     0.76796   0.29847   0.17340   0.00000  Uiso   1.00
N458   N     0.82039   0.91123   0.94477   0.00000  Uiso   1.00
N459   N     0.02645   0.88482   0.21132   0.00000  Uiso   1.00
N460   N     0.71429   0.19676   0.19802   0.00000  Uiso   1.00
C461   C     0.08792   0.39172   0.09123   0.00000  Uiso   1.00
C462   C     0.11152   0.44284   0.05010   0.00000  Uiso   1.00
C463   C     0.10146   0.42918   0.00180   0.00000  Uiso   1.00
C464   C     0.12693   0.48284   0.96974   0.00000  Uiso   1.00
C465   C     0.15834   0.55237   0.90348   0.00000  Uiso   1.00
C466   C     0.05472   0.45013   0.12355   0.00000  Uiso   1.00
C467   C     0.99691   0.44258   0.13702   0.00000  Uiso   1.00
C468   C     0.97457   0.50238   0.16680   0.00000  Uiso   1.00
C469   C     0.91781   0.58319   0.21462   0.00000  Uiso   1.00
C470   C     0.14076   0.36416   0.11988   0.00000  Uiso   1.00
C471   C     0.15528   0.28433   0.13027   0.00000  Uiso   1.00
C472   C     0.20537   0.27175   0.15698   0.00000  Uiso   1.00
C473   C     0.28220   0.21907   0.19909   0.00000  Uiso   1.00
C474   C     0.15103   0.51134   0.12019   0.00000  Uiso   1.00
C475   C     0.14580   0.50782   0.06583   0.00000  Uiso   1.00
C476   C     0.17129   0.56152   0.03384   0.00000  Uiso   1.00
C477   C     0.16127   0.54793   0.98550   0.00000  Uiso   1.00
C478   C     0.08900   0.51510   0.13928   0.00000  Uiso   1.00
C479   C     0.06674   0.57493   0.16906   0.00000  Uiso   1.00
C480   C     0.00891   0.56747   0.18256   0.00000  Uiso   1.00
C481   C     0.17504   0.42913   0.13561   0.00000  Uiso   1.00
C482   C     0.22511   0.41667   0.16231   0.00000  Uiso   1.00
C483   C     0.23971   0.33684   0.17274   0.00000  Uiso   1.00
H484   H     0.06123   0.34114   0.07899   0.00000  Uiso   1.00
H485   H     0.07492   0.37889   0.98964   0.00000  Uiso   1.00
H486   H     0.97040   0.39229   0.12484   0.00000  Uiso   1.00
H487   H     0.12874   0.23407   0.11810   0.00000  Uiso   1.00
H488   H     0.10521   0.44942   0.89752   0.00000  Uiso   1.00
H489   H     0.88482   0.47766   0.18262   0.00000  Uiso   1.00
H490   H     0.21872   0.14400   0.16839   0.00000  Uiso   1.00
H491   H     0.17772   0.56192   0.13244   0.00000  Uiso   1.00
H492   H     0.19782   0.61179   0.04602   0.00000  Uiso   1.00
H493   H     0.09329   0.62519   0.18122   0.00000  Uiso   1.00
H494   H     0.25163   0.46697   0.17448   0.00000  Uiso   1.00
H495   H     0.20495   0.63845   0.94328   0.00000  Uiso   1.00
H496   H     0.98456   0.66669   0.22838   0.00000  Uiso   1.00
H497   H     0.31846   0.33304   0.21415   0.00000  Uiso   1.00
O498   O     0.16618   0.57277   0.86259   0.00000  Uiso   1.00
O499   O     0.87703   0.60982   0.23664   0.00000  Uiso   1.00
O500   O     0.31511   0.17207   0.21796   0.00000  Uiso   1.00
N501   N     0.12594   0.48705   0.92015   0.00000  Uiso   1.00
N502   N     0.91988   0.51347   0.18669   0.00000  Uiso   1.00
N503   N     0.23204   0.20153   0.17340   0.00000  Uiso   1.00
N504   N     0.17961   0.58877   0.94477   0.00000  Uiso   1.00
N505   N     0.97355   0.61518   0.21132   0.00000  Uiso   1.00
N506   N     0.28571   0.30324   0.19802   0.00000  Uiso   1.00
C507   C     0.58792   0.89172   0.59123   0.00000  Uiso   1.00
C508   C     0.61152   0.94284   0.55010   0.00000  Uiso   1.00
C509   C     0.60146   0.92918   0.50180   0.00000  Uiso   1.00
C510   C     0.62693   0.98284   0.46974   0.00000  Uiso   1.00
C511   C     0.65834   0.05237   0.40348   0.00000  Uiso   1.00
C512   C     0.55472   0.95013   0.62355   0.00000  Uiso   1.00
C513   C     0.49691   0.94258   0.63702   0.00000  Uiso   1.00
C514   C     0.47457   0.00238   0.66680   0.00000  Uiso   1.00
C515   C     0.41781   0.08319   0.71462   0.00000  Uiso   1.00
C516   C     0.64076   0.86416   0.61988   0.00000  Uiso   1.00
C517   C     0.65528   0.78433   0.63027   0.00000  Uiso   1.00
C518   C     0.70537   0.77175   0.65698   0.00000  Uiso   1.00
C519   C     0.78220   0.71907   0.69909   0.00000  Uiso   1.00
C520   C     0.65103   0.01134   0.62019   0.00000  Uiso   1.00
C521   C     0.64580   0.00782   0.56583   0.00000  Uiso   1.00
C522   C     0.67129   0.06152   0.53384   0.00000  Uiso   1.00
C523   C     0.66127   0.04793   0.48550   0.00000  Uiso   1.00
C524   C     0.58900   0.01510   0.63928   0.00000  Uiso   1.00
C525   C     0.56674   0.07493   0.66906   0.00000  Uiso   1.00
C526   C     0.50891   0.06747   0.68256   0.00000  Uiso   1.00
C527   C     0.67504   0.92913   0.63561   0.00000  Uiso   1.00
C528   C     0.72511   0.91667   0.66231   0.00000  Uiso   1.00
C529   C     0.73971   0.83684   0.67274   0.00000  Uiso   1.00
H530   H     0.56123   0.84114   0.57899   0.00000  Uiso   1.00
H531   H     0.57492   0.87889   0.48964   0.00000  Uiso   1.00
H532   H     0.47040   0.89229   0.62484   0.00000  Uiso   1.00
H533   H     0.62874   0.73407   0.61810   0.00000  Uiso   1.00
H534   H     0.60521   0.94942   0.39752   0.00000  Uiso   1.00
H535   H     0.38482   0.97766   0.68262   0.00000  Uiso   1.00
H536   H     0.71872   0.64400   0.66839   0.00000  Uiso   1.00
H537   H     0.67772   0.06192   0.63244   0.00000  Uiso   1.00
H538   H     0.69782   0.11179   0.54602   0.00000  Uiso   1.00
H539   H     0.59329   0.12519   0.68122   0.00000  Uiso   1.00
H540   H     0.75163   0.96697   0.67448   0.00000  Uiso   1.00
H541   H     0.70495   0.13845   0.44328   0.00000  Uiso   1.00
H542   H     0.48456   0.16669   0.72838   0.00000  Uiso   1.00
H543   H     0.81846   0.83304   0.71415   0.00000  Uiso   1.00
O544   O     0.66618   0.07277   0.36259   0.00000  Uiso   1.00
O545   O     0.37703   0.10982   0.73664   0.00000  Uiso   1.00
O546   O     0.81511   0.67207   0.71796   0.00000  Uiso   1.00
N547   N     0.62594   0.98705   0.42015   0.00000  Uiso   1.00
N548   N     0.41988   0.01347   0.68669   0.00000  Uiso   1.00
N549   N     0.73204   0.70153   0.67340   0.00000  Uiso   1.00
N550   N     0.67961   0.08877   0.44477   0.00000  Uiso   1.00
N551   N     0.47355   0.11518   0.71132   0.00000  Uiso   1.00
N552   N     0.78571   0.80324   0.69802   0.00000  Uiso   1.00
C553   C     0.58792   0.10828   0.90877   0.00000  Uiso   1.00
C554   C     0.61152   0.05716   0.94990   0.00000  Uiso   1.00
C555   C     0.60146   0.07082   0.99820   0.00000  Uiso   1.00
C556   C     0.62693   0.01716   0.03026   0.00000  Uiso   1.00
C557   C     0.65834   0.94763   0.09652   0.00000  Uiso   1.00
C558   C     0.55472   0.04987   0.87645   0.00000  Uiso   1.00
C559   C     0.49691   0.05742   0.86298   0.00000  Uiso   1.00
C560   C     0.47457   0.99762   0.83320   0.00000  Uiso   1.00
C561   C     0.41781   0.91681   0.78538   0.00000  Uiso   1.00
C562   C     0.64076   0.13584   0.88012   0.00000  Uiso   1.00
C563   C     0.65528   0.21567   0.86973   0.00000  Uiso   1.00
C564   C     0.70537   0.22825   0.84302   0.00000  Uiso   1.00
C565   C     0.78220   0.28093   0.80091   0.00000  Uiso   1.00
C566   C     0.65103   0.98866   0.87981   0.00000  Uiso   1.00
C567   C     0.64580   0.99218   0.93417   0.00000  Uiso   1.00
C568   C     0.67129   0.93848   0.96616   0.00000  Uiso   1.00
C569   C     0.66127   0.95207   0.01450   0.00000  Uiso   1.00
C570   C     0.58900   0.98490   0.86072   0.00000  Uiso   1.00
C571   C     0.56674   0.92507   0.83094   0.00000  Uiso   1.00
C572   C     0.50891   0.93253   0.81744   0.00000  Uiso   1.00
C573   C     0.67504   0.07087   0.86439   0.00000  Uiso   1.00
C574   C     0.72511   0.08333   0.83769   0.00000  Uiso   1.00
C575   C     0.73971   0.16316   0.82726   0.00000  Uiso   1.00
H576   H     0.56123   0.15886   0.92101   0.00000  Uiso   1.00
H577   H     0.57492   0.12111   0.01036   0.00000  Uiso   1.00
H578   H     0.47040   0.10771   0.87516   0.00000  Uiso   1.00
H579   H     0.62874   0.26593   0.88190   0.00000  Uiso   1.00
H580   H     0.60521   0.05058   0.10248   0.00000  Uiso   1.00
H581   H     0.38482   0.02234   0.81738   0.00000  Uiso   1.00
H582   H     0.71872   0.35600   0.83161   0.00000  Uiso   1.00
H583   H     0.67772   0.93808   0.86756   0.00000  Uiso   1.00
H584   H     0.69782   0.88821   0.95398   0.00000  Uiso   1.00
H585   H     0.59329   0.87481   0.81878   0.00000  Uiso   1.00
H586   H     0.75163   0.03303   0.82552   0.00000  Uiso   1.00
H587   H     0.70495   0.86155   0.05672   0.00000  Uiso   1.00
H588   H     0.48456   0.83331   0.77162   0.00000  Uiso   1.00
H589   H     0.81846   0.16696   0.78585   0.00000  Uiso   1.00
O590   O     0.66618   0.92723   0.13741   0.00000  Uiso   1.00
O591   O     0.37703   0.89018   0.76336   0.00000  Uiso   1.00
O592   O     0.81511   0.32793   0.78204   0.00000  Uiso   1.00
N593   N     0.62594   0.01295   0.07985   0.00000  Uiso   1.00
N594   N     0.41988   0.98653   0.81331   0.00000  Uiso   1.00
N595   N     0.73204   0.29847   0.82660   0.00000  Uiso   1.00
N596   N     0.67961   0.91123   0.05523   0.00000  Uiso   1.00
N597   N     0.47355   0.88482   0.78868   0.00000  Uiso   1.00
N598   N     0.78571   0.19676   0.80198   0.00000  Uiso   1.00
C599   C     0.08792   0.60828   0.40877   0.00000  Uiso   1.00
C600   C     0.11152   0.55716   0.44990   0.00000  Uiso   1.00
C601   C     0.10146   0.57082   0.49820   0.00000  Uiso   1.00
C602   C     0.12693   0.51716   0.53026   0.00000  Uiso   1.00
C603   C     0.15834   0.44763   0.59652   0.00000  Uiso   1.00
C604   C     0.05472   0.54987   0.37645   0.00000  Uiso   1.00
C605   C     0.99691   0.55742   0.36298   0.00000  Uiso   1.00
C606   C     0.97457   0.49762   0.33320   0.00000  Uiso   1.00
C607   C     0.91781   0.41681   0.28538   0.00000  Uiso   1.00
C608   C     0.14076   0.63584   0.38012   0.00000  Uiso   1.00
C609   C     0.15528   0.71567   0.36973   0.00000  Uiso   1.00
C610   C     0.20537   0.72825   0.34302   0.00000  Uiso   1.00
C611   C     0.28220   0.78093   0.30091   0.00000  Uiso   1.00
C612   C     0.15103   0.48866   0.37981   0.00000  Uiso   1.00
C613   C     0.14580   0.49218   0.43417   0.00000  Uiso   1.00
C614   C     0.17129   0.43848   0.46616   0.00000  Uiso   1.00
C615   C     0.16127   0.45207   0.51450   0.00000  Uiso   1.00
C616   C     0.08900   0.48490   0.36072   0.00000  Uiso   1.00
C617   C     0.06674   0.42507   0.33094   0.00000  Uiso   1.00
C618   C     0.00891   0.43253   0.31744   0.00000  Uiso   1.00
C619   C     0.17504   0.57087   0.36439   0.00000  Uiso   1.00
C620   C     0.22511   0.58333   0.33769   0.00000  Uiso   1.00
C621   C     0.23971   0.66316   0.32726   0.00000  Uiso   1.00
H622   H     0.06123   0.65886   0.42101   0.00000  Uiso   1.00
H623   H     0.07492   0.62111   0.51036   0.00000  Uiso   1.00
H624   H     0.97040   0.60771   0.37516   0.00000  Uiso   1.00
H625   H     0.12874   0.76593   0.38190   0.00000  Uiso   1.00
H626   H     0.10521   0.55058   0.60248   0.00000  Uiso   1.00
H627   H     0.88482   0.52234   0.31738   0.00000  Uiso   1.00
H628   H     0.21872   0.85600   0.33161   0.00000  Uiso   1.00
H629   H     0.17772   0.43808   0.36756   0.00000  Uiso   1.00
H630   H     0.19782   0.38821   0.45398   0.00000  Uiso   1.00
H631   H     0.09329   0.37481   0.31878   0.00000  Uiso   1.00
H632   H     0.25163   0.53303   0.32552   0.00000  Uiso   1.00
H633   H     0.20495   0.36155   0.55672   0.00000  Uiso   1.00
H634   H     0.98456   0.33331   0.27162   0.00000  Uiso   1.00
H635   H     0.31846   0.66696   0.28585   0.00000  Uiso   1.00
O636   O     0.16618   0.42723   0.63741   0.00000  Uiso   1.00
O637   O     0.87703   0.39018   0.26336   0.00000  Uiso   1.00
O638   O     0.31511   0.82793   0.28204   0.00000  Uiso   1.00
N639   N     0.12594   0.51295   0.57985   0.00000  Uiso   1.00
N640   N     0.91988   0.48653   0.31331   0.00000  Uiso   1.00
N641   N     0.23204   0.79847   0.32660   0.00000  Uiso   1.00
N642   N     0.17961   0.41123   0.55523   0.00000  Uiso   1.00
N643   N     0.97355   0.38482   0.28868   0.00000  Uiso   1.00
N644   N     0.28571   0.69676   0.30198   0.00000  Uiso   1.00
C645   C     0.91208   0.89172   0.40877   0.00000  Uiso   1.00
C646   C     0.88848   0.94284   0.44990   0.00000  Uiso   1.00
C647   C     0.89854   0.92918   0.49820   0.00000  Uiso   1.00
C648   C     0.87307   0.98284   0.53026   0.00000  Uiso   1.00
C649   C     0.84166   0.05237   0.59652   0.00000  Uiso   1.00
C650   C     0.94528   0.95013   0.37645   0.00000  Uiso   1.00
C651   C     0.00309   0.94258   0.36298   0.00000  Uiso   1.00
C652   C     0.02543   0.00238   0.33320   0.00000  Uiso   1.00
C653   C     0.08219   0.08319   0.28538   0.00000  Uiso   1.00
C654   C     0.85924   0.86416   0.38012   0.00000  Uiso   1.00
C655   C     0.84472   0.78433   0.36973   0.00000  Uiso   1.00
C656   C     0.79463   0.77175   0.34302   0.00000  Uiso   1.00
C657   C     0.71780   0.71907   0.30091   0.00000  Uiso   1.00
C658   C     0.84897   0.01134   0.37981   0.00000  Uiso   1.00
C659   C     0.85420   0.00782   0.43417   0.00000  Uiso   1.00
C660   C     0.82871   0.06152   0.46616   0.00000  Uiso   1.00
C661   C     0.83873   0.04793   0.51450   0.00000  Uiso   1.00
C662   C     0.91100   0.01510   0.36072   0.00000  Uiso   1.00
C663   C     0.93326   0.07493   0.33094   0.00000  Uiso   1.00
C664   C     0.99109   0.06747   0.31744   0.00000  Uiso   1.00
C665   C     0.82496   0.92913   0.36439   0.00000  Uiso   1.00
C666   C     0.77489   0.91667   0.33769   0.00000  Uiso   1.00
C667   C     0.76029   0.83684   0.32726   0.00000  Uiso   1.00
H668   H     0.93877   0.84114   0.42101   0.00000  Uiso   1.00
H669   H     0.92508   0.87889   0.51036   0.00000  Uiso   1.00
H670   H     0.02960   0.89229   0.37516   0.00000  Uiso   1.00
H671   H     0.87126   0.73407   0.38190   0.00000  Uiso   1.00
H672   H     0.89479   0.94942   0.60248   0.00000  Uiso   1.00
H673   H     0.11518   0.97766   0.31738   0.00000  Uiso   1.00
H674   H     0.78128   0.64400   0.33161   0.00000  Uiso   1.00
H675   H     0.82228   0.06192   0.36756   0.00000  Uiso   1.00
H676   H     0.80218   0.11179   0.45398   0.00000  Uiso   1.00
H677   H     0.90671   0.12519   0.31878   0.00000  Uiso   1.00
H678   H     0.74837   0.96697   0.32552   0.00000  Uiso   1.00
H679   H     0.79505   0.13845   0.55672   0.00000  Uiso   1.00
H680   H     0.01544   0.16669   0.27162   0.00000  Uiso   1.00
H681   H     0.68154   0.83304   0.28585   0.00000  Uiso   1.00
O682   O     0.83382   0.07277   0.63741   0.00000  Uiso   1.00
O683   O     0.12297   0.10982   0.26336   0.00000  Uiso   1.00
O684   O     0.68489   0.67207   0.28204   0.00000  Uiso   1.00
N685   N     0.87406   0.98705   0.57985   0.00000  Uiso   1.00
N686   N     0.08012   0.01347   0.31331   0.00000  Uiso   1.00
N687   N     0.76796   0.70153   0.32660   0.00000  Uiso   1.00
N688   N     0.82039   0.08877   0.55523   0.00000  Uiso   1.00
N689   N     0.02645   0.11518   0.28868   0.00000  Uiso   1.00
N690   N     0.71429   0.80324   0.30198   0.00000  Uiso   1.00
C691   C     0.41208   0.39172   0.90877   0.00000  Uiso   1.00
C692   C     0.38848   0.44284   0.94990   0.00000  Uiso   1.00
C693   C     0.39854   0.42918   0.99820   0.00000  Uiso   1.00
C694   C     0.37307   0.48284   0.03026   0.00000  Uiso   1.00
C695   C     0.34166   0.55237   0.09652   0.00000  Uiso   1.00
C696   C     0.44528   0.45013   0.87645   0.00000  Uiso   1.00
C697   C     0.50309   0.44258   0.86298   0.00000  Uiso   1.00
C698   C     0.52543   0.50238   0.83320   0.00000  Uiso   1.00
C699   C     0.58219   0.58319   0.78538   0.00000  Uiso   1.00
C700   C     0.35924   0.36416   0.88012   0.00000  Uiso   1.00
C701   C     0.34472   0.28433   0.86973   0.00000  Uiso   1.00
C702   C     0.29463   0.27175   0.84302   0.00000  Uiso   1.00
C703   C     0.21780   0.21907   0.80091   0.00000  Uiso   1.00
C704   C     0.34897   0.51134   0.87981   0.00000  Uiso   1.00
C705   C     0.35420   0.50782   0.93417   0.00000  Uiso   1.00
C706   C     0.32871   0.56152   0.96616   0.00000  Uiso   1.00
C707   C     0.33873   0.54793   0.01450   0.00000  Uiso   1.00
C708   C     0.41100   0.51510   0.86072   0.00000  Uiso   1.00
C709   C     0.43326   0.57493   0.83094   0.00000  Uiso   1.00
C710   C     0.49109   0.56747   0.81744   0.00000  Uiso   1.00
C711   C     0.32496   0.42913   0.86439   0.00000  Uiso   1.00
C712   C     0.27489   0.41667   0.83769   0.00000  Uiso   1.00
C713   C     0.26029   0.33684   0.82726   0.00000  Uiso   1.00
H714   H     0.43877   0.34114   0.92101   0.00000  Uiso   1.00
H715   H     0.42508   0.37889   0.01036   0.00000  Uiso   1.00
H716   H     0.52960   0.39229   0.87516   0.00000  Uiso   1.00
H717   H     0.37126   0.23407   0.88190   0.00000  Uiso   1.00
H718   H     0.39479   0.44942   0.10248   0.00000  Uiso   1.00
H719   H     0.61518   0.47766   0.81738   0.00000  Uiso   1.00
H720   H     0.28128   0.14400   0.83161   0.00000  Uiso   1.00
H721   H     0.32228   0.56192   0.86756   0.00000  Uiso   1.00
H722   H     0.30218   0.61179   0.95398   0.00000  Uiso   1.00
H723   H     0.40671   0.62519   0.81878   0.00000  Uiso   1.00
H724   H     0.24837   0.46697   0.82552   0.00000  Uiso   1.00
H725   H     0.29505   0.63845   0.05672   0.00000  Uiso   1.00
H726   H     0.51544   0.66669   0.77162   0.00000  Uiso   1.00
H727   H     0.18154   0.33304   0.78585   0.00000  Uiso   1.00
O728   O     0.33382   0.57277   0.13741   0.00000  Uiso   1.00
O729   O     0.62297   0.60982   0.76336   0.00000  Uiso   1.00
O730   O     0.18489   0.17207   0.78204   0.00000  Uiso   1.00
N731   N     0.37406   0.48705   0.07985   0.00000  Uiso   1.00
N732   N     0.58012   0.51347   0.81331   0.00000  Uiso   1.00
N733   N     0.26796   0.20153   0.82660   0.00000  Uiso   1.00
N734   N     0.32039   0.58877   0.05523   0.00000  Uiso   1.00
N735   N     0.52645   0.61518   0.78868   0.00000  Uiso   1.00
N736   N     0.21429   0.30324   0.80198   0.00000  Uiso   1.00
