data_job_02258
_audit_creation_date              2018-12-19
_audit_creation_method            'Materials Studio'
_symmetry_space_group_name_H-M    'P1'
_symmetry_Int_Tables_number       1
_symmetry_cell_setting            triclinic
loop_
_symmetry_equiv_pos_as_xyz
  x,y,z
_cell_length_a                    43.3530
_cell_length_b                    17.1733
_cell_length_c                    13.1851
_cell_angle_alpha                 90.0000
_cell_angle_beta                  90.0000
_cell_angle_gamma                 90.0000
loop_
_atom_site_label
_atom_site_type_symbol
_atom_site_fract_x
_atom_site_fract_y
_atom_site_fract_z
_atom_site_U_iso_or_equiv
_atom_site_adp_type
_atom_site_occupancy
C1     C     0.28423   0.66685   0.33447   0.00000  Uiso   1.00
C2     C     0.26330   0.59636   0.32005   0.00000  Uiso   1.00
C3     C     0.23277   0.59098   0.35090   0.00000  Uiso   1.00
C4     C     0.21757   0.52153   0.33072   0.00000  Uiso   1.00
C5     C     0.18281   0.42145   0.31586   0.00000  Uiso   1.00
C6     C     0.31239   0.63748   0.39227   0.00000  Uiso   1.00
C7     C     0.32314   0.66668   0.48383   0.00000  Uiso   1.00
C8     C     0.34927   0.63185   0.52444   0.00000  Uiso   1.00
C9     C     0.39074   0.59566   0.62168   0.00000  Uiso   1.00
C10    C     0.29572   0.68875   0.22894   0.00000  Uiso   1.00
C11    C     0.29246   0.76106   0.18319   0.00000  Uiso   1.00
C12    C     0.30456   0.76940   0.08629   0.00000  Uiso   1.00
C13    C     0.32014   0.81281   0.92994   0.00000  Uiso   1.00
C14    C     0.31153   0.55309   0.24377   0.00000  Uiso   1.00
C15    C     0.27813   0.53457   0.27078   0.00000  Uiso   1.00
C16    C     0.26297   0.46511   0.25054   0.00000  Uiso   1.00
C17    C     0.23242   0.45962   0.28136   0.00000  Uiso   1.00
C18    C     0.32722   0.57569   0.34301   0.00000  Uiso   1.00
C19    C     0.35334   0.54081   0.38348   0.00000  Uiso   1.00
C20    C     0.36413   0.56995   0.47509   0.00000  Uiso   1.00
C21    C     0.31055   0.62696   0.17967   0.00000  Uiso   1.00
C22    C     0.32266   0.63519   0.08284   0.00000  Uiso   1.00
C23    C     0.31941   0.70750   0.03694   0.00000  Uiso   1.00
H24    H     0.27269   0.71496   0.37283   0.00000  Uiso   1.00
H25    H     0.22130   0.63881   0.38903   0.00000  Uiso   1.00
H26    H     0.31166   0.71450   0.52194   0.00000  Uiso   1.00
H27    H     0.28098   0.80887   0.22134   0.00000  Uiso   1.00
H28    H     0.17087   0.52712   0.38530   0.00000  Uiso   1.00
H29    H     0.36141   0.68674   0.66552   0.00000  Uiso   1.00
H30    H     0.29671   0.88573   0.03165   0.00000  Uiso   1.00
H31    H     0.32308   0.50498   0.20541   0.00000  Uiso   1.00
H32    H     0.27445   0.41730   0.21242   0.00000  Uiso   1.00
H33    H     0.36481   0.49300   0.34533   0.00000  Uiso   1.00
H34    H     0.33413   0.58736   0.04473   0.00000  Uiso   1.00
H35    H     0.21400   0.34733   0.24196   0.00000  Uiso   1.00
H36    H     0.40454   0.50696   0.52219   0.00000  Uiso   1.00
H37    H     0.33984   0.70595   0.88831   0.00000  Uiso   1.00
O38    O     0.15954   0.38332   0.32129   0.00000  Uiso   1.00
O39    O     0.40952   0.59276   0.68893   0.00000  Uiso   1.00
O40    O     0.32464   0.85382   0.85731   0.00000  Uiso   1.00
N41    N     0.18769   0.49684   0.35058   0.00000  Uiso   1.00
N42    N     0.36583   0.64608   0.61259   0.00000  Uiso   1.00
N43    N     0.30535   0.83212   0.01998   0.00000  Uiso   1.00
N44    N     0.21090   0.40010   0.27345   0.00000  Uiso   1.00
N45    N     0.38904   0.54934   0.53546   0.00000  Uiso   1.00
N46    N     0.32856   0.73538   0.94285   0.00000  Uiso   1.00
C47    C     0.28423   0.16685   0.83447   0.00000  Uiso   1.00
C48    C     0.26330   0.09636   0.82005   0.00000  Uiso   1.00
C49    C     0.23277   0.09098   0.85090   0.00000  Uiso   1.00
C50    C     0.21757   0.02153   0.83072   0.00000  Uiso   1.00
C51    C     0.18281   0.92145   0.81586   0.00000  Uiso   1.00
C52    C     0.31239   0.13748   0.89227   0.00000  Uiso   1.00
C53    C     0.32314   0.16668   0.98383   0.00000  Uiso   1.00
C54    C     0.34927   0.13185   0.02444   0.00000  Uiso   1.00
C55    C     0.39074   0.09566   0.12168   0.00000  Uiso   1.00
C56    C     0.29572   0.18875   0.72894   0.00000  Uiso   1.00
C57    C     0.29246   0.26106   0.68319   0.00000  Uiso   1.00
C58    C     0.30456   0.26940   0.58629   0.00000  Uiso   1.00
C59    C     0.32014   0.31281   0.42994   0.00000  Uiso   1.00
C60    C     0.31153   0.05309   0.74377   0.00000  Uiso   1.00
C61    C     0.27813   0.03457   0.77078   0.00000  Uiso   1.00
C62    C     0.26297   0.96511   0.75054   0.00000  Uiso   1.00
C63    C     0.23242   0.95962   0.78136   0.00000  Uiso   1.00
C64    C     0.32722   0.07569   0.84301   0.00000  Uiso   1.00
C65    C     0.35334   0.04081   0.88348   0.00000  Uiso   1.00
C66    C     0.36413   0.06995   0.97509   0.00000  Uiso   1.00
C67    C     0.31055   0.12696   0.67967   0.00000  Uiso   1.00
C68    C     0.32266   0.13519   0.58284   0.00000  Uiso   1.00
C69    C     0.31941   0.20750   0.53694   0.00000  Uiso   1.00
H70    H     0.27269   0.21496   0.87283   0.00000  Uiso   1.00
H71    H     0.22130   0.13881   0.88903   0.00000  Uiso   1.00
H72    H     0.31166   0.21450   0.02194   0.00000  Uiso   1.00
H73    H     0.28098   0.30887   0.72134   0.00000  Uiso   1.00
H74    H     0.17087   0.02712   0.88530   0.00000  Uiso   1.00
H75    H     0.36141   0.18674   0.16552   0.00000  Uiso   1.00
H76    H     0.29671   0.38573   0.53165   0.00000  Uiso   1.00
H77    H     0.32308   0.00498   0.70541   0.00000  Uiso   1.00
H78    H     0.27445   0.91730   0.71242   0.00000  Uiso   1.00
H79    H     0.36481   0.99300   0.84533   0.00000  Uiso   1.00
H80    H     0.33413   0.08736   0.54473   0.00000  Uiso   1.00
H81    H     0.21400   0.84733   0.74196   0.00000  Uiso   1.00
H82    H     0.40454   0.00696   0.02219   0.00000  Uiso   1.00
H83    H     0.33984   0.20595   0.38831   0.00000  Uiso   1.00
O84    O     0.15954   0.88332   0.82129   0.00000  Uiso   1.00
O85    O     0.40952   0.09276   0.18893   0.00000  Uiso   1.00
O86    O     0.32464   0.35382   0.35731   0.00000  Uiso   1.00
N87    N     0.18769   0.99684   0.85058   0.00000  Uiso   1.00
N88    N     0.36583   0.14608   0.11259   0.00000  Uiso   1.00
N89    N     0.30535   0.33212   0.51998   0.00000  Uiso   1.00
N90    N     0.21090   0.90010   0.77345   0.00000  Uiso   1.00
N91    N     0.38904   0.04934   0.03546   0.00000  Uiso   1.00
N92    N     0.32856   0.23538   0.44285   0.00000  Uiso   1.00
C93    C     0.78423   0.66685   0.83447   0.00000  Uiso   1.00
C94    C     0.76330   0.59636   0.82005   0.00000  Uiso   1.00
C95    C     0.73277   0.59098   0.85090   0.00000  Uiso   1.00
C96    C     0.71757   0.52153   0.83072   0.00000  Uiso   1.00
C97    C     0.68281   0.42145   0.81586   0.00000  Uiso   1.00
C98    C     0.81239   0.63748   0.89227   0.00000  Uiso   1.00
C99    C     0.82314   0.66668   0.98383   0.00000  Uiso   1.00
C100   C     0.84927   0.63185   0.02444   0.00000  Uiso   1.00
C101   C     0.89074   0.59566   0.12168   0.00000  Uiso   1.00
C102   C     0.79572   0.68875   0.72894   0.00000  Uiso   1.00
C103   C     0.79246   0.76106   0.68319   0.00000  Uiso   1.00
C104   C     0.80456   0.76940   0.58629   0.00000  Uiso   1.00
C105   C     0.82014   0.81281   0.42994   0.00000  Uiso   1.00
C106   C     0.81153   0.55309   0.74377   0.00000  Uiso   1.00
C107   C     0.77813   0.53457   0.77078   0.00000  Uiso   1.00
C108   C     0.76297   0.46511   0.75054   0.00000  Uiso   1.00
C109   C     0.73242   0.45962   0.78136   0.00000  Uiso   1.00
C110   C     0.82722   0.57569   0.84301   0.00000  Uiso   1.00
C111   C     0.85334   0.54081   0.88348   0.00000  Uiso   1.00
C112   C     0.86413   0.56995   0.97509   0.00000  Uiso   1.00
C113   C     0.81055   0.62696   0.67967   0.00000  Uiso   1.00
C114   C     0.82266   0.63519   0.58284   0.00000  Uiso   1.00
C115   C     0.81941   0.70750   0.53694   0.00000  Uiso   1.00
H116   H     0.77269   0.71496   0.87283   0.00000  Uiso   1.00
H117   H     0.72130   0.63881   0.88903   0.00000  Uiso   1.00
H118   H     0.81166   0.71450   0.02194   0.00000  Uiso   1.00
H119   H     0.78098   0.80887   0.72134   0.00000  Uiso   1.00
H120   H     0.67087   0.52712   0.88530   0.00000  Uiso   1.00
H121   H     0.86141   0.68674   0.16552   0.00000  Uiso   1.00
H122   H     0.79671   0.88573   0.53165   0.00000  Uiso   1.00
H123   H     0.82308   0.50498   0.70541   0.00000  Uiso   1.00
H124   H     0.77445   0.41730   0.71242   0.00000  Uiso   1.00
H125   H     0.86481   0.49300   0.84533   0.00000  Uiso   1.00
H126   H     0.83413   0.58736   0.54473   0.00000  Uiso   1.00
H127   H     0.71400   0.34733   0.74196   0.00000  Uiso   1.00
H128   H     0.90454   0.50696   0.02219   0.00000  Uiso   1.00
H129   H     0.83984   0.70595   0.38831   0.00000  Uiso   1.00
O130   O     0.65954   0.38332   0.82129   0.00000  Uiso   1.00
O131   O     0.90952   0.59276   0.18893   0.00000  Uiso   1.00
O132   O     0.82464   0.85382   0.35731   0.00000  Uiso   1.00
N133   N     0.68769   0.49684   0.85058   0.00000  Uiso   1.00
N134   N     0.86583   0.64608   0.11259   0.00000  Uiso   1.00
N135   N     0.80535   0.83212   0.51998   0.00000  Uiso   1.00
N136   N     0.71090   0.40010   0.77345   0.00000  Uiso   1.00
N137   N     0.88904   0.54934   0.03546   0.00000  Uiso   1.00
N138   N     0.82856   0.73538   0.44285   0.00000  Uiso   1.00
C139   C     0.78423   0.16685   0.33447   0.00000  Uiso   1.00
C140   C     0.76330   0.09636   0.32005   0.00000  Uiso   1.00
C141   C     0.73277   0.09098   0.35090   0.00000  Uiso   1.00
C142   C     0.71757   0.02153   0.33072   0.00000  Uiso   1.00
C143   C     0.68281   0.92145   0.31586   0.00000  Uiso   1.00
C144   C     0.81239   0.13748   0.39227   0.00000  Uiso   1.00
C145   C     0.82314   0.16668   0.48383   0.00000  Uiso   1.00
C146   C     0.84927   0.13185   0.52444   0.00000  Uiso   1.00
C147   C     0.89074   0.09566   0.62168   0.00000  Uiso   1.00
C148   C     0.79572   0.18875   0.22894   0.00000  Uiso   1.00
C149   C     0.79246   0.26106   0.18319   0.00000  Uiso   1.00
C150   C     0.80456   0.26940   0.08629   0.00000  Uiso   1.00
C151   C     0.82014   0.31281   0.92994   0.00000  Uiso   1.00
C152   C     0.81153   0.05309   0.24377   0.00000  Uiso   1.00
C153   C     0.77813   0.03457   0.27078   0.00000  Uiso   1.00
C154   C     0.76297   0.96511   0.25054   0.00000  Uiso   1.00
C155   C     0.73242   0.95962   0.28136   0.00000  Uiso   1.00
C156   C     0.82722   0.07569   0.34301   0.00000  Uiso   1.00
C157   C     0.85334   0.04081   0.38348   0.00000  Uiso   1.00
C158   C     0.86413   0.06995   0.47509   0.00000  Uiso   1.00
C159   C     0.81055   0.12696   0.17967   0.00000  Uiso   1.00
C160   C     0.82266   0.13519   0.08284   0.00000  Uiso   1.00
C161   C     0.81941   0.20750   0.03694   0.00000  Uiso   1.00
H162   H     0.77269   0.21496   0.37283   0.00000  Uiso   1.00
H163   H     0.72130   0.13881   0.38903   0.00000  Uiso   1.00
H164   H     0.81166   0.21450   0.52194   0.00000  Uiso   1.00
H165   H     0.78098   0.30887   0.22134   0.00000  Uiso   1.00
H166   H     0.67087   0.02712   0.38530   0.00000  Uiso   1.00
H167   H     0.86141   0.18674   0.66552   0.00000  Uiso   1.00
H168   H     0.79671   0.38573   0.03165   0.00000  Uiso   1.00
H169   H     0.82308   0.00498   0.20541   0.00000  Uiso   1.00
H170   H     0.77445   0.91730   0.21242   0.00000  Uiso   1.00
H171   H     0.86481   0.99300   0.34533   0.00000  Uiso   1.00
H172   H     0.83413   0.08736   0.04473   0.00000  Uiso   1.00
H173   H     0.71400   0.84733   0.24196   0.00000  Uiso   1.00
H174   H     0.90454   0.00696   0.52219   0.00000  Uiso   1.00
H175   H     0.83984   0.20595   0.88831   0.00000  Uiso   1.00
O176   O     0.65954   0.88332   0.32129   0.00000  Uiso   1.00
O177   O     0.90952   0.09276   0.68893   0.00000  Uiso   1.00
O178   O     0.82464   0.35382   0.85731   0.00000  Uiso   1.00
N179   N     0.68769   0.99684   0.35058   0.00000  Uiso   1.00
N180   N     0.86583   0.14608   0.61259   0.00000  Uiso   1.00
N181   N     0.80535   0.33212   0.01998   0.00000  Uiso   1.00
N182   N     0.71090   0.90010   0.27345   0.00000  Uiso   1.00
N183   N     0.88904   0.04934   0.53546   0.00000  Uiso   1.00
N184   N     0.82856   0.23538   0.94285   0.00000  Uiso   1.00
C185   C     0.71577   0.33315   0.33447   0.00000  Uiso   1.00
C186   C     0.73670   0.40364   0.32005   0.00000  Uiso   1.00
C187   C     0.76723   0.40902   0.35090   0.00000  Uiso   1.00
C188   C     0.78243   0.47847   0.33072   0.00000  Uiso   1.00
C189   C     0.81719   0.57855   0.31586   0.00000  Uiso   1.00
C190   C     0.68761   0.36252   0.39227   0.00000  Uiso   1.00
C191   C     0.67686   0.33332   0.48383   0.00000  Uiso   1.00
C192   C     0.65073   0.36815   0.52444   0.00000  Uiso   1.00
C193   C     0.60926   0.40434   0.62168   0.00000  Uiso   1.00
C194   C     0.70428   0.31125   0.22894   0.00000  Uiso   1.00
C195   C     0.70754   0.23894   0.18319   0.00000  Uiso   1.00
C196   C     0.69544   0.23060   0.08629   0.00000  Uiso   1.00
C197   C     0.67986   0.18719   0.92994   0.00000  Uiso   1.00
C198   C     0.68847   0.44691   0.24377   0.00000  Uiso   1.00
C199   C     0.72187   0.46543   0.27078   0.00000  Uiso   1.00
C200   C     0.73703   0.53489   0.25054   0.00000  Uiso   1.00
C201   C     0.76758   0.54038   0.28136   0.00000  Uiso   1.00
C202   C     0.67278   0.42431   0.34301   0.00000  Uiso   1.00
C203   C     0.64666   0.45919   0.38348   0.00000  Uiso   1.00
C204   C     0.63587   0.43005   0.47509   0.00000  Uiso   1.00
C205   C     0.68945   0.37304   0.17967   0.00000  Uiso   1.00
C206   C     0.67734   0.36481   0.08284   0.00000  Uiso   1.00
C207   C     0.68059   0.29250   0.03694   0.00000  Uiso   1.00
H208   H     0.72731   0.28504   0.37283   0.00000  Uiso   1.00
H209   H     0.77870   0.36119   0.38903   0.00000  Uiso   1.00
H210   H     0.68834   0.28550   0.52194   0.00000  Uiso   1.00
H211   H     0.71902   0.19113   0.22134   0.00000  Uiso   1.00
H212   H     0.82913   0.47288   0.38530   0.00000  Uiso   1.00
H213   H     0.63859   0.31326   0.66552   0.00000  Uiso   1.00
H214   H     0.70329   0.11427   0.03165   0.00000  Uiso   1.00
H215   H     0.67692   0.49502   0.20541   0.00000  Uiso   1.00
H216   H     0.72555   0.58270   0.21242   0.00000  Uiso   1.00
H217   H     0.63519   0.50700   0.34533   0.00000  Uiso   1.00
H218   H     0.66587   0.41264   0.04473   0.00000  Uiso   1.00
H219   H     0.78600   0.65267   0.24196   0.00000  Uiso   1.00
H220   H     0.59546   0.49304   0.52219   0.00000  Uiso   1.00
H221   H     0.66016   0.29405   0.88831   0.00000  Uiso   1.00
O222   O     0.84046   0.61668   0.32129   0.00000  Uiso   1.00
O223   O     0.59048   0.40724   0.68893   0.00000  Uiso   1.00
O224   O     0.67536   0.14618   0.85731   0.00000  Uiso   1.00
N225   N     0.81231   0.50316   0.35058   0.00000  Uiso   1.00
N226   N     0.63417   0.35392   0.61259   0.00000  Uiso   1.00
N227   N     0.69465   0.16788   0.01998   0.00000  Uiso   1.00
N228   N     0.78910   0.59990   0.27345   0.00000  Uiso   1.00
N229   N     0.61096   0.45066   0.53546   0.00000  Uiso   1.00
N230   N     0.67144   0.26462   0.94285   0.00000  Uiso   1.00
C231   C     0.71577   0.83315   0.83447   0.00000  Uiso   1.00
C232   C     0.73670   0.90364   0.82005   0.00000  Uiso   1.00
C233   C     0.76723   0.90902   0.85090   0.00000  Uiso   1.00
C234   C     0.78243   0.97847   0.83072   0.00000  Uiso   1.00
C235   C     0.81719   0.07855   0.81586   0.00000  Uiso   1.00
C236   C     0.68761   0.86252   0.89227   0.00000  Uiso   1.00
C237   C     0.67686   0.83332   0.98383   0.00000  Uiso   1.00
C238   C     0.65073   0.86815   0.02444   0.00000  Uiso   1.00
C239   C     0.60926   0.90434   0.12168   0.00000  Uiso   1.00
C240   C     0.70428   0.81125   0.72894   0.00000  Uiso   1.00
C241   C     0.70754   0.73894   0.68319   0.00000  Uiso   1.00
C242   C     0.69544   0.73060   0.58629   0.00000  Uiso   1.00
C243   C     0.67986   0.68719   0.42994   0.00000  Uiso   1.00
C244   C     0.68847   0.94691   0.74377   0.00000  Uiso   1.00
C245   C     0.72187   0.96543   0.77078   0.00000  Uiso   1.00
C246   C     0.73703   0.03489   0.75054   0.00000  Uiso   1.00
C247   C     0.76758   0.04038   0.78136   0.00000  Uiso   1.00
C248   C     0.67278   0.92431   0.84301   0.00000  Uiso   1.00
C249   C     0.64666   0.95919   0.88348   0.00000  Uiso   1.00
C250   C     0.63587   0.93005   0.97509   0.00000  Uiso   1.00
C251   C     0.68945   0.87304   0.67967   0.00000  Uiso   1.00
C252   C     0.67734   0.86481   0.58284   0.00000  Uiso   1.00
C253   C     0.68059   0.79250   0.53694   0.00000  Uiso   1.00
H254   H     0.72731   0.78504   0.87283   0.00000  Uiso   1.00
H255   H     0.77870   0.86119   0.88903   0.00000  Uiso   1.00
H256   H     0.68834   0.78550   0.02194   0.00000  Uiso   1.00
H257   H     0.71902   0.69113   0.72134   0.00000  Uiso   1.00
H258   H     0.82913   0.97288   0.88530   0.00000  Uiso   1.00
H259   H     0.63859   0.81326   0.16552   0.00000  Uiso   1.00
H260   H     0.70329   0.61427   0.53165   0.00000  Uiso   1.00
H261   H     0.67692   0.99502   0.70541   0.00000  Uiso   1.00
H262   H     0.72555   0.08270   0.71242   0.00000  Uiso   1.00
H263   H     0.63519   0.00700   0.84533   0.00000  Uiso   1.00
H264   H     0.66587   0.91264   0.54473   0.00000  Uiso   1.00
H265   H     0.78600   0.15267   0.74196   0.00000  Uiso   1.00
H266   H     0.59546   0.99304   0.02219   0.00000  Uiso   1.00
H267   H     0.66016   0.79405   0.38831   0.00000  Uiso   1.00
O268   O     0.84046   0.11668   0.82129   0.00000  Uiso   1.00
O269   O     0.59048   0.90724   0.18893   0.00000  Uiso   1.00
O270   O     0.67536   0.64618   0.35731   0.00000  Uiso   1.00
N271   N     0.81231   0.00316   0.85058   0.00000  Uiso   1.00
N272   N     0.63417   0.85392   0.11259   0.00000  Uiso   1.00
N273   N     0.69465   0.66788   0.51998   0.00000  Uiso   1.00
N274   N     0.78910   0.09990   0.77345   0.00000  Uiso   1.00
N275   N     0.61096   0.95066   0.03546   0.00000  Uiso   1.00
N276   N     0.67144   0.76462   0.44285   0.00000  Uiso   1.00
C277   C     0.21577   0.33315   0.83447   0.00000  Uiso   1.00
C278   C     0.23670   0.40364   0.82005   0.00000  Uiso   1.00
C279   C     0.26723   0.40902   0.85090   0.00000  Uiso   1.00
C280   C     0.28243   0.47847   0.83072   0.00000  Uiso   1.00
C281   C     0.31719   0.57855   0.81586   0.00000  Uiso   1.00
C282   C     0.18761   0.36252   0.89227   0.00000  Uiso   1.00
C283   C     0.17686   0.33332   0.98383   0.00000  Uiso   1.00
C284   C     0.15073   0.36815   0.02444   0.00000  Uiso   1.00
C285   C     0.10926   0.40434   0.12168   0.00000  Uiso   1.00
C286   C     0.20428   0.31125   0.72894   0.00000  Uiso   1.00
C287   C     0.20754   0.23894   0.68319   0.00000  Uiso   1.00
C288   C     0.19544   0.23060   0.58629   0.00000  Uiso   1.00
C289   C     0.17986   0.18719   0.42994   0.00000  Uiso   1.00
C290   C     0.18847   0.44691   0.74377   0.00000  Uiso   1.00
C291   C     0.22187   0.46543   0.77078   0.00000  Uiso   1.00
C292   C     0.23703   0.53489   0.75054   0.00000  Uiso   1.00
C293   C     0.26758   0.54038   0.78136   0.00000  Uiso   1.00
C294   C     0.17278   0.42431   0.84301   0.00000  Uiso   1.00
C295   C     0.14666   0.45919   0.88348   0.00000  Uiso   1.00
C296   C     0.13587   0.43005   0.97509   0.00000  Uiso   1.00
C297   C     0.18945   0.37304   0.67967   0.00000  Uiso   1.00
C298   C     0.17734   0.36481   0.58284   0.00000  Uiso   1.00
C299   C     0.18059   0.29250   0.53694   0.00000  Uiso   1.00
H300   H     0.22731   0.28504   0.87283   0.00000  Uiso   1.00
H301   H     0.27870   0.36119   0.88903   0.00000  Uiso   1.00
H302   H     0.18834   0.28550   0.02194   0.00000  Uiso   1.00
H303   H     0.21902   0.19113   0.72134   0.00000  Uiso   1.00
H304   H     0.32913   0.47288   0.88530   0.00000  Uiso   1.00
H305   H     0.13859   0.31326   0.16552   0.00000  Uiso   1.00
H306   H     0.20329   0.11427   0.53165   0.00000  Uiso   1.00
H307   H     0.17692   0.49502   0.70541   0.00000  Uiso   1.00
H308   H     0.22555   0.58270   0.71242   0.00000  Uiso   1.00
H309   H     0.13519   0.50700   0.84533   0.00000  Uiso   1.00
H310   H     0.16587   0.41264   0.54473   0.00000  Uiso   1.00
H311   H     0.28600   0.65267   0.74196   0.00000  Uiso   1.00
H312   H     0.09546   0.49304   0.02219   0.00000  Uiso   1.00
H313   H     0.16016   0.29405   0.38831   0.00000  Uiso   1.00
O314   O     0.34046   0.61668   0.82129   0.00000  Uiso   1.00
O315   O     0.09048   0.40724   0.18893   0.00000  Uiso   1.00
O316   O     0.17536   0.14618   0.35731   0.00000  Uiso   1.00
N317   N     0.31231   0.50316   0.85058   0.00000  Uiso   1.00
N318   N     0.13417   0.35392   0.11259   0.00000  Uiso   1.00
N319   N     0.19465   0.16788   0.51998   0.00000  Uiso   1.00
N320   N     0.28910   0.59990   0.77345   0.00000  Uiso   1.00
N321   N     0.11096   0.45066   0.03546   0.00000  Uiso   1.00
N322   N     0.17144   0.26462   0.44285   0.00000  Uiso   1.00
C323   C     0.21577   0.83315   0.33447   0.00000  Uiso   1.00
C324   C     0.23670   0.90364   0.32005   0.00000  Uiso   1.00
C325   C     0.26723   0.90902   0.35090   0.00000  Uiso   1.00
C326   C     0.28243   0.97847   0.33072   0.00000  Uiso   1.00
C327   C     0.31719   0.07855   0.31586   0.00000  Uiso   1.00
C328   C     0.18761   0.86252   0.39227   0.00000  Uiso   1.00
C329   C     0.17686   0.83332   0.48383   0.00000  Uiso   1.00
C330   C     0.15073   0.86815   0.52444   0.00000  Uiso   1.00
C331   C     0.10926   0.90434   0.62168   0.00000  Uiso   1.00
C332   C     0.20428   0.81125   0.22894   0.00000  Uiso   1.00
C333   C     0.20754   0.73894   0.18319   0.00000  Uiso   1.00
C334   C     0.19544   0.73060   0.08629   0.00000  Uiso   1.00
C335   C     0.17986   0.68719   0.92994   0.00000  Uiso   1.00
C336   C     0.18847   0.94691   0.24377   0.00000  Uiso   1.00
C337   C     0.22187   0.96543   0.27078   0.00000  Uiso   1.00
C338   C     0.23703   0.03489   0.25054   0.00000  Uiso   1.00
C339   C     0.26758   0.04038   0.28136   0.00000  Uiso   1.00
C340   C     0.17278   0.92431   0.34301   0.00000  Uiso   1.00
C341   C     0.14666   0.95919   0.38348   0.00000  Uiso   1.00
C342   C     0.13587   0.93005   0.47509   0.00000  Uiso   1.00
C343   C     0.18945   0.87304   0.17967   0.00000  Uiso   1.00
C344   C     0.17734   0.86481   0.08284   0.00000  Uiso   1.00
C345   C     0.18059   0.79250   0.03694   0.00000  Uiso   1.00
H346   H     0.22731   0.78504   0.37283   0.00000  Uiso   1.00
H347   H     0.27870   0.86119   0.38903   0.00000  Uiso   1.00
H348   H     0.18834   0.78550   0.52194   0.00000  Uiso   1.00
H349   H     0.21902   0.69113   0.22134   0.00000  Uiso   1.00
H350   H     0.32913   0.97288   0.38530   0.00000  Uiso   1.00
H351   H     0.13859   0.81326   0.66552   0.00000  Uiso   1.00
H352   H     0.20329   0.61427   0.03165   0.00000  Uiso   1.00
H353   H     0.17692   0.99502   0.20541   0.00000  Uiso   1.00
H354   H     0.22555   0.08270   0.21242   0.00000  Uiso   1.00
H355   H     0.13519   0.00700   0.34533   0.00000  Uiso   1.00
H356   H     0.16587   0.91264   0.04473   0.00000  Uiso   1.00
H357   H     0.28600   0.15267   0.24196   0.00000  Uiso   1.00
H358   H     0.09546   0.99304   0.52219   0.00000  Uiso   1.00
H359   H     0.16016   0.79405   0.88831   0.00000  Uiso   1.00
O360   O     0.34046   0.11668   0.32129   0.00000  Uiso   1.00
O361   O     0.09048   0.90724   0.68893   0.00000  Uiso   1.00
O362   O     0.17536   0.64618   0.85731   0.00000  Uiso   1.00
N363   N     0.31231   0.00316   0.35058   0.00000  Uiso   1.00
N364   N     0.13417   0.85392   0.61259   0.00000  Uiso   1.00
N365   N     0.19465   0.66788   0.01998   0.00000  Uiso   1.00
N366   N     0.28910   0.09990   0.27345   0.00000  Uiso   1.00
N367   N     0.11096   0.95066   0.53546   0.00000  Uiso   1.00
N368   N     0.17144   0.76462   0.94285   0.00000  Uiso   1.00
C369   C     0.53423   0.58315   0.58447   0.00000  Uiso   1.00
C370   C     0.51330   0.65364   0.57005   0.00000  Uiso   1.00
C371   C     0.48277   0.65902   0.60090   0.00000  Uiso   1.00
C372   C     0.46757   0.72847   0.58072   0.00000  Uiso   1.00
C373   C     0.43281   0.82855   0.56586   0.00000  Uiso   1.00
C374   C     0.56239   0.61252   0.64227   0.00000  Uiso   1.00
C375   C     0.57314   0.58332   0.73383   0.00000  Uiso   1.00
C376   C     0.59927   0.61815   0.77444   0.00000  Uiso   1.00
C377   C     0.64074   0.65434   0.87168   0.00000  Uiso   1.00
C378   C     0.54572   0.56125   0.47894   0.00000  Uiso   1.00
C379   C     0.54246   0.48894   0.43319   0.00000  Uiso   1.00
C380   C     0.55456   0.48060   0.33629   0.00000  Uiso   1.00
C381   C     0.57014   0.43719   0.17994   0.00000  Uiso   1.00
C382   C     0.56153   0.69691   0.49377   0.00000  Uiso   1.00
C383   C     0.52813   0.71543   0.52078   0.00000  Uiso   1.00
C384   C     0.51297   0.78489   0.50054   0.00000  Uiso   1.00
C385   C     0.48242   0.79038   0.53136   0.00000  Uiso   1.00
C386   C     0.57722   0.67431   0.59301   0.00000  Uiso   1.00
C387   C     0.60334   0.70919   0.63348   0.00000  Uiso   1.00
C388   C     0.61413   0.68005   0.72509   0.00000  Uiso   1.00
C389   C     0.56055   0.62304   0.42967   0.00000  Uiso   1.00
C390   C     0.57266   0.61481   0.33284   0.00000  Uiso   1.00
C391   C     0.56941   0.54250   0.28694   0.00000  Uiso   1.00
H392   H     0.52269   0.53504   0.62283   0.00000  Uiso   1.00
H393   H     0.47130   0.61119   0.63903   0.00000  Uiso   1.00
H394   H     0.56166   0.53550   0.77194   0.00000  Uiso   1.00
H395   H     0.53098   0.44113   0.47134   0.00000  Uiso   1.00
H396   H     0.42087   0.72288   0.63530   0.00000  Uiso   1.00
H397   H     0.61141   0.56326   0.91552   0.00000  Uiso   1.00
H398   H     0.54671   0.36427   0.28165   0.00000  Uiso   1.00
H399   H     0.57308   0.74502   0.45541   0.00000  Uiso   1.00
H400   H     0.52445   0.83270   0.46242   0.00000  Uiso   1.00
H401   H     0.61481   0.75700   0.59533   0.00000  Uiso   1.00
H402   H     0.58413   0.66264   0.29473   0.00000  Uiso   1.00
H403   H     0.46400   0.90267   0.49196   0.00000  Uiso   1.00
H404   H     0.65454   0.74304   0.77219   0.00000  Uiso   1.00
H405   H     0.58984   0.54405   0.13831   0.00000  Uiso   1.00
O406   O     0.40954   0.86668   0.57129   0.00000  Uiso   1.00
O407   O     0.65952   0.65724   0.93893   0.00000  Uiso   1.00
O408   O     0.57464   0.39618   0.10731   0.00000  Uiso   1.00
N409   N     0.43769   0.75316   0.60058   0.00000  Uiso   1.00
N410   N     0.61583   0.60392   0.86259   0.00000  Uiso   1.00
N411   N     0.55535   0.41788   0.26998   0.00000  Uiso   1.00
N412   N     0.46090   0.84990   0.52345   0.00000  Uiso   1.00
N413   N     0.63904   0.70066   0.78546   0.00000  Uiso   1.00
N414   N     0.57856   0.51462   0.19285   0.00000  Uiso   1.00
C415   C     0.53423   0.08315   0.08447   0.00000  Uiso   1.00
C416   C     0.51330   0.15364   0.07005   0.00000  Uiso   1.00
C417   C     0.48277   0.15902   0.10090   0.00000  Uiso   1.00
C418   C     0.46757   0.22847   0.08072   0.00000  Uiso   1.00
C419   C     0.43281   0.32855   0.06586   0.00000  Uiso   1.00
C420   C     0.56239   0.11252   0.14227   0.00000  Uiso   1.00
C421   C     0.57314   0.08332   0.23383   0.00000  Uiso   1.00
C422   C     0.59927   0.11815   0.27444   0.00000  Uiso   1.00
C423   C     0.64074   0.15434   0.37168   0.00000  Uiso   1.00
C424   C     0.54572   0.06125   0.97894   0.00000  Uiso   1.00
C425   C     0.54246   0.98894   0.93319   0.00000  Uiso   1.00
C426   C     0.55456   0.98060   0.83629   0.00000  Uiso   1.00
C427   C     0.57014   0.93719   0.67994   0.00000  Uiso   1.00
C428   C     0.56153   0.19691   0.99377   0.00000  Uiso   1.00
C429   C     0.52813   0.21543   0.02078   0.00000  Uiso   1.00
C430   C     0.51297   0.28489   0.00054   0.00000  Uiso   1.00
C431   C     0.48242   0.29038   0.03136   0.00000  Uiso   1.00
C432   C     0.57722   0.17431   0.09301   0.00000  Uiso   1.00
C433   C     0.60334   0.20919   0.13348   0.00000  Uiso   1.00
C434   C     0.61413   0.18005   0.22509   0.00000  Uiso   1.00
C435   C     0.56055   0.12304   0.92967   0.00000  Uiso   1.00
C436   C     0.57266   0.11481   0.83284   0.00000  Uiso   1.00
C437   C     0.56941   0.04250   0.78694   0.00000  Uiso   1.00
H438   H     0.52269   0.03504   0.12283   0.00000  Uiso   1.00
H439   H     0.47130   0.11119   0.13903   0.00000  Uiso   1.00
H440   H     0.56166   0.03550   0.27194   0.00000  Uiso   1.00
H441   H     0.53098   0.94113   0.97134   0.00000  Uiso   1.00
H442   H     0.42087   0.22288   0.13530   0.00000  Uiso   1.00
H443   H     0.61141   0.06326   0.41552   0.00000  Uiso   1.00
H444   H     0.54671   0.86427   0.78165   0.00000  Uiso   1.00
H445   H     0.57308   0.24502   0.95541   0.00000  Uiso   1.00
H446   H     0.52445   0.33270   0.96242   0.00000  Uiso   1.00
H447   H     0.61481   0.25700   0.09533   0.00000  Uiso   1.00
H448   H     0.58413   0.16264   0.79473   0.00000  Uiso   1.00
H449   H     0.46400   0.40267   0.99196   0.00000  Uiso   1.00
H450   H     0.65454   0.24304   0.27219   0.00000  Uiso   1.00
H451   H     0.58984   0.04405   0.63831   0.00000  Uiso   1.00
O452   O     0.40954   0.36668   0.07129   0.00000  Uiso   1.00
O453   O     0.65952   0.15724   0.43893   0.00000  Uiso   1.00
O454   O     0.57464   0.89618   0.60731   0.00000  Uiso   1.00
N455   N     0.43769   0.25316   0.10058   0.00000  Uiso   1.00
N456   N     0.61583   0.10392   0.36259   0.00000  Uiso   1.00
N457   N     0.55535   0.91788   0.76998   0.00000  Uiso   1.00
N458   N     0.46090   0.34990   0.02345   0.00000  Uiso   1.00
N459   N     0.63904   0.20066   0.28546   0.00000  Uiso   1.00
N460   N     0.57856   0.01462   0.69285   0.00000  Uiso   1.00
C461   C     0.03423   0.58315   0.08447   0.00000  Uiso   1.00
C462   C     0.01330   0.65364   0.07005   0.00000  Uiso   1.00
C463   C     0.98277   0.65902   0.10090   0.00000  Uiso   1.00
C464   C     0.96757   0.72847   0.08072   0.00000  Uiso   1.00
C465   C     0.93281   0.82855   0.06586   0.00000  Uiso   1.00
C466   C     0.06239   0.61252   0.14227   0.00000  Uiso   1.00
C467   C     0.07314   0.58332   0.23383   0.00000  Uiso   1.00
C468   C     0.09927   0.61815   0.27444   0.00000  Uiso   1.00
C469   C     0.14074   0.65434   0.37168   0.00000  Uiso   1.00
C470   C     0.04572   0.56125   0.97894   0.00000  Uiso   1.00
C471   C     0.04246   0.48894   0.93319   0.00000  Uiso   1.00
C472   C     0.05456   0.48060   0.83629   0.00000  Uiso   1.00
C473   C     0.07014   0.43719   0.67994   0.00000  Uiso   1.00
C474   C     0.06153   0.69691   0.99377   0.00000  Uiso   1.00
C475   C     0.02813   0.71543   0.02078   0.00000  Uiso   1.00
C476   C     0.01297   0.78489   0.00054   0.00000  Uiso   1.00
C477   C     0.98242   0.79038   0.03136   0.00000  Uiso   1.00
C478   C     0.07722   0.67431   0.09301   0.00000  Uiso   1.00
C479   C     0.10334   0.70919   0.13348   0.00000  Uiso   1.00
C480   C     0.11413   0.68005   0.22509   0.00000  Uiso   1.00
C481   C     0.06055   0.62304   0.92967   0.00000  Uiso   1.00
C482   C     0.07266   0.61481   0.83284   0.00000  Uiso   1.00
C483   C     0.06941   0.54250   0.78694   0.00000  Uiso   1.00
H484   H     0.02269   0.53504   0.12283   0.00000  Uiso   1.00
H485   H     0.97130   0.61119   0.13903   0.00000  Uiso   1.00
H486   H     0.06166   0.53550   0.27194   0.00000  Uiso   1.00
H487   H     0.03098   0.44113   0.97134   0.00000  Uiso   1.00
H488   H     0.92087   0.72288   0.13530   0.00000  Uiso   1.00
H489   H     0.11141   0.56326   0.41552   0.00000  Uiso   1.00
H490   H     0.04671   0.36427   0.78165   0.00000  Uiso   1.00
H491   H     0.07308   0.74502   0.95541   0.00000  Uiso   1.00
H492   H     0.02445   0.83270   0.96242   0.00000  Uiso   1.00
H493   H     0.11481   0.75700   0.09533   0.00000  Uiso   1.00
H494   H     0.08413   0.66264   0.79473   0.00000  Uiso   1.00
H495   H     0.96400   0.90267   0.99196   0.00000  Uiso   1.00
H496   H     0.15454   0.74304   0.27219   0.00000  Uiso   1.00
H497   H     0.08984   0.54405   0.63831   0.00000  Uiso   1.00
O498   O     0.90954   0.86668   0.07129   0.00000  Uiso   1.00
O499   O     0.15952   0.65724   0.43893   0.00000  Uiso   1.00
O500   O     0.07464   0.39618   0.60731   0.00000  Uiso   1.00
N501   N     0.93769   0.75316   0.10058   0.00000  Uiso   1.00
N502   N     0.11583   0.60392   0.36259   0.00000  Uiso   1.00
N503   N     0.05535   0.41788   0.76998   0.00000  Uiso   1.00
N504   N     0.96090   0.84990   0.02345   0.00000  Uiso   1.00
N505   N     0.13904   0.70066   0.28546   0.00000  Uiso   1.00
N506   N     0.07856   0.51462   0.69285   0.00000  Uiso   1.00
C507   C     0.03423   0.08315   0.58447   0.00000  Uiso   1.00
C508   C     0.01330   0.15364   0.57005   0.00000  Uiso   1.00
C509   C     0.98277   0.15902   0.60090   0.00000  Uiso   1.00
C510   C     0.96757   0.22847   0.58072   0.00000  Uiso   1.00
C511   C     0.93281   0.32855   0.56586   0.00000  Uiso   1.00
C512   C     0.06239   0.11252   0.64227   0.00000  Uiso   1.00
C513   C     0.07314   0.08332   0.73383   0.00000  Uiso   1.00
C514   C     0.09927   0.11815   0.77444   0.00000  Uiso   1.00
C515   C     0.14074   0.15434   0.87168   0.00000  Uiso   1.00
C516   C     0.04572   0.06125   0.47894   0.00000  Uiso   1.00
C517   C     0.04246   0.98894   0.43319   0.00000  Uiso   1.00
C518   C     0.05456   0.98060   0.33629   0.00000  Uiso   1.00
C519   C     0.07014   0.93719   0.17994   0.00000  Uiso   1.00
C520   C     0.06153   0.19691   0.49377   0.00000  Uiso   1.00
C521   C     0.02813   0.21543   0.52078   0.00000  Uiso   1.00
C522   C     0.01297   0.28489   0.50054   0.00000  Uiso   1.00
C523   C     0.98242   0.29038   0.53136   0.00000  Uiso   1.00
C524   C     0.07722   0.17431   0.59301   0.00000  Uiso   1.00
C525   C     0.10334   0.20919   0.63348   0.00000  Uiso   1.00
C526   C     0.11413   0.18005   0.72509   0.00000  Uiso   1.00
C527   C     0.06055   0.12304   0.42967   0.00000  Uiso   1.00
C528   C     0.07266   0.11481   0.33284   0.00000  Uiso   1.00
C529   C     0.06941   0.04250   0.28694   0.00000  Uiso   1.00
H530   H     0.02269   0.03504   0.62283   0.00000  Uiso   1.00
H531   H     0.97130   0.11119   0.63903   0.00000  Uiso   1.00
H532   H     0.06166   0.03550   0.77194   0.00000  Uiso   1.00
H533   H     0.03098   0.94113   0.47134   0.00000  Uiso   1.00
H534   H     0.92087   0.22288   0.63530   0.00000  Uiso   1.00
H535   H     0.11141   0.06326   0.91552   0.00000  Uiso   1.00
H536   H     0.04671   0.86427   0.28165   0.00000  Uiso   1.00
H537   H     0.07308   0.24502   0.45541   0.00000  Uiso   1.00
H538   H     0.02445   0.33270   0.46242   0.00000  Uiso   1.00
H539   H     0.11481   0.25700   0.59533   0.00000  Uiso   1.00
H540   H     0.08413   0.16264   0.29473   0.00000  Uiso   1.00
H541   H     0.96400   0.40267   0.49196   0.00000  Uiso   1.00
H542   H     0.15454   0.24304   0.77219   0.00000  Uiso   1.00
H543   H     0.08984   0.04405   0.13831   0.00000  Uiso   1.00
O544   O     0.90954   0.36668   0.57129   0.00000  Uiso   1.00
O545   O     0.15952   0.15724   0.93893   0.00000  Uiso   1.00
O546   O     0.07464   0.89618   0.10731   0.00000  Uiso   1.00
N547   N     0.93769   0.25316   0.60058   0.00000  Uiso   1.00
N548   N     0.11583   0.10392   0.86259   0.00000  Uiso   1.00
N549   N     0.05535   0.91788   0.26998   0.00000  Uiso   1.00
N550   N     0.96090   0.34990   0.52345   0.00000  Uiso   1.00
N551   N     0.13904   0.20066   0.78546   0.00000  Uiso   1.00
N552   N     0.07856   0.01462   0.19285   0.00000  Uiso   1.00
C553   C     0.96577   0.91685   0.58447   0.00000  Uiso   1.00
C554   C     0.98670   0.84636   0.57005   0.00000  Uiso   1.00
C555   C     0.01723   0.84098   0.60090   0.00000  Uiso   1.00
C556   C     0.03243   0.77153   0.58072   0.00000  Uiso   1.00
C557   C     0.06719   0.67145   0.56586   0.00000  Uiso   1.00
C558   C     0.93761   0.88748   0.64227   0.00000  Uiso   1.00
C559   C     0.92686   0.91668   0.73383   0.00000  Uiso   1.00
C560   C     0.90073   0.88185   0.77444   0.00000  Uiso   1.00
C561   C     0.85926   0.84566   0.87168   0.00000  Uiso   1.00
C562   C     0.95428   0.93875   0.47894   0.00000  Uiso   1.00
C563   C     0.95754   0.01106   0.43319   0.00000  Uiso   1.00
C564   C     0.94544   0.01940   0.33629   0.00000  Uiso   1.00
C565   C     0.92986   0.06281   0.17994   0.00000  Uiso   1.00
C566   C     0.93847   0.80309   0.49377   0.00000  Uiso   1.00
C567   C     0.97187   0.78457   0.52078   0.00000  Uiso   1.00
C568   C     0.98703   0.71511   0.50054   0.00000  Uiso   1.00
C569   C     0.01758   0.70962   0.53136   0.00000  Uiso   1.00
C570   C     0.92278   0.82569   0.59301   0.00000  Uiso   1.00
C571   C     0.89666   0.79081   0.63348   0.00000  Uiso   1.00
C572   C     0.88587   0.81995   0.72509   0.00000  Uiso   1.00
C573   C     0.93945   0.87696   0.42967   0.00000  Uiso   1.00
C574   C     0.92734   0.88519   0.33284   0.00000  Uiso   1.00
C575   C     0.93059   0.95750   0.28694   0.00000  Uiso   1.00
H576   H     0.97731   0.96496   0.62283   0.00000  Uiso   1.00
H577   H     0.02870   0.88881   0.63903   0.00000  Uiso   1.00
H578   H     0.93834   0.96450   0.77194   0.00000  Uiso   1.00
H579   H     0.96902   0.05887   0.47134   0.00000  Uiso   1.00
H580   H     0.07913   0.77712   0.63530   0.00000  Uiso   1.00
H581   H     0.88859   0.93674   0.91552   0.00000  Uiso   1.00
H582   H     0.95329   0.13573   0.28165   0.00000  Uiso   1.00
H583   H     0.92692   0.75498   0.45541   0.00000  Uiso   1.00
H584   H     0.97555   0.66730   0.46242   0.00000  Uiso   1.00
H585   H     0.88519   0.74300   0.59533   0.00000  Uiso   1.00
H586   H     0.91587   0.83736   0.29473   0.00000  Uiso   1.00
H587   H     0.03600   0.59733   0.49196   0.00000  Uiso   1.00
H588   H     0.84546   0.75696   0.77219   0.00000  Uiso   1.00
H589   H     0.91016   0.95595   0.13831   0.00000  Uiso   1.00
O590   O     0.09046   0.63332   0.57129   0.00000  Uiso   1.00
O591   O     0.84048   0.84276   0.93893   0.00000  Uiso   1.00
O592   O     0.92536   0.10382   0.10731   0.00000  Uiso   1.00
N593   N     0.06231   0.74684   0.60058   0.00000  Uiso   1.00
N594   N     0.88417   0.89608   0.86259   0.00000  Uiso   1.00
N595   N     0.94465   0.08212   0.26998   0.00000  Uiso   1.00
N596   N     0.03910   0.65010   0.52345   0.00000  Uiso   1.00
N597   N     0.86096   0.79934   0.78546   0.00000  Uiso   1.00
N598   N     0.92144   0.98538   0.19285   0.00000  Uiso   1.00
C599   C     0.96577   0.41685   0.08447   0.00000  Uiso   1.00
C600   C     0.98670   0.34636   0.07005   0.00000  Uiso   1.00
C601   C     0.01723   0.34098   0.10090   0.00000  Uiso   1.00
C602   C     0.03243   0.27153   0.08072   0.00000  Uiso   1.00
C603   C     0.06719   0.17145   0.06586   0.00000  Uiso   1.00
C604   C     0.93761   0.38748   0.14227   0.00000  Uiso   1.00
C605   C     0.92686   0.41668   0.23383   0.00000  Uiso   1.00
C606   C     0.90073   0.38185   0.27444   0.00000  Uiso   1.00
C607   C     0.85926   0.34566   0.37168   0.00000  Uiso   1.00
C608   C     0.95428   0.43875   0.97894   0.00000  Uiso   1.00
C609   C     0.95754   0.51106   0.93319   0.00000  Uiso   1.00
C610   C     0.94544   0.51940   0.83629   0.00000  Uiso   1.00
C611   C     0.92986   0.56281   0.67994   0.00000  Uiso   1.00
C612   C     0.93847   0.30309   0.99377   0.00000  Uiso   1.00
C613   C     0.97187   0.28457   0.02078   0.00000  Uiso   1.00
C614   C     0.98703   0.21511   0.00054   0.00000  Uiso   1.00
C615   C     0.01758   0.20962   0.03136   0.00000  Uiso   1.00
C616   C     0.92278   0.32569   0.09301   0.00000  Uiso   1.00
C617   C     0.89666   0.29081   0.13348   0.00000  Uiso   1.00
C618   C     0.88587   0.31995   0.22509   0.00000  Uiso   1.00
C619   C     0.93945   0.37696   0.92967   0.00000  Uiso   1.00
C620   C     0.92734   0.38519   0.83284   0.00000  Uiso   1.00
C621   C     0.93059   0.45750   0.78694   0.00000  Uiso   1.00
H622   H     0.97731   0.46496   0.12283   0.00000  Uiso   1.00
H623   H     0.02870   0.38881   0.13903   0.00000  Uiso   1.00
H624   H     0.93834   0.46450   0.27194   0.00000  Uiso   1.00
H625   H     0.96902   0.55887   0.97134   0.00000  Uiso   1.00
H626   H     0.07913   0.27712   0.13530   0.00000  Uiso   1.00
H627   H     0.88859   0.43674   0.41552   0.00000  Uiso   1.00
H628   H     0.95329   0.63573   0.78165   0.00000  Uiso   1.00
H629   H     0.92692   0.25498   0.95541   0.00000  Uiso   1.00
H630   H     0.97555   0.16730   0.96242   0.00000  Uiso   1.00
H631   H     0.88519   0.24300   0.09533   0.00000  Uiso   1.00
H632   H     0.91587   0.33736   0.79473   0.00000  Uiso   1.00
H633   H     0.03600   0.09733   0.99196   0.00000  Uiso   1.00
H634   H     0.84546   0.25696   0.27219   0.00000  Uiso   1.00
H635   H     0.91016   0.45595   0.63831   0.00000  Uiso   1.00
O636   O     0.09046   0.13332   0.07129   0.00000  Uiso   1.00
O637   O     0.84048   0.34276   0.43893   0.00000  Uiso   1.00
O638   O     0.92536   0.60382   0.60731   0.00000  Uiso   1.00
N639   N     0.06231   0.24684   0.10058   0.00000  Uiso   1.00
N640   N     0.88417   0.39608   0.36259   0.00000  Uiso   1.00
N641   N     0.94465   0.58212   0.76998   0.00000  Uiso   1.00
N642   N     0.03910   0.15010   0.02345   0.00000  Uiso   1.00
N643   N     0.86096   0.29934   0.28546   0.00000  Uiso   1.00
N644   N     0.92144   0.48538   0.69285   0.00000  Uiso   1.00
C645   C     0.46577   0.91685   0.08447   0.00000  Uiso   1.00
C646   C     0.48670   0.84636   0.07005   0.00000  Uiso   1.00
C647   C     0.51723   0.84098   0.10090   0.00000  Uiso   1.00
C648   C     0.53243   0.77153   0.08072   0.00000  Uiso   1.00
C649   C     0.56719   0.67145   0.06586   0.00000  Uiso   1.00
C650   C     0.43761   0.88748   0.14227   0.00000  Uiso   1.00
C651   C     0.42686   0.91668   0.23383   0.00000  Uiso   1.00
C652   C     0.40073   0.88185   0.27444   0.00000  Uiso   1.00
C653   C     0.35926   0.84566   0.37168   0.00000  Uiso   1.00
C654   C     0.45428   0.93875   0.97894   0.00000  Uiso   1.00
C655   C     0.45754   0.01106   0.93319   0.00000  Uiso   1.00
C656   C     0.44544   0.01940   0.83629   0.00000  Uiso   1.00
C657   C     0.42986   0.06281   0.67994   0.00000  Uiso   1.00
C658   C     0.43847   0.80309   0.99377   0.00000  Uiso   1.00
C659   C     0.47187   0.78457   0.02078   0.00000  Uiso   1.00
C660   C     0.48703   0.71511   0.00054   0.00000  Uiso   1.00
C661   C     0.51758   0.70962   0.03136   0.00000  Uiso   1.00
C662   C     0.42278   0.82569   0.09301   0.00000  Uiso   1.00
C663   C     0.39666   0.79081   0.13348   0.00000  Uiso   1.00
C664   C     0.38587   0.81995   0.22509   0.00000  Uiso   1.00
C665   C     0.43945   0.87696   0.92967   0.00000  Uiso   1.00
C666   C     0.42734   0.88519   0.83284   0.00000  Uiso   1.00
C667   C     0.43059   0.95750   0.78694   0.00000  Uiso   1.00
H668   H     0.47731   0.96496   0.12283   0.00000  Uiso   1.00
H669   H     0.52870   0.88881   0.13903   0.00000  Uiso   1.00
H670   H     0.43834   0.96450   0.27194   0.00000  Uiso   1.00
H671   H     0.46902   0.05887   0.97134   0.00000  Uiso   1.00
H672   H     0.57913   0.77712   0.13530   0.00000  Uiso   1.00
H673   H     0.38859   0.93674   0.41552   0.00000  Uiso   1.00
H674   H     0.45329   0.13573   0.78165   0.00000  Uiso   1.00
H675   H     0.42692   0.75498   0.95541   0.00000  Uiso   1.00
H676   H     0.47555   0.66730   0.96242   0.00000  Uiso   1.00
H677   H     0.38519   0.74300   0.09533   0.00000  Uiso   1.00
H678   H     0.41587   0.83736   0.79473   0.00000  Uiso   1.00
H679   H     0.53600   0.59733   0.99196   0.00000  Uiso   1.00
H680   H     0.34546   0.75696   0.27219   0.00000  Uiso   1.00
H681   H     0.41016   0.95595   0.63831   0.00000  Uiso   1.00
O682   O     0.59046   0.63332   0.07129   0.00000  Uiso   1.00
O683   O     0.34048   0.84276   0.43893   0.00000  Uiso   1.00
O684   O     0.42536   0.10382   0.60731   0.00000  Uiso   1.00
N685   N     0.56231   0.74684   0.10058   0.00000  Uiso   1.00
N686   N     0.38417   0.89608   0.36259   0.00000  Uiso   1.00
N687   N     0.44465   0.08212   0.76998   0.00000  Uiso   1.00
N688   N     0.53910   0.65010   0.02345   0.00000  Uiso   1.00
N689   N     0.36096   0.79934   0.28546   0.00000  Uiso   1.00
N690   N     0.42144   0.98538   0.69285   0.00000  Uiso   1.00
C691   C     0.46577   0.41685   0.58447   0.00000  Uiso   1.00
C692   C     0.48670   0.34636   0.57005   0.00000  Uiso   1.00
C693   C     0.51723   0.34098   0.60090   0.00000  Uiso   1.00
C694   C     0.53243   0.27153   0.58072   0.00000  Uiso   1.00
C695   C     0.56719   0.17145   0.56586   0.00000  Uiso   1.00
C696   C     0.43761   0.38748   0.64227   0.00000  Uiso   1.00
C697   C     0.42686   0.41668   0.73383   0.00000  Uiso   1.00
C698   C     0.40073   0.38185   0.77444   0.00000  Uiso   1.00
C699   C     0.35926   0.34566   0.87168   0.00000  Uiso   1.00
C700   C     0.45428   0.43875   0.47894   0.00000  Uiso   1.00
C701   C     0.45754   0.51106   0.43319   0.00000  Uiso   1.00
C702   C     0.44544   0.51940   0.33629   0.00000  Uiso   1.00
C703   C     0.42986   0.56281   0.17994   0.00000  Uiso   1.00
C704   C     0.43847   0.30309   0.49377   0.00000  Uiso   1.00
C705   C     0.47187   0.28457   0.52078   0.00000  Uiso   1.00
C706   C     0.48703   0.21511   0.50054   0.00000  Uiso   1.00
C707   C     0.51758   0.20962   0.53136   0.00000  Uiso   1.00
C708   C     0.42278   0.32569   0.59301   0.00000  Uiso   1.00
C709   C     0.39666   0.29081   0.63348   0.00000  Uiso   1.00
C710   C     0.38587   0.31995   0.72509   0.00000  Uiso   1.00
C711   C     0.43945   0.37696   0.42967   0.00000  Uiso   1.00
C712   C     0.42734   0.38519   0.33284   0.00000  Uiso   1.00
C713   C     0.43059   0.45750   0.28694   0.00000  Uiso   1.00
H714   H     0.47731   0.46496   0.62283   0.00000  Uiso   1.00
H715   H     0.52870   0.38881   0.63903   0.00000  Uiso   1.00
H716   H     0.43834   0.46450   0.77194   0.00000  Uiso   1.00
H717   H     0.46902   0.55887   0.47134   0.00000  Uiso   1.00
H718   H     0.57913   0.27712   0.63530   0.00000  Uiso   1.00
H719   H     0.38859   0.43674   0.91552   0.00000  Uiso   1.00
H720   H     0.45329   0.63573   0.28165   0.00000  Uiso   1.00
H721   H     0.42692   0.25498   0.45541   0.00000  Uiso   1.00
H722   H     0.47555   0.16730   0.46242   0.00000  Uiso   1.00
H723   H     0.38519   0.24300   0.59533   0.00000  Uiso   1.00
H724   H     0.41587   0.33736   0.29473   0.00000  Uiso   1.00
H725   H     0.53600   0.09733   0.49196   0.00000  Uiso   1.00
H726   H     0.34546   0.25696   0.77219   0.00000  Uiso   1.00
H727   H     0.41016   0.45595   0.13831   0.00000  Uiso   1.00
O728   O     0.59046   0.13332   0.57129   0.00000  Uiso   1.00
O729   O     0.34048   0.34276   0.93893   0.00000  Uiso   1.00
O730   O     0.42536   0.60382   0.10731   0.00000  Uiso   1.00
N731   N     0.56231   0.24684   0.60058   0.00000  Uiso   1.00
N732   N     0.38417   0.39608   0.86259   0.00000  Uiso   1.00
N733   N     0.44465   0.58212   0.26998   0.00000  Uiso   1.00
N734   N     0.53910   0.15010   0.52345   0.00000  Uiso   1.00
N735   N     0.36096   0.29934   0.78546   0.00000  Uiso   1.00
N736   N     0.42144   0.48538   0.19285   0.00000  Uiso   1.00
