data_job_02221
_audit_creation_date              2018-12-19
_audit_creation_method            'Materials Studio'
_symmetry_space_group_name_H-M    'P1'
_symmetry_Int_Tables_number       1
_symmetry_cell_setting            triclinic
loop_
_symmetry_equiv_pos_as_xyz
  x,y,z
_cell_length_a                    39.8163
_cell_length_b                    18.9683
_cell_length_c                    14.8970
_cell_angle_alpha                 90.0000
_cell_angle_beta                  90.0000
_cell_angle_gamma                 90.0000
loop_
_atom_site_label
_atom_site_type_symbol
_atom_site_fract_x
_atom_site_fract_y
_atom_site_fract_z
_atom_site_U_iso_or_equiv
_atom_site_adp_type
_atom_site_occupancy
C1     C     0.37764   0.79013   0.32738   0.00000  Uiso   1.00
C2     C     0.41373   0.80682   0.30050   0.00000  Uiso   1.00
C3     C     0.42397   0.86387   0.24900   0.00000  Uiso   1.00
C4     C     0.45812   0.86985   0.23177   0.00000  Uiso   1.00
C5     C     0.51065   0.90326   0.18495   0.00000  Uiso   1.00
C6     C     0.37074   0.71557   0.29384   0.00000  Uiso   1.00
C7     C     0.34484   0.69589   0.23675   0.00000  Uiso   1.00
C8     C     0.34280   0.62505   0.21394   0.00000  Uiso   1.00
C9     C     0.32858   0.51676   0.15684   0.00000  Uiso   1.00
C10    C     0.37752   0.78576   0.42959   0.00000  Uiso   1.00
C11    C     0.35731   0.82509   0.48664   0.00000  Uiso   1.00
C12    C     0.36098   0.81334   0.57812   0.00000  Uiso   1.00
C13    C     0.35729   0.81404   0.73179   0.00000  Uiso   1.00
C14    C     0.42007   0.69931   0.38838   0.00000  Uiso   1.00
C15    C     0.43677   0.75749   0.33363   0.00000  Uiso   1.00
C16    C     0.47092   0.76339   0.31648   0.00000  Uiso   1.00
C17    C     0.48121   0.82044   0.26496   0.00000  Uiso   1.00
C18    C     0.39379   0.66624   0.32697   0.00000  Uiso   1.00
C19    C     0.39179   0.59541   0.30424   0.00000  Uiso   1.00
C20    C     0.36589   0.57563   0.24712   0.00000  Uiso   1.00
C21    C     0.40057   0.73644   0.46272   0.00000  Uiso   1.00
C22    C     0.40426   0.72461   0.55412   0.00000  Uiso   1.00
C23    C     0.38407   0.76392   0.61130   0.00000  Uiso   1.00
H24    H     0.35969   0.82853   0.30159   0.00000  Uiso   1.00
H25    H     0.40612   0.90203   0.22336   0.00000  Uiso   1.00
H26    H     0.32701   0.73407   0.21113   0.00000  Uiso   1.00
H27    H     0.33948   0.86326   0.46098   0.00000  Uiso   1.00
H28    H     0.46777   0.96175   0.15122   0.00000  Uiso   1.00
H29    H     0.30093   0.60760   0.12546   0.00000  Uiso   1.00
H30    H     0.32724   0.88001   0.65231   0.00000  Uiso   1.00
H31    H     0.43801   0.66091   0.41417   0.00000  Uiso   1.00
H32    H     0.48875   0.72521   0.34213   0.00000  Uiso   1.00
H33    H     0.40963   0.55725   0.32989   0.00000  Uiso   1.00
H34    H     0.42210   0.68644   0.57974   0.00000  Uiso   1.00
H35    H     0.53483   0.81823   0.24761   0.00000  Uiso   1.00
H36    H     0.36799   0.46408   0.22185   0.00000  Uiso   1.00
H37    H     0.39430   0.73649   0.74870   0.00000  Uiso   1.00
O38    O     0.53326   0.93530   0.14996   0.00000  Uiso   1.00
O39    O     0.31437   0.47067   0.11618   0.00000  Uiso   1.00
O40    O     0.34889   0.82807   0.80740   0.00000  Uiso   1.00
N41    N     0.47659   0.91916   0.18381   0.00000  Uiso   1.00
N42    N     0.32061   0.58805   0.15971   0.00000  Uiso   1.00
N43    N     0.34520   0.84271   0.65227   0.00000  Uiso   1.00
N44    N     0.51267   0.84193   0.23567   0.00000  Uiso   1.00
N45    N     0.35670   0.51082   0.21158   0.00000  Uiso   1.00
N46    N     0.38128   0.76549   0.70414   0.00000  Uiso   1.00
C47    C     0.37764   0.29013   0.82738   0.00000  Uiso   1.00
C48    C     0.41373   0.30682   0.80050   0.00000  Uiso   1.00
C49    C     0.42397   0.36387   0.74900   0.00000  Uiso   1.00
C50    C     0.45812   0.36985   0.73177   0.00000  Uiso   1.00
C51    C     0.51065   0.40326   0.68495   0.00000  Uiso   1.00
C52    C     0.37074   0.21557   0.79384   0.00000  Uiso   1.00
C53    C     0.34484   0.19589   0.73675   0.00000  Uiso   1.00
C54    C     0.34280   0.12505   0.71394   0.00000  Uiso   1.00
C55    C     0.32858   0.01676   0.65684   0.00000  Uiso   1.00
C56    C     0.37752   0.28576   0.92959   0.00000  Uiso   1.00
C57    C     0.35731   0.32509   0.98664   0.00000  Uiso   1.00
C58    C     0.36098   0.31334   0.07812   0.00000  Uiso   1.00
C59    C     0.35729   0.31404   0.23179   0.00000  Uiso   1.00
C60    C     0.42007   0.19931   0.88838   0.00000  Uiso   1.00
C61    C     0.43677   0.25749   0.83363   0.00000  Uiso   1.00
C62    C     0.47092   0.26339   0.81648   0.00000  Uiso   1.00
C63    C     0.48121   0.32044   0.76496   0.00000  Uiso   1.00
C64    C     0.39379   0.16624   0.82697   0.00000  Uiso   1.00
C65    C     0.39179   0.09541   0.80424   0.00000  Uiso   1.00
C66    C     0.36589   0.07563   0.74712   0.00000  Uiso   1.00
C67    C     0.40057   0.23644   0.96272   0.00000  Uiso   1.00
C68    C     0.40426   0.22461   0.05412   0.00000  Uiso   1.00
C69    C     0.38407   0.26392   0.11130   0.00000  Uiso   1.00
H70    H     0.35969   0.32853   0.80159   0.00000  Uiso   1.00
H71    H     0.40612   0.40203   0.72336   0.00000  Uiso   1.00
H72    H     0.32701   0.23407   0.71113   0.00000  Uiso   1.00
H73    H     0.33948   0.36326   0.96098   0.00000  Uiso   1.00
H74    H     0.46777   0.46175   0.65122   0.00000  Uiso   1.00
H75    H     0.30093   0.10760   0.62546   0.00000  Uiso   1.00
H76    H     0.32724   0.38001   0.15231   0.00000  Uiso   1.00
H77    H     0.43801   0.16091   0.91417   0.00000  Uiso   1.00
H78    H     0.48875   0.22521   0.84213   0.00000  Uiso   1.00
H79    H     0.40963   0.05725   0.82989   0.00000  Uiso   1.00
H80    H     0.42210   0.18644   0.07974   0.00000  Uiso   1.00
H81    H     0.53483   0.31823   0.74761   0.00000  Uiso   1.00
H82    H     0.36799   0.96408   0.72185   0.00000  Uiso   1.00
H83    H     0.39430   0.23649   0.24870   0.00000  Uiso   1.00
O84    O     0.53326   0.43530   0.64996   0.00000  Uiso   1.00
O85    O     0.31437   0.97067   0.61618   0.00000  Uiso   1.00
O86    O     0.34889   0.32807   0.30740   0.00000  Uiso   1.00
N87    N     0.47659   0.41916   0.68381   0.00000  Uiso   1.00
N88    N     0.32061   0.08805   0.65971   0.00000  Uiso   1.00
N89    N     0.34520   0.34271   0.15227   0.00000  Uiso   1.00
N90    N     0.51267   0.34193   0.73567   0.00000  Uiso   1.00
N91    N     0.35670   0.01082   0.71158   0.00000  Uiso   1.00
N92    N     0.38128   0.26549   0.20414   0.00000  Uiso   1.00
C93    C     0.87764   0.79013   0.82738   0.00000  Uiso   1.00
C94    C     0.91373   0.80682   0.80050   0.00000  Uiso   1.00
C95    C     0.92397   0.86387   0.74900   0.00000  Uiso   1.00
C96    C     0.95812   0.86985   0.73177   0.00000  Uiso   1.00
C97    C     0.01065   0.90326   0.68495   0.00000  Uiso   1.00
C98    C     0.87074   0.71557   0.79384   0.00000  Uiso   1.00
C99    C     0.84484   0.69589   0.73675   0.00000  Uiso   1.00
C100   C     0.84280   0.62505   0.71394   0.00000  Uiso   1.00
C101   C     0.82858   0.51676   0.65684   0.00000  Uiso   1.00
C102   C     0.87752   0.78576   0.92959   0.00000  Uiso   1.00
C103   C     0.85731   0.82509   0.98664   0.00000  Uiso   1.00
C104   C     0.86098   0.81334   0.07812   0.00000  Uiso   1.00
C105   C     0.85729   0.81404   0.23179   0.00000  Uiso   1.00
C106   C     0.92007   0.69931   0.88838   0.00000  Uiso   1.00
C107   C     0.93677   0.75749   0.83363   0.00000  Uiso   1.00
C108   C     0.97092   0.76339   0.81648   0.00000  Uiso   1.00
C109   C     0.98121   0.82044   0.76496   0.00000  Uiso   1.00
C110   C     0.89379   0.66624   0.82697   0.00000  Uiso   1.00
C111   C     0.89179   0.59541   0.80424   0.00000  Uiso   1.00
C112   C     0.86589   0.57563   0.74712   0.00000  Uiso   1.00
C113   C     0.90057   0.73644   0.96272   0.00000  Uiso   1.00
C114   C     0.90426   0.72461   0.05412   0.00000  Uiso   1.00
C115   C     0.88407   0.76392   0.11130   0.00000  Uiso   1.00
H116   H     0.85969   0.82853   0.80159   0.00000  Uiso   1.00
H117   H     0.90612   0.90203   0.72336   0.00000  Uiso   1.00
H118   H     0.82701   0.73407   0.71113   0.00000  Uiso   1.00
H119   H     0.83948   0.86326   0.96098   0.00000  Uiso   1.00
H120   H     0.96777   0.96175   0.65122   0.00000  Uiso   1.00
H121   H     0.80093   0.60760   0.62546   0.00000  Uiso   1.00
H122   H     0.82724   0.88001   0.15231   0.00000  Uiso   1.00
H123   H     0.93801   0.66091   0.91417   0.00000  Uiso   1.00
H124   H     0.98875   0.72521   0.84213   0.00000  Uiso   1.00
H125   H     0.90963   0.55725   0.82989   0.00000  Uiso   1.00
H126   H     0.92210   0.68644   0.07974   0.00000  Uiso   1.00
H127   H     0.03483   0.81823   0.74761   0.00000  Uiso   1.00
H128   H     0.86799   0.46408   0.72185   0.00000  Uiso   1.00
H129   H     0.89430   0.73649   0.24870   0.00000  Uiso   1.00
O130   O     0.03326   0.93530   0.64996   0.00000  Uiso   1.00
O131   O     0.81437   0.47067   0.61618   0.00000  Uiso   1.00
O132   O     0.84889   0.82807   0.30740   0.00000  Uiso   1.00
N133   N     0.97659   0.91916   0.68381   0.00000  Uiso   1.00
N134   N     0.82061   0.58805   0.65971   0.00000  Uiso   1.00
N135   N     0.84520   0.84271   0.15227   0.00000  Uiso   1.00
N136   N     0.01267   0.84193   0.73567   0.00000  Uiso   1.00
N137   N     0.85670   0.51082   0.71158   0.00000  Uiso   1.00
N138   N     0.88128   0.76549   0.20414   0.00000  Uiso   1.00
C139   C     0.87764   0.29013   0.32738   0.00000  Uiso   1.00
C140   C     0.91373   0.30682   0.30050   0.00000  Uiso   1.00
C141   C     0.92397   0.36387   0.24900   0.00000  Uiso   1.00
C142   C     0.95812   0.36985   0.23177   0.00000  Uiso   1.00
C143   C     0.01065   0.40326   0.18495   0.00000  Uiso   1.00
C144   C     0.87074   0.21557   0.29384   0.00000  Uiso   1.00
C145   C     0.84484   0.19589   0.23675   0.00000  Uiso   1.00
C146   C     0.84280   0.12505   0.21394   0.00000  Uiso   1.00
C147   C     0.82858   0.01676   0.15684   0.00000  Uiso   1.00
C148   C     0.87752   0.28576   0.42959   0.00000  Uiso   1.00
C149   C     0.85731   0.32509   0.48664   0.00000  Uiso   1.00
C150   C     0.86098   0.31334   0.57812   0.00000  Uiso   1.00
C151   C     0.85729   0.31404   0.73179   0.00000  Uiso   1.00
C152   C     0.92007   0.19931   0.38838   0.00000  Uiso   1.00
C153   C     0.93677   0.25749   0.33363   0.00000  Uiso   1.00
C154   C     0.97092   0.26339   0.31648   0.00000  Uiso   1.00
C155   C     0.98121   0.32044   0.26496   0.00000  Uiso   1.00
C156   C     0.89379   0.16624   0.32697   0.00000  Uiso   1.00
C157   C     0.89179   0.09541   0.30424   0.00000  Uiso   1.00
C158   C     0.86589   0.07563   0.24712   0.00000  Uiso   1.00
C159   C     0.90057   0.23644   0.46272   0.00000  Uiso   1.00
C160   C     0.90426   0.22461   0.55412   0.00000  Uiso   1.00
C161   C     0.88407   0.26392   0.61130   0.00000  Uiso   1.00
H162   H     0.85969   0.32853   0.30159   0.00000  Uiso   1.00
H163   H     0.90612   0.40203   0.22336   0.00000  Uiso   1.00
H164   H     0.82701   0.23407   0.21113   0.00000  Uiso   1.00
H165   H     0.83948   0.36326   0.46098   0.00000  Uiso   1.00
H166   H     0.96777   0.46175   0.15122   0.00000  Uiso   1.00
H167   H     0.80093   0.10760   0.12546   0.00000  Uiso   1.00
H168   H     0.82724   0.38001   0.65231   0.00000  Uiso   1.00
H169   H     0.93801   0.16091   0.41417   0.00000  Uiso   1.00
H170   H     0.98875   0.22521   0.34213   0.00000  Uiso   1.00
H171   H     0.90963   0.05725   0.32989   0.00000  Uiso   1.00
H172   H     0.92210   0.18644   0.57974   0.00000  Uiso   1.00
H173   H     0.03483   0.31823   0.24761   0.00000  Uiso   1.00
H174   H     0.86799   0.96408   0.22185   0.00000  Uiso   1.00
H175   H     0.89430   0.23649   0.74870   0.00000  Uiso   1.00
O176   O     0.03326   0.43530   0.14996   0.00000  Uiso   1.00
O177   O     0.81437   0.97067   0.11618   0.00000  Uiso   1.00
O178   O     0.84889   0.32807   0.80740   0.00000  Uiso   1.00
N179   N     0.97659   0.41916   0.18381   0.00000  Uiso   1.00
N180   N     0.82061   0.08805   0.15971   0.00000  Uiso   1.00
N181   N     0.84520   0.34271   0.65227   0.00000  Uiso   1.00
N182   N     0.01267   0.34193   0.23567   0.00000  Uiso   1.00
N183   N     0.85670   0.01082   0.21158   0.00000  Uiso   1.00
N184   N     0.88128   0.26549   0.70414   0.00000  Uiso   1.00
C185   C     0.62236   0.20987   0.32738   0.00000  Uiso   1.00
C186   C     0.58627   0.19318   0.30050   0.00000  Uiso   1.00
C187   C     0.57603   0.13613   0.24900   0.00000  Uiso   1.00
C188   C     0.54188   0.13015   0.23177   0.00000  Uiso   1.00
C189   C     0.48935   0.09674   0.18495   0.00000  Uiso   1.00
C190   C     0.62926   0.28443   0.29384   0.00000  Uiso   1.00
C191   C     0.65516   0.30411   0.23675   0.00000  Uiso   1.00
C192   C     0.65720   0.37495   0.21394   0.00000  Uiso   1.00
C193   C     0.67142   0.48324   0.15684   0.00000  Uiso   1.00
C194   C     0.62248   0.21424   0.42959   0.00000  Uiso   1.00
C195   C     0.64269   0.17491   0.48664   0.00000  Uiso   1.00
C196   C     0.63902   0.18666   0.57812   0.00000  Uiso   1.00
C197   C     0.64271   0.18596   0.73179   0.00000  Uiso   1.00
C198   C     0.57993   0.30069   0.38838   0.00000  Uiso   1.00
C199   C     0.56323   0.24251   0.33363   0.00000  Uiso   1.00
C200   C     0.52908   0.23661   0.31648   0.00000  Uiso   1.00
C201   C     0.51879   0.17956   0.26496   0.00000  Uiso   1.00
C202   C     0.60621   0.33376   0.32697   0.00000  Uiso   1.00
C203   C     0.60821   0.40459   0.30424   0.00000  Uiso   1.00
C204   C     0.63411   0.42437   0.24712   0.00000  Uiso   1.00
C205   C     0.59943   0.26356   0.46272   0.00000  Uiso   1.00
C206   C     0.59574   0.27539   0.55412   0.00000  Uiso   1.00
C207   C     0.61593   0.23608   0.61130   0.00000  Uiso   1.00
H208   H     0.64031   0.17147   0.30159   0.00000  Uiso   1.00
H209   H     0.59388   0.09797   0.22336   0.00000  Uiso   1.00
H210   H     0.67299   0.26593   0.21113   0.00000  Uiso   1.00
H211   H     0.66052   0.13674   0.46098   0.00000  Uiso   1.00
H212   H     0.53223   0.03825   0.15122   0.00000  Uiso   1.00
H213   H     0.69907   0.39240   0.12546   0.00000  Uiso   1.00
H214   H     0.67276   0.11999   0.65231   0.00000  Uiso   1.00
H215   H     0.56199   0.33909   0.41417   0.00000  Uiso   1.00
H216   H     0.51125   0.27479   0.34213   0.00000  Uiso   1.00
H217   H     0.59037   0.44275   0.32989   0.00000  Uiso   1.00
H218   H     0.57790   0.31356   0.57974   0.00000  Uiso   1.00
H219   H     0.46517   0.18177   0.24761   0.00000  Uiso   1.00
H220   H     0.63201   0.53592   0.22185   0.00000  Uiso   1.00
H221   H     0.60570   0.26351   0.74870   0.00000  Uiso   1.00
O222   O     0.46674   0.06470   0.14996   0.00000  Uiso   1.00
O223   O     0.68563   0.52933   0.11618   0.00000  Uiso   1.00
O224   O     0.65111   0.17193   0.80740   0.00000  Uiso   1.00
N225   N     0.52341   0.08084   0.18381   0.00000  Uiso   1.00
N226   N     0.67939   0.41195   0.15971   0.00000  Uiso   1.00
N227   N     0.65480   0.15729   0.65227   0.00000  Uiso   1.00
N228   N     0.48733   0.15807   0.23567   0.00000  Uiso   1.00
N229   N     0.64330   0.48918   0.21158   0.00000  Uiso   1.00
N230   N     0.61872   0.23451   0.70414   0.00000  Uiso   1.00
C231   C     0.62236   0.70987   0.82738   0.00000  Uiso   1.00
C232   C     0.58627   0.69318   0.80050   0.00000  Uiso   1.00
C233   C     0.57603   0.63613   0.74900   0.00000  Uiso   1.00
C234   C     0.54188   0.63015   0.73177   0.00000  Uiso   1.00
C235   C     0.48935   0.59674   0.68495   0.00000  Uiso   1.00
C236   C     0.62926   0.78443   0.79384   0.00000  Uiso   1.00
C237   C     0.65516   0.80411   0.73675   0.00000  Uiso   1.00
C238   C     0.65720   0.87495   0.71394   0.00000  Uiso   1.00
C239   C     0.67142   0.98324   0.65684   0.00000  Uiso   1.00
C240   C     0.62248   0.71424   0.92959   0.00000  Uiso   1.00
C241   C     0.64269   0.67491   0.98664   0.00000  Uiso   1.00
C242   C     0.63902   0.68666   0.07812   0.00000  Uiso   1.00
C243   C     0.64271   0.68596   0.23179   0.00000  Uiso   1.00
C244   C     0.57993   0.80069   0.88838   0.00000  Uiso   1.00
C245   C     0.56323   0.74251   0.83363   0.00000  Uiso   1.00
C246   C     0.52908   0.73661   0.81648   0.00000  Uiso   1.00
C247   C     0.51879   0.67956   0.76496   0.00000  Uiso   1.00
C248   C     0.60621   0.83376   0.82697   0.00000  Uiso   1.00
C249   C     0.60821   0.90459   0.80424   0.00000  Uiso   1.00
C250   C     0.63411   0.92437   0.74712   0.00000  Uiso   1.00
C251   C     0.59943   0.76356   0.96272   0.00000  Uiso   1.00
C252   C     0.59574   0.77539   0.05412   0.00000  Uiso   1.00
C253   C     0.61593   0.73608   0.11130   0.00000  Uiso   1.00
H254   H     0.64031   0.67147   0.80159   0.00000  Uiso   1.00
H255   H     0.59388   0.59797   0.72336   0.00000  Uiso   1.00
H256   H     0.67299   0.76593   0.71113   0.00000  Uiso   1.00
H257   H     0.66052   0.63674   0.96098   0.00000  Uiso   1.00
H258   H     0.53223   0.53825   0.65122   0.00000  Uiso   1.00
H259   H     0.69907   0.89240   0.62546   0.00000  Uiso   1.00
H260   H     0.67276   0.61999   0.15231   0.00000  Uiso   1.00
H261   H     0.56199   0.83909   0.91417   0.00000  Uiso   1.00
H262   H     0.51125   0.77479   0.84213   0.00000  Uiso   1.00
H263   H     0.59037   0.94275   0.82989   0.00000  Uiso   1.00
H264   H     0.57790   0.81356   0.07974   0.00000  Uiso   1.00
H265   H     0.46517   0.68177   0.74761   0.00000  Uiso   1.00
H266   H     0.63201   0.03592   0.72185   0.00000  Uiso   1.00
H267   H     0.60570   0.76351   0.24870   0.00000  Uiso   1.00
O268   O     0.46674   0.56470   0.64996   0.00000  Uiso   1.00
O269   O     0.68563   0.02933   0.61618   0.00000  Uiso   1.00
O270   O     0.65111   0.67193   0.30740   0.00000  Uiso   1.00
N271   N     0.52341   0.58084   0.68381   0.00000  Uiso   1.00
N272   N     0.67939   0.91195   0.65971   0.00000  Uiso   1.00
N273   N     0.65480   0.65729   0.15227   0.00000  Uiso   1.00
N274   N     0.48733   0.65807   0.73567   0.00000  Uiso   1.00
N275   N     0.64330   0.98918   0.71158   0.00000  Uiso   1.00
N276   N     0.61872   0.73451   0.20414   0.00000  Uiso   1.00
C277   C     0.12236   0.20987   0.82738   0.00000  Uiso   1.00
C278   C     0.08627   0.19318   0.80050   0.00000  Uiso   1.00
C279   C     0.07603   0.13613   0.74900   0.00000  Uiso   1.00
C280   C     0.04188   0.13015   0.73177   0.00000  Uiso   1.00
C281   C     0.98935   0.09674   0.68495   0.00000  Uiso   1.00
C282   C     0.12926   0.28443   0.79384   0.00000  Uiso   1.00
C283   C     0.15516   0.30411   0.73675   0.00000  Uiso   1.00
C284   C     0.15720   0.37495   0.71394   0.00000  Uiso   1.00
C285   C     0.17142   0.48324   0.65684   0.00000  Uiso   1.00
C286   C     0.12248   0.21424   0.92959   0.00000  Uiso   1.00
C287   C     0.14269   0.17491   0.98664   0.00000  Uiso   1.00
C288   C     0.13902   0.18666   0.07812   0.00000  Uiso   1.00
C289   C     0.14271   0.18596   0.23179   0.00000  Uiso   1.00
C290   C     0.07993   0.30069   0.88838   0.00000  Uiso   1.00
C291   C     0.06323   0.24251   0.83363   0.00000  Uiso   1.00
C292   C     0.02908   0.23661   0.81648   0.00000  Uiso   1.00
C293   C     0.01879   0.17956   0.76496   0.00000  Uiso   1.00
C294   C     0.10621   0.33376   0.82697   0.00000  Uiso   1.00
C295   C     0.10821   0.40459   0.80424   0.00000  Uiso   1.00
C296   C     0.13411   0.42437   0.74712   0.00000  Uiso   1.00
C297   C     0.09943   0.26356   0.96272   0.00000  Uiso   1.00
C298   C     0.09574   0.27539   0.05412   0.00000  Uiso   1.00
C299   C     0.11593   0.23608   0.11130   0.00000  Uiso   1.00
H300   H     0.14031   0.17147   0.80159   0.00000  Uiso   1.00
H301   H     0.09388   0.09797   0.72336   0.00000  Uiso   1.00
H302   H     0.17299   0.26593   0.71113   0.00000  Uiso   1.00
H303   H     0.16052   0.13674   0.96098   0.00000  Uiso   1.00
H304   H     0.03223   0.03825   0.65122   0.00000  Uiso   1.00
H305   H     0.19907   0.39240   0.62546   0.00000  Uiso   1.00
H306   H     0.17276   0.11999   0.15231   0.00000  Uiso   1.00
H307   H     0.06199   0.33909   0.91417   0.00000  Uiso   1.00
H308   H     0.01125   0.27479   0.84213   0.00000  Uiso   1.00
H309   H     0.09037   0.44275   0.82989   0.00000  Uiso   1.00
H310   H     0.07790   0.31356   0.07974   0.00000  Uiso   1.00
H311   H     0.96517   0.18177   0.74761   0.00000  Uiso   1.00
H312   H     0.13201   0.53592   0.72185   0.00000  Uiso   1.00
H313   H     0.10570   0.26351   0.24870   0.00000  Uiso   1.00
O314   O     0.96674   0.06470   0.64996   0.00000  Uiso   1.00
O315   O     0.18563   0.52933   0.61618   0.00000  Uiso   1.00
O316   O     0.15111   0.17193   0.30740   0.00000  Uiso   1.00
N317   N     0.02341   0.08084   0.68381   0.00000  Uiso   1.00
N318   N     0.17939   0.41195   0.65971   0.00000  Uiso   1.00
N319   N     0.15480   0.15729   0.15227   0.00000  Uiso   1.00
N320   N     0.98733   0.15807   0.73567   0.00000  Uiso   1.00
N321   N     0.14330   0.48918   0.71158   0.00000  Uiso   1.00
N322   N     0.11872   0.23451   0.20414   0.00000  Uiso   1.00
C323   C     0.12236   0.70987   0.32738   0.00000  Uiso   1.00
C324   C     0.08627   0.69318   0.30050   0.00000  Uiso   1.00
C325   C     0.07603   0.63613   0.24900   0.00000  Uiso   1.00
C326   C     0.04188   0.63015   0.23177   0.00000  Uiso   1.00
C327   C     0.98935   0.59674   0.18495   0.00000  Uiso   1.00
C328   C     0.12926   0.78443   0.29384   0.00000  Uiso   1.00
C329   C     0.15516   0.80411   0.23675   0.00000  Uiso   1.00
C330   C     0.15720   0.87495   0.21394   0.00000  Uiso   1.00
C331   C     0.17142   0.98324   0.15684   0.00000  Uiso   1.00
C332   C     0.12248   0.71424   0.42959   0.00000  Uiso   1.00
C333   C     0.14269   0.67491   0.48664   0.00000  Uiso   1.00
C334   C     0.13902   0.68666   0.57812   0.00000  Uiso   1.00
C335   C     0.14271   0.68596   0.73179   0.00000  Uiso   1.00
C336   C     0.07993   0.80069   0.38838   0.00000  Uiso   1.00
C337   C     0.06323   0.74251   0.33363   0.00000  Uiso   1.00
C338   C     0.02908   0.73661   0.31648   0.00000  Uiso   1.00
C339   C     0.01879   0.67956   0.26496   0.00000  Uiso   1.00
C340   C     0.10621   0.83376   0.32697   0.00000  Uiso   1.00
C341   C     0.10821   0.90459   0.30424   0.00000  Uiso   1.00
C342   C     0.13411   0.92437   0.24712   0.00000  Uiso   1.00
C343   C     0.09943   0.76356   0.46272   0.00000  Uiso   1.00
C344   C     0.09574   0.77539   0.55412   0.00000  Uiso   1.00
C345   C     0.11593   0.73608   0.61130   0.00000  Uiso   1.00
H346   H     0.14031   0.67147   0.30159   0.00000  Uiso   1.00
H347   H     0.09388   0.59797   0.22336   0.00000  Uiso   1.00
H348   H     0.17299   0.76593   0.21113   0.00000  Uiso   1.00
H349   H     0.16052   0.63674   0.46098   0.00000  Uiso   1.00
H350   H     0.03223   0.53825   0.15122   0.00000  Uiso   1.00
H351   H     0.19907   0.89240   0.12546   0.00000  Uiso   1.00
H352   H     0.17276   0.61999   0.65231   0.00000  Uiso   1.00
H353   H     0.06199   0.83909   0.41417   0.00000  Uiso   1.00
H354   H     0.01125   0.77479   0.34213   0.00000  Uiso   1.00
H355   H     0.09037   0.94275   0.32989   0.00000  Uiso   1.00
H356   H     0.07790   0.81356   0.57974   0.00000  Uiso   1.00
H357   H     0.96517   0.68177   0.24761   0.00000  Uiso   1.00
H358   H     0.13201   0.03592   0.22185   0.00000  Uiso   1.00
H359   H     0.10570   0.76351   0.74870   0.00000  Uiso   1.00
O360   O     0.96674   0.56470   0.14996   0.00000  Uiso   1.00
O361   O     0.18563   0.02933   0.11618   0.00000  Uiso   1.00
O362   O     0.15111   0.67193   0.80740   0.00000  Uiso   1.00
N363   N     0.02341   0.58084   0.18381   0.00000  Uiso   1.00
N364   N     0.17939   0.91195   0.15971   0.00000  Uiso   1.00
N365   N     0.15480   0.65729   0.65227   0.00000  Uiso   1.00
N366   N     0.98733   0.65807   0.23567   0.00000  Uiso   1.00
N367   N     0.14330   0.98918   0.21158   0.00000  Uiso   1.00
N368   N     0.11872   0.73451   0.70414   0.00000  Uiso   1.00
C369   C     0.62764   0.45987   0.57738   0.00000  Uiso   1.00
C370   C     0.66373   0.44318   0.55050   0.00000  Uiso   1.00
C371   C     0.67397   0.38613   0.49900   0.00000  Uiso   1.00
C372   C     0.70812   0.38015   0.48177   0.00000  Uiso   1.00
C373   C     0.76065   0.34674   0.43495   0.00000  Uiso   1.00
C374   C     0.62074   0.53443   0.54384   0.00000  Uiso   1.00
C375   C     0.59484   0.55411   0.48675   0.00000  Uiso   1.00
C376   C     0.59280   0.62495   0.46394   0.00000  Uiso   1.00
C377   C     0.57858   0.73324   0.40684   0.00000  Uiso   1.00
C378   C     0.62752   0.46424   0.67959   0.00000  Uiso   1.00
C379   C     0.60731   0.42491   0.73664   0.00000  Uiso   1.00
C380   C     0.61098   0.43666   0.82812   0.00000  Uiso   1.00
C381   C     0.60729   0.43596   0.98179   0.00000  Uiso   1.00
C382   C     0.67007   0.55069   0.63838   0.00000  Uiso   1.00
C383   C     0.68677   0.49251   0.58363   0.00000  Uiso   1.00
C384   C     0.72092   0.48661   0.56648   0.00000  Uiso   1.00
C385   C     0.73121   0.42956   0.51496   0.00000  Uiso   1.00
C386   C     0.64379   0.58376   0.57697   0.00000  Uiso   1.00
C387   C     0.64179   0.65459   0.55424   0.00000  Uiso   1.00
C388   C     0.61589   0.67437   0.49712   0.00000  Uiso   1.00
C389   C     0.65057   0.51356   0.71272   0.00000  Uiso   1.00
C390   C     0.65426   0.52539   0.80412   0.00000  Uiso   1.00
C391   C     0.63407   0.48608   0.86130   0.00000  Uiso   1.00
H392   H     0.60969   0.42147   0.55159   0.00000  Uiso   1.00
H393   H     0.65612   0.34797   0.47336   0.00000  Uiso   1.00
H394   H     0.57701   0.51593   0.46113   0.00000  Uiso   1.00
H395   H     0.58948   0.38674   0.71098   0.00000  Uiso   1.00
H396   H     0.71777   0.28825   0.40122   0.00000  Uiso   1.00
H397   H     0.55093   0.64240   0.37546   0.00000  Uiso   1.00
H398   H     0.57724   0.36999   0.90231   0.00000  Uiso   1.00
H399   H     0.68801   0.58909   0.66417   0.00000  Uiso   1.00
H400   H     0.73875   0.52479   0.59213   0.00000  Uiso   1.00
H401   H     0.65963   0.69275   0.57989   0.00000  Uiso   1.00
H402   H     0.67210   0.56356   0.82974   0.00000  Uiso   1.00
H403   H     0.78483   0.43177   0.49761   0.00000  Uiso   1.00
H404   H     0.61799   0.78592   0.47185   0.00000  Uiso   1.00
H405   H     0.64430   0.51351   0.99870   0.00000  Uiso   1.00
O406   O     0.78326   0.31470   0.39996   0.00000  Uiso   1.00
O407   O     0.56437   0.77933   0.36618   0.00000  Uiso   1.00
O408   O     0.59889   0.42193   0.05740   0.00000  Uiso   1.00
N409   N     0.72659   0.33084   0.43381   0.00000  Uiso   1.00
N410   N     0.57061   0.66195   0.40971   0.00000  Uiso   1.00
N411   N     0.59520   0.40729   0.90227   0.00000  Uiso   1.00
N412   N     0.76267   0.40807   0.48567   0.00000  Uiso   1.00
N413   N     0.60670   0.73918   0.46158   0.00000  Uiso   1.00
N414   N     0.63128   0.48451   0.95414   0.00000  Uiso   1.00
C415   C     0.62764   0.95987   0.07738   0.00000  Uiso   1.00
C416   C     0.66373   0.94318   0.05050   0.00000  Uiso   1.00
C417   C     0.67397   0.88613   0.99900   0.00000  Uiso   1.00
C418   C     0.70812   0.88015   0.98177   0.00000  Uiso   1.00
C419   C     0.76065   0.84674   0.93495   0.00000  Uiso   1.00
C420   C     0.62074   0.03443   0.04384   0.00000  Uiso   1.00
C421   C     0.59484   0.05411   0.98675   0.00000  Uiso   1.00
C422   C     0.59280   0.12495   0.96394   0.00000  Uiso   1.00
C423   C     0.57858   0.23324   0.90684   0.00000  Uiso   1.00
C424   C     0.62752   0.96424   0.17959   0.00000  Uiso   1.00
C425   C     0.60731   0.92491   0.23664   0.00000  Uiso   1.00
C426   C     0.61098   0.93666   0.32812   0.00000  Uiso   1.00
C427   C     0.60729   0.93596   0.48179   0.00000  Uiso   1.00
C428   C     0.67007   0.05069   0.13838   0.00000  Uiso   1.00
C429   C     0.68677   0.99251   0.08363   0.00000  Uiso   1.00
C430   C     0.72092   0.98661   0.06648   0.00000  Uiso   1.00
C431   C     0.73121   0.92956   0.01496   0.00000  Uiso   1.00
C432   C     0.64379   0.08376   0.07697   0.00000  Uiso   1.00
C433   C     0.64179   0.15459   0.05424   0.00000  Uiso   1.00
C434   C     0.61589   0.17437   0.99712   0.00000  Uiso   1.00
C435   C     0.65057   0.01356   0.21272   0.00000  Uiso   1.00
C436   C     0.65426   0.02539   0.30412   0.00000  Uiso   1.00
C437   C     0.63407   0.98608   0.36130   0.00000  Uiso   1.00
H438   H     0.60969   0.92147   0.05159   0.00000  Uiso   1.00
H439   H     0.65612   0.84797   0.97336   0.00000  Uiso   1.00
H440   H     0.57701   0.01593   0.96113   0.00000  Uiso   1.00
H441   H     0.58948   0.88674   0.21098   0.00000  Uiso   1.00
H442   H     0.71777   0.78825   0.90122   0.00000  Uiso   1.00
H443   H     0.55093   0.14240   0.87546   0.00000  Uiso   1.00
H444   H     0.57724   0.86999   0.40231   0.00000  Uiso   1.00
H445   H     0.68801   0.08909   0.16417   0.00000  Uiso   1.00
H446   H     0.73875   0.02479   0.09213   0.00000  Uiso   1.00
H447   H     0.65963   0.19275   0.07989   0.00000  Uiso   1.00
H448   H     0.67210   0.06356   0.32974   0.00000  Uiso   1.00
H449   H     0.78483   0.93177   0.99761   0.00000  Uiso   1.00
H450   H     0.61799   0.28592   0.97185   0.00000  Uiso   1.00
H451   H     0.64430   0.01351   0.49870   0.00000  Uiso   1.00
O452   O     0.78326   0.81470   0.89996   0.00000  Uiso   1.00
O453   O     0.56437   0.27933   0.86618   0.00000  Uiso   1.00
O454   O     0.59889   0.92193   0.55740   0.00000  Uiso   1.00
N455   N     0.72659   0.83084   0.93381   0.00000  Uiso   1.00
N456   N     0.57061   0.16195   0.90971   0.00000  Uiso   1.00
N457   N     0.59520   0.90729   0.40227   0.00000  Uiso   1.00
N458   N     0.76267   0.90807   0.98567   0.00000  Uiso   1.00
N459   N     0.60670   0.23918   0.96158   0.00000  Uiso   1.00
N460   N     0.63128   0.98451   0.45414   0.00000  Uiso   1.00
C461   C     0.12764   0.45987   0.07738   0.00000  Uiso   1.00
C462   C     0.16373   0.44318   0.05050   0.00000  Uiso   1.00
C463   C     0.17397   0.38613   0.99900   0.00000  Uiso   1.00
C464   C     0.20812   0.38015   0.98177   0.00000  Uiso   1.00
C465   C     0.26065   0.34674   0.93495   0.00000  Uiso   1.00
C466   C     0.12074   0.53443   0.04384   0.00000  Uiso   1.00
C467   C     0.09484   0.55411   0.98675   0.00000  Uiso   1.00
C468   C     0.09280   0.62495   0.96394   0.00000  Uiso   1.00
C469   C     0.07858   0.73324   0.90684   0.00000  Uiso   1.00
C470   C     0.12752   0.46424   0.17959   0.00000  Uiso   1.00
C471   C     0.10731   0.42491   0.23664   0.00000  Uiso   1.00
C472   C     0.11098   0.43666   0.32812   0.00000  Uiso   1.00
C473   C     0.10729   0.43596   0.48179   0.00000  Uiso   1.00
C474   C     0.17007   0.55069   0.13838   0.00000  Uiso   1.00
C475   C     0.18677   0.49251   0.08363   0.00000  Uiso   1.00
C476   C     0.22092   0.48661   0.06648   0.00000  Uiso   1.00
C477   C     0.23121   0.42956   0.01496   0.00000  Uiso   1.00
C478   C     0.14379   0.58376   0.07697   0.00000  Uiso   1.00
C479   C     0.14179   0.65459   0.05424   0.00000  Uiso   1.00
C480   C     0.11589   0.67437   0.99712   0.00000  Uiso   1.00
C481   C     0.15057   0.51356   0.21272   0.00000  Uiso   1.00
C482   C     0.15426   0.52539   0.30412   0.00000  Uiso   1.00
C483   C     0.13407   0.48608   0.36130   0.00000  Uiso   1.00
H484   H     0.10969   0.42147   0.05159   0.00000  Uiso   1.00
H485   H     0.15612   0.34797   0.97336   0.00000  Uiso   1.00
H486   H     0.07701   0.51593   0.96113   0.00000  Uiso   1.00
H487   H     0.08948   0.38674   0.21098   0.00000  Uiso   1.00
H488   H     0.21777   0.28825   0.90122   0.00000  Uiso   1.00
H489   H     0.05093   0.64240   0.87546   0.00000  Uiso   1.00
H490   H     0.07724   0.36999   0.40231   0.00000  Uiso   1.00
H491   H     0.18801   0.58909   0.16417   0.00000  Uiso   1.00
H492   H     0.23875   0.52479   0.09213   0.00000  Uiso   1.00
H493   H     0.15963   0.69275   0.07989   0.00000  Uiso   1.00
H494   H     0.17210   0.56356   0.32974   0.00000  Uiso   1.00
H495   H     0.28483   0.43177   0.99761   0.00000  Uiso   1.00
H496   H     0.11799   0.78592   0.97185   0.00000  Uiso   1.00
H497   H     0.14430   0.51351   0.49870   0.00000  Uiso   1.00
O498   O     0.28326   0.31470   0.89996   0.00000  Uiso   1.00
O499   O     0.06437   0.77933   0.86618   0.00000  Uiso   1.00
O500   O     0.09889   0.42193   0.55740   0.00000  Uiso   1.00
N501   N     0.22659   0.33084   0.93381   0.00000  Uiso   1.00
N502   N     0.07061   0.66195   0.90971   0.00000  Uiso   1.00
N503   N     0.09520   0.40729   0.40227   0.00000  Uiso   1.00
N504   N     0.26267   0.40807   0.98567   0.00000  Uiso   1.00
N505   N     0.10670   0.73918   0.96158   0.00000  Uiso   1.00
N506   N     0.13128   0.48451   0.45414   0.00000  Uiso   1.00
C507   C     0.12764   0.95987   0.57738   0.00000  Uiso   1.00
C508   C     0.16373   0.94318   0.55050   0.00000  Uiso   1.00
C509   C     0.17397   0.88613   0.49900   0.00000  Uiso   1.00
C510   C     0.20812   0.88015   0.48177   0.00000  Uiso   1.00
C511   C     0.26065   0.84674   0.43495   0.00000  Uiso   1.00
C512   C     0.12074   0.03443   0.54384   0.00000  Uiso   1.00
C513   C     0.09484   0.05411   0.48675   0.00000  Uiso   1.00
C514   C     0.09280   0.12495   0.46394   0.00000  Uiso   1.00
C515   C     0.07858   0.23324   0.40684   0.00000  Uiso   1.00
C516   C     0.12752   0.96424   0.67959   0.00000  Uiso   1.00
C517   C     0.10731   0.92491   0.73664   0.00000  Uiso   1.00
C518   C     0.11098   0.93666   0.82812   0.00000  Uiso   1.00
C519   C     0.10729   0.93596   0.98179   0.00000  Uiso   1.00
C520   C     0.17007   0.05069   0.63838   0.00000  Uiso   1.00
C521   C     0.18677   0.99251   0.58363   0.00000  Uiso   1.00
C522   C     0.22092   0.98661   0.56648   0.00000  Uiso   1.00
C523   C     0.23121   0.92956   0.51496   0.00000  Uiso   1.00
C524   C     0.14379   0.08376   0.57697   0.00000  Uiso   1.00
C525   C     0.14179   0.15459   0.55424   0.00000  Uiso   1.00
C526   C     0.11589   0.17437   0.49712   0.00000  Uiso   1.00
C527   C     0.15057   0.01356   0.71272   0.00000  Uiso   1.00
C528   C     0.15426   0.02539   0.80412   0.00000  Uiso   1.00
C529   C     0.13407   0.98608   0.86130   0.00000  Uiso   1.00
H530   H     0.10969   0.92147   0.55159   0.00000  Uiso   1.00
H531   H     0.15612   0.84797   0.47336   0.00000  Uiso   1.00
H532   H     0.07701   0.01593   0.46113   0.00000  Uiso   1.00
H533   H     0.08948   0.88674   0.71098   0.00000  Uiso   1.00
H534   H     0.21777   0.78825   0.40122   0.00000  Uiso   1.00
H535   H     0.05093   0.14240   0.37546   0.00000  Uiso   1.00
H536   H     0.07724   0.86999   0.90231   0.00000  Uiso   1.00
H537   H     0.18801   0.08909   0.66417   0.00000  Uiso   1.00
H538   H     0.23875   0.02479   0.59213   0.00000  Uiso   1.00
H539   H     0.15963   0.19275   0.57989   0.00000  Uiso   1.00
H540   H     0.17210   0.06356   0.82974   0.00000  Uiso   1.00
H541   H     0.28483   0.93177   0.49761   0.00000  Uiso   1.00
H542   H     0.11799   0.28592   0.47185   0.00000  Uiso   1.00
H543   H     0.14430   0.01351   0.99870   0.00000  Uiso   1.00
O544   O     0.28326   0.81470   0.39996   0.00000  Uiso   1.00
O545   O     0.06437   0.27933   0.36618   0.00000  Uiso   1.00
O546   O     0.09889   0.92193   0.05740   0.00000  Uiso   1.00
N547   N     0.22659   0.83084   0.43381   0.00000  Uiso   1.00
N548   N     0.07061   0.16195   0.40971   0.00000  Uiso   1.00
N549   N     0.09520   0.90729   0.90227   0.00000  Uiso   1.00
N550   N     0.26267   0.90807   0.48567   0.00000  Uiso   1.00
N551   N     0.10670   0.23918   0.46158   0.00000  Uiso   1.00
N552   N     0.13128   0.98451   0.95414   0.00000  Uiso   1.00
C553   C     0.87236   0.04013   0.57738   0.00000  Uiso   1.00
C554   C     0.83627   0.05682   0.55050   0.00000  Uiso   1.00
C555   C     0.82603   0.11387   0.49900   0.00000  Uiso   1.00
C556   C     0.79188   0.11985   0.48177   0.00000  Uiso   1.00
C557   C     0.73935   0.15326   0.43495   0.00000  Uiso   1.00
C558   C     0.87926   0.96557   0.54384   0.00000  Uiso   1.00
C559   C     0.90516   0.94589   0.48675   0.00000  Uiso   1.00
C560   C     0.90720   0.87505   0.46394   0.00000  Uiso   1.00
C561   C     0.92142   0.76676   0.40684   0.00000  Uiso   1.00
C562   C     0.87248   0.03576   0.67959   0.00000  Uiso   1.00
C563   C     0.89269   0.07509   0.73664   0.00000  Uiso   1.00
C564   C     0.88902   0.06334   0.82812   0.00000  Uiso   1.00
C565   C     0.89271   0.06404   0.98179   0.00000  Uiso   1.00
C566   C     0.82993   0.94931   0.63838   0.00000  Uiso   1.00
C567   C     0.81323   0.00749   0.58363   0.00000  Uiso   1.00
C568   C     0.77908   0.01339   0.56648   0.00000  Uiso   1.00
C569   C     0.76879   0.07044   0.51496   0.00000  Uiso   1.00
C570   C     0.85621   0.91624   0.57697   0.00000  Uiso   1.00
C571   C     0.85821   0.84541   0.55424   0.00000  Uiso   1.00
C572   C     0.88411   0.82563   0.49712   0.00000  Uiso   1.00
C573   C     0.84943   0.98644   0.71272   0.00000  Uiso   1.00
C574   C     0.84574   0.97461   0.80412   0.00000  Uiso   1.00
C575   C     0.86593   0.01392   0.86130   0.00000  Uiso   1.00
H576   H     0.89031   0.07853   0.55159   0.00000  Uiso   1.00
H577   H     0.84388   0.15203   0.47336   0.00000  Uiso   1.00
H578   H     0.92299   0.98407   0.46113   0.00000  Uiso   1.00
H579   H     0.91052   0.11326   0.71098   0.00000  Uiso   1.00
H580   H     0.78223   0.21175   0.40122   0.00000  Uiso   1.00
H581   H     0.94907   0.85760   0.37546   0.00000  Uiso   1.00
H582   H     0.92276   0.13001   0.90231   0.00000  Uiso   1.00
H583   H     0.81199   0.91091   0.66417   0.00000  Uiso   1.00
H584   H     0.76125   0.97521   0.59213   0.00000  Uiso   1.00
H585   H     0.84037   0.80725   0.57989   0.00000  Uiso   1.00
H586   H     0.82790   0.93644   0.82974   0.00000  Uiso   1.00
H587   H     0.71517   0.06823   0.49761   0.00000  Uiso   1.00
H588   H     0.88201   0.71408   0.47185   0.00000  Uiso   1.00
H589   H     0.85570   0.98649   0.99870   0.00000  Uiso   1.00
O590   O     0.71674   0.18530   0.39996   0.00000  Uiso   1.00
O591   O     0.93563   0.72067   0.36618   0.00000  Uiso   1.00
O592   O     0.90111   0.07807   0.05740   0.00000  Uiso   1.00
N593   N     0.77341   0.16916   0.43381   0.00000  Uiso   1.00
N594   N     0.92939   0.83805   0.40971   0.00000  Uiso   1.00
N595   N     0.90480   0.09271   0.90227   0.00000  Uiso   1.00
N596   N     0.73733   0.09193   0.48567   0.00000  Uiso   1.00
N597   N     0.89330   0.76082   0.46158   0.00000  Uiso   1.00
N598   N     0.86872   0.01549   0.95414   0.00000  Uiso   1.00
C599   C     0.87236   0.54013   0.07738   0.00000  Uiso   1.00
C600   C     0.83627   0.55682   0.05050   0.00000  Uiso   1.00
C601   C     0.82603   0.61387   0.99900   0.00000  Uiso   1.00
C602   C     0.79188   0.61985   0.98177   0.00000  Uiso   1.00
C603   C     0.73935   0.65326   0.93495   0.00000  Uiso   1.00
C604   C     0.87926   0.46557   0.04384   0.00000  Uiso   1.00
C605   C     0.90516   0.44589   0.98675   0.00000  Uiso   1.00
C606   C     0.90720   0.37505   0.96394   0.00000  Uiso   1.00
C607   C     0.92142   0.26676   0.90684   0.00000  Uiso   1.00
C608   C     0.87248   0.53576   0.17959   0.00000  Uiso   1.00
C609   C     0.89269   0.57509   0.23664   0.00000  Uiso   1.00
C610   C     0.88902   0.56334   0.32812   0.00000  Uiso   1.00
C611   C     0.89271   0.56404   0.48179   0.00000  Uiso   1.00
C612   C     0.82993   0.44931   0.13838   0.00000  Uiso   1.00
C613   C     0.81323   0.50749   0.08363   0.00000  Uiso   1.00
C614   C     0.77908   0.51339   0.06648   0.00000  Uiso   1.00
C615   C     0.76879   0.57044   0.01496   0.00000  Uiso   1.00
C616   C     0.85621   0.41624   0.07697   0.00000  Uiso   1.00
C617   C     0.85821   0.34541   0.05424   0.00000  Uiso   1.00
C618   C     0.88411   0.32563   0.99712   0.00000  Uiso   1.00
C619   C     0.84943   0.48644   0.21272   0.00000  Uiso   1.00
C620   C     0.84574   0.47461   0.30412   0.00000  Uiso   1.00
C621   C     0.86593   0.51392   0.36130   0.00000  Uiso   1.00
H622   H     0.89031   0.57853   0.05159   0.00000  Uiso   1.00
H623   H     0.84388   0.65203   0.97336   0.00000  Uiso   1.00
H624   H     0.92299   0.48407   0.96113   0.00000  Uiso   1.00
H625   H     0.91052   0.61326   0.21098   0.00000  Uiso   1.00
H626   H     0.78223   0.71175   0.90122   0.00000  Uiso   1.00
H627   H     0.94907   0.35760   0.87546   0.00000  Uiso   1.00
H628   H     0.92276   0.63001   0.40231   0.00000  Uiso   1.00
H629   H     0.81199   0.41091   0.16417   0.00000  Uiso   1.00
H630   H     0.76125   0.47521   0.09213   0.00000  Uiso   1.00
H631   H     0.84037   0.30725   0.07989   0.00000  Uiso   1.00
H632   H     0.82790   0.43644   0.32974   0.00000  Uiso   1.00
H633   H     0.71517   0.56823   0.99761   0.00000  Uiso   1.00
H634   H     0.88201   0.21408   0.97185   0.00000  Uiso   1.00
H635   H     0.85570   0.48649   0.49870   0.00000  Uiso   1.00
O636   O     0.71674   0.68530   0.89996   0.00000  Uiso   1.00
O637   O     0.93563   0.22067   0.86618   0.00000  Uiso   1.00
O638   O     0.90111   0.57807   0.55740   0.00000  Uiso   1.00
N639   N     0.77341   0.66916   0.93381   0.00000  Uiso   1.00
N640   N     0.92939   0.33805   0.90971   0.00000  Uiso   1.00
N641   N     0.90480   0.59271   0.40227   0.00000  Uiso   1.00
N642   N     0.73733   0.59193   0.98567   0.00000  Uiso   1.00
N643   N     0.89330   0.26082   0.96158   0.00000  Uiso   1.00
N644   N     0.86872   0.51549   0.45414   0.00000  Uiso   1.00
C645   C     0.37236   0.04013   0.07738   0.00000  Uiso   1.00
C646   C     0.33627   0.05682   0.05050   0.00000  Uiso   1.00
C647   C     0.32603   0.11387   0.99900   0.00000  Uiso   1.00
C648   C     0.29188   0.11985   0.98177   0.00000  Uiso   1.00
C649   C     0.23935   0.15326   0.93495   0.00000  Uiso   1.00
C650   C     0.37926   0.96557   0.04384   0.00000  Uiso   1.00
C651   C     0.40516   0.94589   0.98675   0.00000  Uiso   1.00
C652   C     0.40720   0.87505   0.96394   0.00000  Uiso   1.00
C653   C     0.42142   0.76676   0.90684   0.00000  Uiso   1.00
C654   C     0.37248   0.03576   0.17959   0.00000  Uiso   1.00
C655   C     0.39269   0.07509   0.23664   0.00000  Uiso   1.00
C656   C     0.38902   0.06334   0.32812   0.00000  Uiso   1.00
C657   C     0.39271   0.06404   0.48179   0.00000  Uiso   1.00
C658   C     0.32993   0.94931   0.13838   0.00000  Uiso   1.00
C659   C     0.31323   0.00749   0.08363   0.00000  Uiso   1.00
C660   C     0.27908   0.01339   0.06648   0.00000  Uiso   1.00
C661   C     0.26879   0.07044   0.01496   0.00000  Uiso   1.00
C662   C     0.35621   0.91624   0.07697   0.00000  Uiso   1.00
C663   C     0.35821   0.84541   0.05424   0.00000  Uiso   1.00
C664   C     0.38411   0.82563   0.99712   0.00000  Uiso   1.00
C665   C     0.34943   0.98644   0.21272   0.00000  Uiso   1.00
C666   C     0.34574   0.97461   0.30412   0.00000  Uiso   1.00
C667   C     0.36593   0.01392   0.36130   0.00000  Uiso   1.00
H668   H     0.39031   0.07853   0.05159   0.00000  Uiso   1.00
H669   H     0.34388   0.15203   0.97336   0.00000  Uiso   1.00
H670   H     0.42299   0.98407   0.96113   0.00000  Uiso   1.00
H671   H     0.41052   0.11326   0.21098   0.00000  Uiso   1.00
H672   H     0.28223   0.21175   0.90122   0.00000  Uiso   1.00
H673   H     0.44907   0.85760   0.87546   0.00000  Uiso   1.00
H674   H     0.42276   0.13001   0.40231   0.00000  Uiso   1.00
H675   H     0.31199   0.91091   0.16417   0.00000  Uiso   1.00
H676   H     0.26125   0.97521   0.09213   0.00000  Uiso   1.00
H677   H     0.34037   0.80725   0.07989   0.00000  Uiso   1.00
H678   H     0.32790   0.93644   0.32974   0.00000  Uiso   1.00
H679   H     0.21517   0.06823   0.99761   0.00000  Uiso   1.00
H680   H     0.38201   0.71408   0.97185   0.00000  Uiso   1.00
H681   H     0.35570   0.98649   0.49870   0.00000  Uiso   1.00
O682   O     0.21674   0.18530   0.89996   0.00000  Uiso   1.00
O683   O     0.43563   0.72067   0.86618   0.00000  Uiso   1.00
O684   O     0.40111   0.07807   0.55740   0.00000  Uiso   1.00
N685   N     0.27341   0.16916   0.93381   0.00000  Uiso   1.00
N686   N     0.42939   0.83805   0.90971   0.00000  Uiso   1.00
N687   N     0.40480   0.09271   0.40227   0.00000  Uiso   1.00
N688   N     0.23733   0.09193   0.98567   0.00000  Uiso   1.00
N689   N     0.39330   0.76082   0.96158   0.00000  Uiso   1.00
N690   N     0.36872   0.01549   0.45414   0.00000  Uiso   1.00
C691   C     0.37236   0.54013   0.57738   0.00000  Uiso   1.00
C692   C     0.33627   0.55682   0.55050   0.00000  Uiso   1.00
C693   C     0.32603   0.61387   0.49900   0.00000  Uiso   1.00
C694   C     0.29188   0.61985   0.48177   0.00000  Uiso   1.00
C695   C     0.23935   0.65326   0.43495   0.00000  Uiso   1.00
C696   C     0.37926   0.46557   0.54384   0.00000  Uiso   1.00
C697   C     0.40516   0.44589   0.48675   0.00000  Uiso   1.00
C698   C     0.40720   0.37505   0.46394   0.00000  Uiso   1.00
C699   C     0.42142   0.26676   0.40684   0.00000  Uiso   1.00
C700   C     0.37248   0.53576   0.67959   0.00000  Uiso   1.00
C701   C     0.39269   0.57509   0.73664   0.00000  Uiso   1.00
C702   C     0.38902   0.56334   0.82812   0.00000  Uiso   1.00
C703   C     0.39271   0.56404   0.98179   0.00000  Uiso   1.00
C704   C     0.32993   0.44931   0.63838   0.00000  Uiso   1.00
C705   C     0.31323   0.50749   0.58363   0.00000  Uiso   1.00
C706   C     0.27908   0.51339   0.56648   0.00000  Uiso   1.00
C707   C     0.26879   0.57044   0.51496   0.00000  Uiso   1.00
C708   C     0.35621   0.41624   0.57697   0.00000  Uiso   1.00
C709   C     0.35821   0.34541   0.55424   0.00000  Uiso   1.00
C710   C     0.38411   0.32563   0.49712   0.00000  Uiso   1.00
C711   C     0.34943   0.48644   0.71272   0.00000  Uiso   1.00
C712   C     0.34574   0.47461   0.80412   0.00000  Uiso   1.00
C713   C     0.36593   0.51392   0.86130   0.00000  Uiso   1.00
H714   H     0.39031   0.57853   0.55159   0.00000  Uiso   1.00
H715   H     0.34388   0.65203   0.47336   0.00000  Uiso   1.00
H716   H     0.42299   0.48407   0.46113   0.00000  Uiso   1.00
H717   H     0.41052   0.61326   0.71098   0.00000  Uiso   1.00
H718   H     0.28223   0.71175   0.40122   0.00000  Uiso   1.00
H719   H     0.44907   0.35760   0.37546   0.00000  Uiso   1.00
H720   H     0.42276   0.63001   0.90231   0.00000  Uiso   1.00
H721   H     0.31199   0.41091   0.66417   0.00000  Uiso   1.00
H722   H     0.26125   0.47521   0.59213   0.00000  Uiso   1.00
H723   H     0.34037   0.30725   0.57989   0.00000  Uiso   1.00
H724   H     0.32790   0.43644   0.82974   0.00000  Uiso   1.00
H725   H     0.21517   0.56823   0.49761   0.00000  Uiso   1.00
H726   H     0.38201   0.21408   0.47185   0.00000  Uiso   1.00
H727   H     0.35570   0.48649   0.99870   0.00000  Uiso   1.00
O728   O     0.21674   0.68530   0.39996   0.00000  Uiso   1.00
O729   O     0.43563   0.22067   0.36618   0.00000  Uiso   1.00
O730   O     0.40111   0.57807   0.05740   0.00000  Uiso   1.00
N731   N     0.27341   0.66916   0.43381   0.00000  Uiso   1.00
N732   N     0.42939   0.33805   0.40971   0.00000  Uiso   1.00
N733   N     0.40480   0.59271   0.90227   0.00000  Uiso   1.00
N734   N     0.23733   0.59193   0.48567   0.00000  Uiso   1.00
N735   N     0.39330   0.26082   0.46158   0.00000  Uiso   1.00
N736   N     0.36872   0.51549   0.95414   0.00000  Uiso   1.00
