data_job_06474
_audit_creation_date              2018-12-19
_audit_creation_method            'Materials Studio'
_symmetry_space_group_name_H-M    'P1'
_symmetry_Int_Tables_number       1
_symmetry_cell_setting            triclinic
loop_
_symmetry_equiv_pos_as_xyz
  x,y,z
_cell_length_a                    35.1572
_cell_length_b                    23.3553
_cell_length_c                    19.9105
_cell_angle_alpha                 90.0000
_cell_angle_beta                  56.6284
_cell_angle_gamma                 90.0000
loop_
_atom_site_label
_atom_site_type_symbol
_atom_site_fract_x
_atom_site_fract_y
_atom_site_fract_z
_atom_site_U_iso_or_equiv
_atom_site_adp_type
_atom_site_occupancy
C1     C     0.70760   0.35357   0.17416   0.00000  Uiso   1.00
C2     C     0.66279   0.33735   0.18395   0.00000  Uiso   1.00
C3     C     0.63960   0.28608   0.21496   0.00000  Uiso   1.00
C4     C     0.59916   0.27947   0.21893   0.00000  Uiso   1.00
C5     C     0.53212   0.24771   0.23808   0.00000  Uiso   1.00
C6     C     0.74049   0.36826   0.08550   0.00000  Uiso   1.00
C7     C     0.78263   0.34299   0.03372   0.00000  Uiso   1.00
C8     C     0.80761   0.36241   0.95481   0.00000  Uiso   1.00
C9     C     0.36121   0.87867   0.82112   0.00000  Uiso   1.00
C10    C     0.69856   0.40953   0.22005   0.00000  Uiso   1.00
C11    C     0.70547   0.41897   0.28141   0.00000  Uiso   1.00
C12    C     0.69516   0.47315   0.31577   0.00000  Uiso   1.00
C13    C     0.18367   0.05349   0.39100   0.00000  Uiso   1.00
C14    C     0.67702   0.43301   0.12607   0.00000  Uiso   1.00
C15    C     0.64618   0.38050   0.15783   0.00000  Uiso   1.00
C16    C     0.60576   0.37397   0.16176   0.00000  Uiso   1.00
C17    C     0.58252   0.32270   0.19276   0.00000  Uiso   1.00
C18    C     0.72388   0.41141   0.05938   0.00000  Uiso   1.00
C19    C     0.74880   0.43088   0.98052   0.00000  Uiso   1.00
C20    C     0.79097   0.40564   0.92864   0.00000  Uiso   1.00
C21    C     0.68195   0.45268   0.19394   0.00000  Uiso   1.00
C22    C     0.67163   0.50686   0.22821   0.00000  Uiso   1.00
C23    C     0.67852   0.51638   0.28960   0.00000  Uiso   1.00
H24    H     0.72053   0.31997   0.19448   0.00000  Uiso   1.00
H25    H     0.65247   0.25269   0.23516   0.00000  Uiso   1.00
H26    H     0.79548   0.30960   0.05396   0.00000  Uiso   1.00
H27    H     0.71832   0.38557   0.30160   0.00000  Uiso   1.00
H28    H     0.56969   0.19712   0.26871   0.00000  Uiso   1.00
H29    H     0.87124   0.31712   0.88664   0.00000  Uiso   1.00
H30    H     0.70855   0.47732   0.40885   0.00000  Uiso   1.00
H31    H     0.66409   0.46661   0.10573   0.00000  Uiso   1.00
H32    H     0.59292   0.40737   0.14154   0.00000  Uiso   1.00
H33    H     0.73593   0.46428   0.96033   0.00000  Uiso   1.00
H34    H     0.65878   0.54024   0.20798   0.00000  Uiso   1.00
H35    H     0.52136   0.32266   0.19272   0.00000  Uiso   1.00
H36    H     0.32292   0.94267   0.81065   0.00000  Uiso   1.00
H37    H     0.16022   0.10286   0.33286   0.00000  Uiso   1.00
O38    O     0.49973   0.21827   0.25584   0.00000  Uiso   1.00
O39    O     0.39537   0.87572   0.75459   0.00000  Uiso   1.00
O40    O     0.18192   0.08588   0.43972   0.00000  Uiso   1.00
N41    N     0.56807   0.23480   0.24593   0.00000  Uiso   1.00
N42    N     0.85001   0.34699   0.88871   0.00000  Uiso   1.00
N43    N     0.69792   0.49676   0.37692   0.00000  Uiso   1.00
N44    N     0.54207   0.30235   0.20504   0.00000  Uiso   1.00
N45    N     0.32400   0.91454   0.84782   0.00000  Uiso   1.00
N46    N     0.17191   0.06431   0.33603   0.00000  Uiso   1.00
C47    C     0.44272   0.45070   0.64776   0.00000  Uiso   1.00
C48    C     0.43153   0.42355   0.59095   0.00000  Uiso   1.00
C49    C     0.46092   0.41945   0.50803   0.00000  Uiso   1.00
C50    C     0.44422   0.39310   0.46680   0.00000  Uiso   1.00
C51    C     0.43361   0.35424   0.37246   0.00000  Uiso   1.00
C52    C     0.40679   0.49684   0.69405   0.00000  Uiso   1.00
C53    C     0.41538   0.55435   0.69782   0.00000  Uiso   1.00
C54    C     0.87786   0.08969   0.74338   0.00000  Uiso   1.00
C55    C     0.82884   0.16460   0.80914   0.00000  Uiso   1.00
C56    C     0.43369   0.40464   0.70914   0.00000  Uiso   1.00
C57    C     0.46490   0.38463   0.72562   0.00000  Uiso   1.00
C58    C     0.45003   0.34235   0.78391   0.00000  Uiso   1.00
C59    C     0.44279   0.27410   0.87310   0.00000  Uiso   1.00
C60    C     0.36080   0.41119   0.72199   0.00000  Uiso   1.00
C61    C     0.38703   0.40210   0.63127   0.00000  Uiso   1.00
C62    C     0.37028   0.37574   0.59016   0.00000  Uiso   1.00
C63    C     0.39965   0.37160   0.50719   0.00000  Uiso   1.00
C64    C     0.36229   0.47538   0.73437   0.00000  Uiso   1.00
C65    C     0.32475   0.51064   0.77994   0.00000  Uiso   1.00
C66    C     0.83328   0.06819   0.78377   0.00000  Uiso   1.00
C67    C     0.38920   0.38317   0.74946   0.00000  Uiso   1.00
C68    C     0.37427   0.34092   0.80774   0.00000  Uiso   1.00
C69    C     0.40545   0.32085   0.82430   0.00000  Uiso   1.00
H70    H     0.47736   0.46741   0.61638   0.00000  Uiso   1.00
H71    H     0.49535   0.43607   0.47685   0.00000  Uiso   1.00
H72    H     0.44982   0.57095   0.66661   0.00000  Uiso   1.00
H73    H     0.49933   0.40125   0.69441   0.00000  Uiso   1.00
H74    H     0.49567   0.39188   0.33995   0.00000  Uiso   1.00
H75    H     0.89967   0.17627   0.74009   0.00000  Uiso   1.00
H76    H     0.50408   0.31843   0.79870   0.00000  Uiso   1.00
H77    H     0.32615   0.39448   0.75338   0.00000  Uiso   1.00
H78    H     0.33585   0.35914   0.62137   0.00000  Uiso   1.00
H79    H     0.79032   0.99402   0.81113   0.00000  Uiso   1.00
H80    H     0.33984   0.32432   0.83893   0.00000  Uiso   1.00
H81    H     0.36621   0.32944   0.45724   0.00000  Uiso   1.00
H82    H     0.77022   0.11383   0.85739   0.00000  Uiso   1.00
H83    H     0.37463   0.25599   0.91600   0.00000  Uiso   1.00
O84    O     0.44004   0.33874   0.30928   0.00000  Uiso   1.00
O85    O     0.81410   0.21185   0.83426   0.00000  Uiso   1.00
O86    O     0.45108   0.24237   0.91116   0.00000  Uiso   1.00
N87    N     0.46387   0.38202   0.38567   0.00000  Uiso   1.00
N88    N     0.87412   0.14791   0.75977   0.00000  Uiso   1.00
N89    N     0.47173   0.31338   0.81458   0.00000  Uiso   1.00
N90    N     0.39421   0.34842   0.44879   0.00000  Uiso   1.00
N91    N     0.80446   0.11432   0.82288   0.00000  Uiso   1.00
N92    N     0.40207   0.27978   0.87770   0.00000  Uiso   1.00
C93    C     0.54035   0.99071   0.48871   0.00000  Uiso   1.00
C94    C     0.51177   0.02501   0.46674   0.00000  Uiso   1.00
C95    C     0.48655   0.07362   0.50620   0.00000  Uiso   1.00
C96    C     0.46271   0.09878   0.47686   0.00000  Uiso   1.00
C97    C     0.41812   0.15547   0.45289   0.00000  Uiso   1.00
C98    C     0.52260   0.92942   0.50254   0.00000  Uiso   1.00
C99    C     0.50647   0.89765   0.57209   0.00000  Uiso   1.00
C100   C     0.49175   0.84234   0.57287   0.00000  Uiso   1.00
C101   C     0.46399   0.75061   0.60445   0.00000  Uiso   1.00
C102   C     0.58840   0.98910   0.41305   0.00000  Uiso   1.00
C103   C     0.62762   0.00749   0.40736   0.00000  Uiso   1.00
C104   C     0.66830   0.00242   0.33280   0.00000  Uiso   1.00
C105   C     0.74272   0.00335   0.22542   0.00000  Uiso   1.00
C106   C     0.54288   0.94898   0.36642   0.00000  Uiso   1.00
C107   C     0.51315   0.00234   0.40032   0.00000  Uiso   1.00
C108   C     0.48935   0.02744   0.37091   0.00000  Uiso   1.00
C109   C     0.46409   0.07607   0.41032   0.00000  Uiso   1.00
C110   C     0.52397   0.90675   0.43612   0.00000  Uiso   1.00
C111   C     0.50927   0.85148   0.43680   0.00000  Uiso   1.00
C112   C     0.49313   0.81963   0.50634   0.00000  Uiso   1.00
C113   C     0.58978   0.96643   0.34662   0.00000  Uiso   1.00
C114   C     0.63041   0.96132   0.27206   0.00000  Uiso   1.00
C115   C     0.66968   0.97971   0.26626   0.00000  Uiso   1.00
H116   H     0.53928   0.00836   0.54042   0.00000  Uiso   1.00
H117   H     0.48549   0.09114   0.55761   0.00000  Uiso   1.00
H118   H     0.50542   0.91520   0.62348   0.00000  Uiso   1.00
H119   H     0.62654   0.02503   0.45877   0.00000  Uiso   1.00
H120   H     0.42645   0.17292   0.54739   0.00000  Uiso   1.00
H121   H     0.46848   0.80193   0.68628   0.00000  Uiso   1.00
H122   H     0.72389   0.03353   0.33895   0.00000  Uiso   1.00
H123   H     0.54395   0.93133   0.31471   0.00000  Uiso   1.00
H124   H     0.49042   0.00989   0.31951   0.00000  Uiso   1.00
H125   H     0.51035   0.83395   0.38539   0.00000  Uiso   1.00
H126   H     0.63147   0.94378   0.22067   0.00000  Uiso   1.00
H127   H     0.43045   0.10697   0.35415   0.00000  Uiso   1.00
H128   H     0.47248   0.73598   0.49303   0.00000  Uiso   1.00
H129   H     0.72789   0.96758   0.14571   0.00000  Uiso   1.00
O130   O     0.39313   0.19300   0.45802   0.00000  Uiso   1.00
O131   O     0.94829   0.20628   0.64022   0.00000  Uiso   1.00
O132   O     0.78338   0.01013   0.18454   0.00000  Uiso   1.00
N133   N     0.43474   0.14662   0.50124   0.00000  Uiso   1.00
N134   N     0.47404   0.79977   0.63110   0.00000  Uiso   1.00
N135   N     0.71282   0.01628   0.30638   0.00000  Uiso   1.00
N136   N     0.43689   0.11113   0.39726   0.00000  Uiso   1.00
N137   N     0.47619   0.76429   0.52711   0.00000  Uiso   1.00
N138   N     0.71498   0.98079   0.20240   0.00000  Uiso   1.00
C139   C     0.35552   0.17757   0.72412   0.00000  Uiso   1.00
C140   C     0.40527   0.19596   0.68000   0.00000  Uiso   1.00
C141   C     0.42522   0.23995   0.62416   0.00000  Uiso   1.00
C142   C     0.47120   0.25010   0.59053   0.00000  Uiso   1.00
C143   C     0.54464   0.28365   0.51877   0.00000  Uiso   1.00
C144   C     0.33687   0.18144   0.81357   0.00000  Uiso   1.00
C145   C     0.29930   0.21322   0.87004   0.00000  Uiso   1.00
C146   C     0.28770   0.21113   0.94886   0.00000  Uiso   1.00
C147   C     0.25491   0.22211   0.08450   0.00000  Uiso   1.00
C148   C     0.35608   0.11404   0.70593   0.00000  Uiso   1.00
C149   C     0.33465   0.08915   0.67191   0.00000  Uiso   1.00
C150   C     0.33922   0.03031   0.66012   0.00000  Uiso   1.00
C151   C     0.33626   0.93663   0.62862   0.00000  Uiso   1.00
C152   C     0.40173   0.11734   0.76370   0.00000  Uiso   1.00
C153   C     0.43037   0.16325   0.70150   0.00000  Uiso   1.00
C154   C     0.47634   0.17332   0.66795   0.00000  Uiso   1.00
C155   C     0.49635   0.21732   0.61206   0.00000  Uiso   1.00
C156   C     0.36197   0.14873   0.83507   0.00000  Uiso   1.00
C157   C     0.35042   0.14659   0.91383   0.00000  Uiso   1.00
C158   C     0.31284   0.17836   0.97040   0.00000  Uiso   1.00
C159   C     0.38118   0.08133   0.72743   0.00000  Uiso   1.00
C160   C     0.38578   0.02251   0.71570   0.00000  Uiso   1.00
C161   C     0.36436   0.99753   0.68166   0.00000  Uiso   1.00
H162   H     0.33598   0.20304   0.70739   0.00000  Uiso   1.00
H163   H     0.40578   0.26526   0.60754   0.00000  Uiso   1.00
H164   H     0.27988   0.23853   0.85339   0.00000  Uiso   1.00
H165   H     0.31523   0.11447   0.65528   0.00000  Uiso   1.00
H166   H     0.49423   0.31984   0.50634   0.00000  Uiso   1.00
H167   H     0.22875   0.26345   0.02473   0.00000  Uiso   1.00
H168   H     0.30330   0.00186   0.60698   0.00000  Uiso   1.00
H169   H     0.42127   0.09187   0.78044   0.00000  Uiso   1.00
H170   H     0.49576   0.14800   0.68460   0.00000  Uiso   1.00
H171   H     0.36985   0.12127   0.93045   0.00000  Uiso   1.00
H172   H     0.40521   0.99721   0.73234   0.00000  Uiso   1.00
H173   H     0.56726   0.22467   0.56889   0.00000  Uiso   1.00
H174   H     0.30178   0.16828   0.08728   0.00000  Uiso   1.00
H175   H     0.37633   0.90668   0.66953   0.00000  Uiso   1.00
O176   O     0.57820   0.31119   0.47326   0.00000  Uiso   1.00
O177   O     0.22990   0.23720   0.15337   0.00000  Uiso   1.00
O178   O     0.32770   0.89400   0.60530   0.00000  Uiso   1.00
N179   N     0.50120   0.28973   0.53420   0.00000  Uiso   1.00
N180   N     0.25300   0.23702   0.01886   0.00000  Uiso   1.00
N181   N     0.32268   0.99245   0.62832   0.00000  Uiso   1.00
N182   N     0.54050   0.23852   0.56786   0.00000  Uiso   1.00
N183   N     0.29229   0.18581   0.05252   0.00000  Uiso   1.00
N184   N     0.36198   0.94124   0.66198   0.00000  Uiso   1.00
C185   C     0.62145   0.09370   0.13689   0.00000  Uiso   1.00
C186   C     0.63129   0.11141   0.19960   0.00000  Uiso   1.00
C187   C     0.60027   0.11066   0.28231   0.00000  Uiso   1.00
C188   C     0.61593   0.12848   0.32948   0.00000  Uiso   1.00
C189   C     0.62438   0.15322   0.43209   0.00000  Uiso   1.00
C190   C     0.65601   0.04716   0.08634   0.00000  Uiso   1.00
C191   C     0.64576   0.99240   0.07383   0.00000  Uiso   1.00
C192   C     0.68223   0.95615   0.02565   0.00000  Uiso   1.00
C193   C     0.22904   0.38117   0.95238   0.00000  Uiso   1.00
C194   C     0.63390   0.14514   0.08134   0.00000  Uiso   1.00
C195   C     0.60507   0.17275   0.06459   0.00000  Uiso   1.00
C196   C     0.62293   0.21898   0.01219   0.00000  Uiso   1.00
C197   C     0.63542   0.29611   0.93115   0.00000  Uiso   1.00
C198   C     0.70442   0.12669   0.07358   0.00000  Uiso   1.00
C199   C     0.67637   0.12932   0.16521   0.00000  Uiso   1.00
C200   C     0.69208   0.14715   0.21227   0.00000  Uiso   1.00
C201   C     0.66108   0.14643   0.29504   0.00000  Uiso   1.00
C202   C     0.70108   0.06508   0.05196   0.00000  Uiso   1.00
C203   C     0.73757   0.02890   0.00379   0.00000  Uiso   1.00
C204   C     0.72738   0.97410   0.99120   0.00000  Uiso   1.00
C205   C     0.67897   0.16305   0.04695   0.00000  Uiso   1.00
C206   C     0.69688   0.20924   0.99456   0.00000  Uiso   1.00
C207   C     0.66808   0.23692   0.97774   0.00000  Uiso   1.00
H208   H     0.58636   0.07975   0.16365   0.00000  Uiso   1.00
H209   H     0.56540   0.09678   0.30890   0.00000  Uiso   1.00
H210   H     0.61088   0.97855   0.10044   0.00000  Uiso   1.00
H211   H     0.57020   0.15887   0.09121   0.00000  Uiso   1.00
H212   H     0.56204   0.12355   0.45476   0.00000  Uiso   1.00
H213   H     0.65795   0.87426   0.01519   0.00000  Uiso   1.00
H214   H     0.57215   0.25450   0.99573   0.00000  Uiso   1.00
H215   H     0.73952   0.14063   0.04681   0.00000  Uiso   1.00
H216   H     0.72696   0.16101   0.18564   0.00000  Uiso   1.00
H217   H     0.77244   0.04278   0.97719   0.00000  Uiso   1.00
H218   H     0.73176   0.22310   0.96796   0.00000  Uiso   1.00
H219   H     0.69317   0.17568   0.35472   0.00000  Uiso   1.00
H220   H     0.28908   0.42639   0.91515   0.00000  Uiso   1.00
H221   H     0.70328   0.30662   0.89570   0.00000  Uiso   1.00
O222   O     0.61658   0.16190   0.49818   0.00000  Uiso   1.00
O223   O     0.24241   0.33485   0.92147   0.00000  Uiso   1.00
O224   O     0.62985   0.33371   0.89595   0.00000  Uiso   1.00
N225   N     0.59462   0.13303   0.41216   0.00000  Uiso   1.00
N226   N     0.68429   0.89996   0.00120   0.00000  Uiso   1.00
N227   N     0.60408   0.25544   0.98300   0.00000  Uiso   1.00
N228   N     0.66518   0.16108   0.35833   0.00000  Uiso   1.00
N229   N     0.25485   0.42801   0.94738   0.00000  Uiso   1.00
N230   N     0.67464   0.28349   0.92917   0.00000  Uiso   1.00
C231   C     0.53307   0.54473   0.34153   0.00000  Uiso   1.00
C232   C     0.54909   0.52559   0.39527   0.00000  Uiso   1.00
C233   C     0.57053   0.47413   0.38909   0.00000  Uiso   1.00
C234   C     0.58254   0.46465   0.44396   0.00000  Uiso   1.00
C235   C     0.60883   0.42877   0.51842   0.00000  Uiso   1.00
C236   C     0.55621   0.60209   0.30584   0.00000  Uiso   1.00
C237   C     0.58363   0.61496   0.22447   0.00000  Uiso   1.00
C238   C     0.10162   0.16988   0.20406   0.00000  Uiso   1.00
C239   C     0.13893   0.25278   0.13969   0.00000  Uiso   1.00
C240   C     0.48239   0.55769   0.39777   0.00000  Uiso   1.00
C241   C     0.44774   0.53323   0.39368   0.00000  Uiso   1.00
C242   C     0.40358   0.55079   0.45065   0.00000  Uiso   1.00
C243   C     0.82627   0.06475   0.52901   0.00000  Uiso   1.00
C244   C     0.51626   0.61941   0.44996   0.00000  Uiso   1.00
C245   C     0.53996   0.56615   0.45416   0.00000  Uiso   1.00
C246   C     0.55193   0.55674   0.50906   0.00000  Uiso   1.00
C247   C     0.57339   0.50528   0.50296   0.00000  Uiso   1.00
C248   C     0.54708   0.64265   0.36473   0.00000  Uiso   1.00
C249   C     0.06503   0.19757   0.34444   0.00000  Uiso   1.00
C250   C     0.09247   0.21051   0.26306   0.00000  Uiso   1.00
C251   C     0.47326   0.59825   0.45667   0.00000  Uiso   1.00
C252   C     0.42914   0.61585   0.51365   0.00000  Uiso   1.00
C253   C     0.39443   0.59142   0.50965   0.00000  Uiso   1.00
H254   H     0.54018   0.51316   0.29567   0.00000  Uiso   1.00
H255   H     0.57760   0.44276   0.34350   0.00000  Uiso   1.00
H256   H     0.59069   0.58356   0.17891   0.00000  Uiso   1.00
H257   H     0.45482   0.50185   0.34810   0.00000  Uiso   1.00
H258   H     0.61507   0.38259   0.42248   0.00000  Uiso   1.00
H259   H     0.14266   0.17950   0.07543   0.00000  Uiso   1.00
H260   H     0.35615   0.50719   0.43219   0.00000  Uiso   1.00
H261   H     0.50915   0.65098   0.49581   0.00000  Uiso   1.00
H262   H     0.54486   0.58814   0.55463   0.00000  Uiso   1.00
H263   H     0.05795   0.22895   0.39003   0.00000  Uiso   1.00
H264   H     0.92209   0.14723   0.55921   0.00000  Uiso   1.00
H265   H     0.58850   0.50059   0.59383   0.00000  Uiso   1.00
H266   H     0.11609   0.29750   0.24678   0.00000  Uiso   1.00
H267   H     0.82958   0.12519   0.60354   0.00000  Uiso   1.00
O268   O     0.62586   0.39777   0.54322   0.00000  Uiso   1.00
O269   O     0.16204   0.28730   0.08790   0.00000  Uiso   1.00
O270   O     0.78615   0.06124   0.55597   0.00000  Uiso   1.00
N271   N     0.60391   0.41898   0.45475   0.00000  Uiso   1.00
N272   N     0.12971   0.19657   0.13028   0.00000  Uiso   1.00
N273   N     0.36185   0.53549   0.46380   0.00000  Uiso   1.00
N274   N     0.58961   0.48248   0.54695   0.00000  Uiso   1.00
N275   N     0.11541   0.26006   0.22248   0.00000  Uiso   1.00
N276   N     0.84755   0.09898   0.55601   0.00000  Uiso   1.00
C277   C     0.20760   0.85357   0.17416   0.00000  Uiso   1.00
C278   C     0.16279   0.83735   0.18395   0.00000  Uiso   1.00
C279   C     0.13960   0.78608   0.21496   0.00000  Uiso   1.00
C280   C     0.09916   0.77947   0.21893   0.00000  Uiso   1.00
C281   C     0.03212   0.74771   0.23808   0.00000  Uiso   1.00
C282   C     0.24049   0.86826   0.08550   0.00000  Uiso   1.00
C283   C     0.28263   0.84299   0.03372   0.00000  Uiso   1.00
C284   C     0.30761   0.86241   0.95481   0.00000  Uiso   1.00
C285   C     0.86121   0.37867   0.82112   0.00000  Uiso   1.00
C286   C     0.19856   0.90953   0.22005   0.00000  Uiso   1.00
C287   C     0.20547   0.91897   0.28141   0.00000  Uiso   1.00
C288   C     0.19516   0.97315   0.31577   0.00000  Uiso   1.00
C289   C     0.68367   0.55349   0.39100   0.00000  Uiso   1.00
C290   C     0.17702   0.93301   0.12607   0.00000  Uiso   1.00
C291   C     0.14618   0.88050   0.15783   0.00000  Uiso   1.00
C292   C     0.10576   0.87397   0.16176   0.00000  Uiso   1.00
C293   C     0.08252   0.82270   0.19276   0.00000  Uiso   1.00
C294   C     0.22388   0.91141   0.05938   0.00000  Uiso   1.00
C295   C     0.24880   0.93088   0.98052   0.00000  Uiso   1.00
C296   C     0.29097   0.90564   0.92864   0.00000  Uiso   1.00
C297   C     0.18195   0.95268   0.19394   0.00000  Uiso   1.00
C298   C     0.17163   0.00686   0.22821   0.00000  Uiso   1.00
C299   C     0.17852   0.01638   0.28960   0.00000  Uiso   1.00
H300   H     0.22053   0.81997   0.19448   0.00000  Uiso   1.00
H301   H     0.15247   0.75269   0.23516   0.00000  Uiso   1.00
H302   H     0.29548   0.80960   0.05396   0.00000  Uiso   1.00
H303   H     0.21832   0.88557   0.30160   0.00000  Uiso   1.00
H304   H     0.06969   0.69712   0.26871   0.00000  Uiso   1.00
H305   H     0.37124   0.81712   0.88664   0.00000  Uiso   1.00
H306   H     0.20855   0.97732   0.40885   0.00000  Uiso   1.00
H307   H     0.16409   0.96661   0.10573   0.00000  Uiso   1.00
H308   H     0.09292   0.90737   0.14154   0.00000  Uiso   1.00
H309   H     0.23593   0.96428   0.96033   0.00000  Uiso   1.00
H310   H     0.15878   0.04024   0.20798   0.00000  Uiso   1.00
H311   H     0.02136   0.82266   0.19272   0.00000  Uiso   1.00
H312   H     0.82292   0.44267   0.81065   0.00000  Uiso   1.00
H313   H     0.66022   0.60286   0.33286   0.00000  Uiso   1.00
O314   O     0.99973   0.71827   0.25584   0.00000  Uiso   1.00
O315   O     0.89537   0.37572   0.75459   0.00000  Uiso   1.00
O316   O     0.68192   0.58588   0.43972   0.00000  Uiso   1.00
N317   N     0.06807   0.73480   0.24593   0.00000  Uiso   1.00
N318   N     0.35001   0.84699   0.88871   0.00000  Uiso   1.00
N319   N     0.19792   0.99676   0.37692   0.00000  Uiso   1.00
N320   N     0.04207   0.80235   0.20504   0.00000  Uiso   1.00
N321   N     0.82400   0.41454   0.84782   0.00000  Uiso   1.00
N322   N     0.67191   0.56431   0.33603   0.00000  Uiso   1.00
C323   C     0.94272   0.95070   0.64776   0.00000  Uiso   1.00
C324   C     0.93153   0.92355   0.59095   0.00000  Uiso   1.00
C325   C     0.96092   0.91945   0.50803   0.00000  Uiso   1.00
C326   C     0.94422   0.89310   0.46680   0.00000  Uiso   1.00
C327   C     0.93361   0.85424   0.37246   0.00000  Uiso   1.00
C328   C     0.90679   0.99684   0.69405   0.00000  Uiso   1.00
C329   C     0.91538   0.05435   0.69782   0.00000  Uiso   1.00
C330   C     0.37786   0.58969   0.74338   0.00000  Uiso   1.00
C331   C     0.32884   0.66460   0.80914   0.00000  Uiso   1.00
C332   C     0.93369   0.90464   0.70914   0.00000  Uiso   1.00
C333   C     0.96490   0.88463   0.72562   0.00000  Uiso   1.00
C334   C     0.95003   0.84235   0.78391   0.00000  Uiso   1.00
C335   C     0.94279   0.77410   0.87310   0.00000  Uiso   1.00
C336   C     0.86080   0.91119   0.72199   0.00000  Uiso   1.00
C337   C     0.88703   0.90210   0.63127   0.00000  Uiso   1.00
C338   C     0.87028   0.87574   0.59016   0.00000  Uiso   1.00
C339   C     0.89965   0.87160   0.50719   0.00000  Uiso   1.00
C340   C     0.86229   0.97538   0.73437   0.00000  Uiso   1.00
C341   C     0.82475   0.01064   0.77994   0.00000  Uiso   1.00
C342   C     0.33328   0.56819   0.78377   0.00000  Uiso   1.00
C343   C     0.88920   0.88317   0.74946   0.00000  Uiso   1.00
C344   C     0.87427   0.84092   0.80774   0.00000  Uiso   1.00
C345   C     0.90545   0.82085   0.82430   0.00000  Uiso   1.00
H346   H     0.97736   0.96741   0.61638   0.00000  Uiso   1.00
H347   H     0.99535   0.93607   0.47685   0.00000  Uiso   1.00
H348   H     0.94982   0.07095   0.66661   0.00000  Uiso   1.00
H349   H     0.99933   0.90125   0.69441   0.00000  Uiso   1.00
H350   H     0.99567   0.89188   0.33995   0.00000  Uiso   1.00
H351   H     0.39967   0.67627   0.74009   0.00000  Uiso   1.00
H352   H     0.00408   0.81843   0.79870   0.00000  Uiso   1.00
H353   H     0.82615   0.89448   0.75338   0.00000  Uiso   1.00
H354   H     0.83585   0.85914   0.62137   0.00000  Uiso   1.00
H355   H     0.29032   0.49402   0.81113   0.00000  Uiso   1.00
H356   H     0.83984   0.82432   0.83893   0.00000  Uiso   1.00
H357   H     0.86621   0.82944   0.45724   0.00000  Uiso   1.00
H358   H     0.27022   0.61383   0.85739   0.00000  Uiso   1.00
H359   H     0.87463   0.75599   0.91600   0.00000  Uiso   1.00
O360   O     0.94004   0.83874   0.30928   0.00000  Uiso   1.00
O361   O     0.31410   0.71185   0.83426   0.00000  Uiso   1.00
O362   O     0.95108   0.74237   0.91116   0.00000  Uiso   1.00
N363   N     0.96387   0.88202   0.38567   0.00000  Uiso   1.00
N364   N     0.37412   0.64791   0.75977   0.00000  Uiso   1.00
N365   N     0.97173   0.81338   0.81458   0.00000  Uiso   1.00
N366   N     0.89421   0.84842   0.44879   0.00000  Uiso   1.00
N367   N     0.30446   0.61432   0.82288   0.00000  Uiso   1.00
N368   N     0.90207   0.77978   0.87770   0.00000  Uiso   1.00
C369   C     0.04035   0.49071   0.48871   0.00000  Uiso   1.00
C370   C     0.01177   0.52501   0.46674   0.00000  Uiso   1.00
C371   C     0.98655   0.57362   0.50620   0.00000  Uiso   1.00
C372   C     0.96271   0.59878   0.47686   0.00000  Uiso   1.00
C373   C     0.91812   0.65547   0.45289   0.00000  Uiso   1.00
C374   C     0.02260   0.42942   0.50254   0.00000  Uiso   1.00
C375   C     0.00647   0.39765   0.57209   0.00000  Uiso   1.00
C376   C     0.99175   0.34234   0.57287   0.00000  Uiso   1.00
C377   C     0.96399   0.25061   0.60445   0.00000  Uiso   1.00
C378   C     0.08840   0.48910   0.41305   0.00000  Uiso   1.00
C379   C     0.12762   0.50749   0.40736   0.00000  Uiso   1.00
C380   C     0.16830   0.50242   0.33280   0.00000  Uiso   1.00
C381   C     0.24272   0.50335   0.22542   0.00000  Uiso   1.00
C382   C     0.04288   0.44898   0.36642   0.00000  Uiso   1.00
C383   C     0.01315   0.50234   0.40032   0.00000  Uiso   1.00
C384   C     0.98935   0.52744   0.37091   0.00000  Uiso   1.00
C385   C     0.96409   0.57607   0.41032   0.00000  Uiso   1.00
C386   C     0.02397   0.40675   0.43612   0.00000  Uiso   1.00
C387   C     0.00927   0.35148   0.43680   0.00000  Uiso   1.00
C388   C     0.99313   0.31963   0.50634   0.00000  Uiso   1.00
C389   C     0.08978   0.46643   0.34662   0.00000  Uiso   1.00
C390   C     0.13041   0.46132   0.27206   0.00000  Uiso   1.00
C391   C     0.16968   0.47971   0.26626   0.00000  Uiso   1.00
H392   H     0.03928   0.50836   0.54042   0.00000  Uiso   1.00
H393   H     0.98549   0.59114   0.55761   0.00000  Uiso   1.00
H394   H     0.00542   0.41520   0.62348   0.00000  Uiso   1.00
H395   H     0.12654   0.52503   0.45877   0.00000  Uiso   1.00
H396   H     0.92645   0.67292   0.54739   0.00000  Uiso   1.00
H397   H     0.96848   0.30193   0.68628   0.00000  Uiso   1.00
H398   H     0.22389   0.53353   0.33895   0.00000  Uiso   1.00
H399   H     0.04395   0.43133   0.31471   0.00000  Uiso   1.00
H400   H     0.99042   0.50989   0.31951   0.00000  Uiso   1.00
H401   H     0.01035   0.33395   0.38539   0.00000  Uiso   1.00
H402   H     0.13147   0.44378   0.22067   0.00000  Uiso   1.00
H403   H     0.93045   0.60697   0.35415   0.00000  Uiso   1.00
H404   H     0.97248   0.23598   0.49303   0.00000  Uiso   1.00
H405   H     0.22789   0.46758   0.14571   0.00000  Uiso   1.00
O406   O     0.89313   0.69300   0.45802   0.00000  Uiso   1.00
O407   O     0.44829   0.70628   0.64022   0.00000  Uiso   1.00
O408   O     0.28338   0.51013   0.18454   0.00000  Uiso   1.00
N409   N     0.93474   0.64662   0.50124   0.00000  Uiso   1.00
N410   N     0.97404   0.29977   0.63110   0.00000  Uiso   1.00
N411   N     0.21282   0.51628   0.30638   0.00000  Uiso   1.00
N412   N     0.93689   0.61113   0.39726   0.00000  Uiso   1.00
N413   N     0.97619   0.26429   0.52711   0.00000  Uiso   1.00
N414   N     0.21498   0.48079   0.20240   0.00000  Uiso   1.00
C415   C     0.85552   0.67757   0.72412   0.00000  Uiso   1.00
C416   C     0.90527   0.69596   0.68000   0.00000  Uiso   1.00
C417   C     0.92522   0.73995   0.62416   0.00000  Uiso   1.00
C418   C     0.97120   0.75010   0.59053   0.00000  Uiso   1.00
C419   C     0.04464   0.78365   0.51877   0.00000  Uiso   1.00
C420   C     0.83687   0.68144   0.81357   0.00000  Uiso   1.00
C421   C     0.79930   0.71322   0.87004   0.00000  Uiso   1.00
C422   C     0.78770   0.71113   0.94886   0.00000  Uiso   1.00
C423   C     0.75491   0.72211   0.08450   0.00000  Uiso   1.00
C424   C     0.85608   0.61404   0.70593   0.00000  Uiso   1.00
C425   C     0.83465   0.58915   0.67191   0.00000  Uiso   1.00
C426   C     0.83922   0.53031   0.66012   0.00000  Uiso   1.00
C427   C     0.83626   0.43663   0.62862   0.00000  Uiso   1.00
C428   C     0.90173   0.61734   0.76370   0.00000  Uiso   1.00
C429   C     0.93037   0.66325   0.70150   0.00000  Uiso   1.00
C430   C     0.97634   0.67332   0.66795   0.00000  Uiso   1.00
C431   C     0.99635   0.71732   0.61206   0.00000  Uiso   1.00
C432   C     0.86197   0.64873   0.83507   0.00000  Uiso   1.00
C433   C     0.85042   0.64659   0.91383   0.00000  Uiso   1.00
C434   C     0.81284   0.67836   0.97040   0.00000  Uiso   1.00
C435   C     0.88118   0.58133   0.72743   0.00000  Uiso   1.00
C436   C     0.88578   0.52251   0.71570   0.00000  Uiso   1.00
C437   C     0.86436   0.49753   0.68166   0.00000  Uiso   1.00
H438   H     0.83598   0.70304   0.70739   0.00000  Uiso   1.00
H439   H     0.90578   0.76526   0.60754   0.00000  Uiso   1.00
H440   H     0.77988   0.73853   0.85339   0.00000  Uiso   1.00
H441   H     0.81523   0.61447   0.65528   0.00000  Uiso   1.00
H442   H     0.99423   0.81984   0.50634   0.00000  Uiso   1.00
H443   H     0.72875   0.76345   0.02473   0.00000  Uiso   1.00
H444   H     0.80330   0.50186   0.60698   0.00000  Uiso   1.00
H445   H     0.92127   0.59187   0.78044   0.00000  Uiso   1.00
H446   H     0.99576   0.64800   0.68460   0.00000  Uiso   1.00
H447   H     0.86985   0.62127   0.93045   0.00000  Uiso   1.00
H448   H     0.90521   0.49721   0.73234   0.00000  Uiso   1.00
H449   H     0.06726   0.72467   0.56889   0.00000  Uiso   1.00
H450   H     0.80178   0.66828   0.08728   0.00000  Uiso   1.00
H451   H     0.87633   0.40668   0.66953   0.00000  Uiso   1.00
O452   O     0.07820   0.81119   0.47326   0.00000  Uiso   1.00
O453   O     0.72990   0.73720   0.15337   0.00000  Uiso   1.00
O454   O     0.82770   0.39400   0.60530   0.00000  Uiso   1.00
N455   N     0.00120   0.78973   0.53420   0.00000  Uiso   1.00
N456   N     0.75300   0.73702   0.01886   0.00000  Uiso   1.00
N457   N     0.82268   0.49245   0.62832   0.00000  Uiso   1.00
N458   N     0.04050   0.73852   0.56786   0.00000  Uiso   1.00
N459   N     0.79229   0.68581   0.05252   0.00000  Uiso   1.00
N460   N     0.86198   0.44124   0.66198   0.00000  Uiso   1.00
C461   C     0.12145   0.59370   0.13689   0.00000  Uiso   1.00
C462   C     0.13129   0.61141   0.19960   0.00000  Uiso   1.00
C463   C     0.10027   0.61066   0.28231   0.00000  Uiso   1.00
C464   C     0.11593   0.62848   0.32948   0.00000  Uiso   1.00
C465   C     0.12438   0.65322   0.43209   0.00000  Uiso   1.00
C466   C     0.15601   0.54716   0.08634   0.00000  Uiso   1.00
C467   C     0.14576   0.49240   0.07383   0.00000  Uiso   1.00
C468   C     0.18223   0.45615   0.02565   0.00000  Uiso   1.00
C469   C     0.72904   0.88117   0.95238   0.00000  Uiso   1.00
C470   C     0.13390   0.64514   0.08134   0.00000  Uiso   1.00
C471   C     0.10507   0.67275   0.06459   0.00000  Uiso   1.00
C472   C     0.12293   0.71898   0.01219   0.00000  Uiso   1.00
C473   C     0.13542   0.79611   0.93115   0.00000  Uiso   1.00
C474   C     0.20442   0.62669   0.07358   0.00000  Uiso   1.00
C475   C     0.17637   0.62932   0.16521   0.00000  Uiso   1.00
C476   C     0.19208   0.64715   0.21227   0.00000  Uiso   1.00
C477   C     0.16108   0.64643   0.29504   0.00000  Uiso   1.00
C478   C     0.20108   0.56508   0.05196   0.00000  Uiso   1.00
C479   C     0.23757   0.52890   0.00379   0.00000  Uiso   1.00
C480   C     0.22738   0.47410   0.99120   0.00000  Uiso   1.00
C481   C     0.17897   0.66305   0.04695   0.00000  Uiso   1.00
C482   C     0.19688   0.70924   0.99456   0.00000  Uiso   1.00
C483   C     0.16808   0.73692   0.97774   0.00000  Uiso   1.00
H484   H     0.08636   0.57975   0.16365   0.00000  Uiso   1.00
H485   H     0.06540   0.59678   0.30890   0.00000  Uiso   1.00
H486   H     0.11088   0.47855   0.10044   0.00000  Uiso   1.00
H487   H     0.07020   0.65887   0.09121   0.00000  Uiso   1.00
H488   H     0.06204   0.62355   0.45476   0.00000  Uiso   1.00
H489   H     0.15795   0.37426   0.01519   0.00000  Uiso   1.00
H490   H     0.07215   0.75450   0.99573   0.00000  Uiso   1.00
H491   H     0.23952   0.64063   0.04681   0.00000  Uiso   1.00
H492   H     0.22696   0.66101   0.18564   0.00000  Uiso   1.00
H493   H     0.27244   0.54278   0.97719   0.00000  Uiso   1.00
H494   H     0.23176   0.72310   0.96796   0.00000  Uiso   1.00
H495   H     0.19317   0.67568   0.35472   0.00000  Uiso   1.00
H496   H     0.78908   0.92639   0.91515   0.00000  Uiso   1.00
H497   H     0.20328   0.80662   0.89570   0.00000  Uiso   1.00
O498   O     0.11658   0.66190   0.49818   0.00000  Uiso   1.00
O499   O     0.74241   0.83485   0.92147   0.00000  Uiso   1.00
O500   O     0.12985   0.83371   0.89595   0.00000  Uiso   1.00
N501   N     0.09462   0.63303   0.41216   0.00000  Uiso   1.00
N502   N     0.18429   0.39996   0.00120   0.00000  Uiso   1.00
N503   N     0.10408   0.75544   0.98300   0.00000  Uiso   1.00
N504   N     0.16518   0.66108   0.35833   0.00000  Uiso   1.00
N505   N     0.75485   0.92801   0.94738   0.00000  Uiso   1.00
N506   N     0.17464   0.78349   0.92917   0.00000  Uiso   1.00
C507   C     0.03307   0.04473   0.34153   0.00000  Uiso   1.00
C508   C     0.04909   0.02559   0.39527   0.00000  Uiso   1.00
C509   C     0.07053   0.97413   0.38909   0.00000  Uiso   1.00
C510   C     0.08254   0.96465   0.44396   0.00000  Uiso   1.00
C511   C     0.10883   0.92877   0.51842   0.00000  Uiso   1.00
C512   C     0.05621   0.10209   0.30584   0.00000  Uiso   1.00
C513   C     0.08363   0.11496   0.22447   0.00000  Uiso   1.00
C514   C     0.60162   0.66988   0.20406   0.00000  Uiso   1.00
C515   C     0.63893   0.75278   0.13969   0.00000  Uiso   1.00
C516   C     0.98239   0.05769   0.39777   0.00000  Uiso   1.00
C517   C     0.94774   0.03323   0.39368   0.00000  Uiso   1.00
C518   C     0.90358   0.05079   0.45065   0.00000  Uiso   1.00
C519   C     0.32627   0.56475   0.52901   0.00000  Uiso   1.00
C520   C     0.01626   0.11941   0.44996   0.00000  Uiso   1.00
C521   C     0.03996   0.06615   0.45416   0.00000  Uiso   1.00
C522   C     0.05193   0.05674   0.50906   0.00000  Uiso   1.00
C523   C     0.07339   0.00528   0.50296   0.00000  Uiso   1.00
C524   C     0.04708   0.14265   0.36473   0.00000  Uiso   1.00
C525   C     0.56503   0.69757   0.34444   0.00000  Uiso   1.00
C526   C     0.59247   0.71051   0.26306   0.00000  Uiso   1.00
C527   C     0.97326   0.09825   0.45667   0.00000  Uiso   1.00
C528   C     0.92914   0.11585   0.51365   0.00000  Uiso   1.00
C529   C     0.89443   0.09142   0.50965   0.00000  Uiso   1.00
H530   H     0.04018   0.01316   0.29567   0.00000  Uiso   1.00
H531   H     0.07760   0.94276   0.34350   0.00000  Uiso   1.00
H532   H     0.09069   0.08356   0.17891   0.00000  Uiso   1.00
H533   H     0.95482   0.00185   0.34810   0.00000  Uiso   1.00
H534   H     0.11507   0.88259   0.42248   0.00000  Uiso   1.00
H535   H     0.64266   0.67950   0.07543   0.00000  Uiso   1.00
H536   H     0.85615   0.00719   0.43219   0.00000  Uiso   1.00
H537   H     0.00915   0.15098   0.49581   0.00000  Uiso   1.00
H538   H     0.04486   0.08814   0.55463   0.00000  Uiso   1.00
H539   H     0.55795   0.72895   0.39003   0.00000  Uiso   1.00
H540   H     0.42209   0.64723   0.55921   0.00000  Uiso   1.00
H541   H     0.08850   0.00059   0.59383   0.00000  Uiso   1.00
H542   H     0.61609   0.79750   0.24678   0.00000  Uiso   1.00
H543   H     0.32958   0.62519   0.60354   0.00000  Uiso   1.00
O544   O     0.12586   0.89777   0.54322   0.00000  Uiso   1.00
O545   O     0.66204   0.78730   0.08790   0.00000  Uiso   1.00
O546   O     0.28615   0.56124   0.55597   0.00000  Uiso   1.00
N547   N     0.10391   0.91898   0.45475   0.00000  Uiso   1.00
N548   N     0.62971   0.69657   0.13028   0.00000  Uiso   1.00
N549   N     0.86185   0.03549   0.46380   0.00000  Uiso   1.00
N550   N     0.08961   0.98248   0.54695   0.00000  Uiso   1.00
N551   N     0.61541   0.76006   0.22248   0.00000  Uiso   1.00
N552   N     0.34755   0.59898   0.55601   0.00000  Uiso   1.00
C553   C     0.70760   0.64643   0.67416   0.00000  Uiso   1.00
C554   C     0.66279   0.66265   0.68395   0.00000  Uiso   1.00
C555   C     0.63960   0.71392   0.71496   0.00000  Uiso   1.00
C556   C     0.59916   0.72053   0.71893   0.00000  Uiso   1.00
C557   C     0.53212   0.75229   0.73808   0.00000  Uiso   1.00
C558   C     0.74049   0.63174   0.58550   0.00000  Uiso   1.00
C559   C     0.78263   0.65701   0.53372   0.00000  Uiso   1.00
C560   C     0.80761   0.63759   0.45481   0.00000  Uiso   1.00
C561   C     0.36121   0.12133   0.32112   0.00000  Uiso   1.00
C562   C     0.69856   0.59047   0.72005   0.00000  Uiso   1.00
C563   C     0.70547   0.58103   0.78141   0.00000  Uiso   1.00
C564   C     0.69516   0.52685   0.81577   0.00000  Uiso   1.00
C565   C     0.18367   0.94651   0.89100   0.00000  Uiso   1.00
C566   C     0.67702   0.56699   0.62607   0.00000  Uiso   1.00
C567   C     0.64618   0.61950   0.65783   0.00000  Uiso   1.00
C568   C     0.60576   0.62603   0.66176   0.00000  Uiso   1.00
C569   C     0.58252   0.67730   0.69276   0.00000  Uiso   1.00
C570   C     0.72388   0.58859   0.55938   0.00000  Uiso   1.00
C571   C     0.74880   0.56912   0.48052   0.00000  Uiso   1.00
C572   C     0.79097   0.59436   0.42864   0.00000  Uiso   1.00
C573   C     0.68195   0.54732   0.69394   0.00000  Uiso   1.00
C574   C     0.67163   0.49314   0.72821   0.00000  Uiso   1.00
C575   C     0.67852   0.48362   0.78960   0.00000  Uiso   1.00
H576   H     0.72053   0.68003   0.69448   0.00000  Uiso   1.00
H577   H     0.65247   0.74731   0.73516   0.00000  Uiso   1.00
H578   H     0.79548   0.69040   0.55396   0.00000  Uiso   1.00
H579   H     0.71832   0.61443   0.80160   0.00000  Uiso   1.00
H580   H     0.56969   0.80288   0.76871   0.00000  Uiso   1.00
H581   H     0.87124   0.68288   0.38664   0.00000  Uiso   1.00
H582   H     0.70855   0.52268   0.90885   0.00000  Uiso   1.00
H583   H     0.66409   0.53339   0.60573   0.00000  Uiso   1.00
H584   H     0.59292   0.59263   0.64154   0.00000  Uiso   1.00
H585   H     0.73593   0.53572   0.46033   0.00000  Uiso   1.00
H586   H     0.65878   0.45976   0.70798   0.00000  Uiso   1.00
H587   H     0.52136   0.67734   0.69272   0.00000  Uiso   1.00
H588   H     0.32292   0.05733   0.31065   0.00000  Uiso   1.00
H589   H     0.16022   0.89714   0.83286   0.00000  Uiso   1.00
O590   O     0.49973   0.78173   0.75584   0.00000  Uiso   1.00
O591   O     0.39537   0.12428   0.25459   0.00000  Uiso   1.00
O592   O     0.18192   0.91412   0.93972   0.00000  Uiso   1.00
N593   N     0.56807   0.76520   0.74593   0.00000  Uiso   1.00
N594   N     0.85001   0.65301   0.38871   0.00000  Uiso   1.00
N595   N     0.69792   0.50324   0.87692   0.00000  Uiso   1.00
N596   N     0.54207   0.69765   0.70504   0.00000  Uiso   1.00
N597   N     0.32400   0.08546   0.34782   0.00000  Uiso   1.00
N598   N     0.17191   0.93569   0.83603   0.00000  Uiso   1.00
C599   C     0.44272   0.54930   0.14776   0.00000  Uiso   1.00
C600   C     0.43153   0.57645   0.09095   0.00000  Uiso   1.00
C601   C     0.46092   0.58055   0.00803   0.00000  Uiso   1.00
C602   C     0.44422   0.60690   0.96680   0.00000  Uiso   1.00
C603   C     0.43361   0.64576   0.87246   0.00000  Uiso   1.00
C604   C     0.40679   0.50316   0.19405   0.00000  Uiso   1.00
C605   C     0.41538   0.44565   0.19782   0.00000  Uiso   1.00
C606   C     0.87786   0.91031   0.24338   0.00000  Uiso   1.00
C607   C     0.82884   0.83540   0.30914   0.00000  Uiso   1.00
C608   C     0.43369   0.59536   0.20914   0.00000  Uiso   1.00
C609   C     0.46490   0.61537   0.22562   0.00000  Uiso   1.00
C610   C     0.45003   0.65765   0.28391   0.00000  Uiso   1.00
C611   C     0.44279   0.72590   0.37310   0.00000  Uiso   1.00
C612   C     0.36080   0.58881   0.22199   0.00000  Uiso   1.00
C613   C     0.38703   0.59790   0.13127   0.00000  Uiso   1.00
C614   C     0.37028   0.62426   0.09016   0.00000  Uiso   1.00
C615   C     0.39965   0.62840   0.00719   0.00000  Uiso   1.00
C616   C     0.36229   0.52462   0.23437   0.00000  Uiso   1.00
C617   C     0.32475   0.48936   0.27994   0.00000  Uiso   1.00
C618   C     0.83328   0.93181   0.28377   0.00000  Uiso   1.00
C619   C     0.38920   0.61683   0.24946   0.00000  Uiso   1.00
C620   C     0.37427   0.65908   0.30774   0.00000  Uiso   1.00
C621   C     0.40545   0.67915   0.32430   0.00000  Uiso   1.00
H622   H     0.47736   0.53259   0.11638   0.00000  Uiso   1.00
H623   H     0.49535   0.56393   0.97685   0.00000  Uiso   1.00
H624   H     0.44982   0.42905   0.16661   0.00000  Uiso   1.00
H625   H     0.49933   0.59875   0.19441   0.00000  Uiso   1.00
H626   H     0.49567   0.60812   0.83995   0.00000  Uiso   1.00
H627   H     0.89967   0.82373   0.24009   0.00000  Uiso   1.00
H628   H     0.50408   0.68157   0.29870   0.00000  Uiso   1.00
H629   H     0.32615   0.60552   0.25338   0.00000  Uiso   1.00
H630   H     0.33585   0.64086   0.12137   0.00000  Uiso   1.00
H631   H     0.79032   0.00598   0.31113   0.00000  Uiso   1.00
H632   H     0.33984   0.67568   0.33893   0.00000  Uiso   1.00
H633   H     0.36621   0.67056   0.95724   0.00000  Uiso   1.00
H634   H     0.77022   0.88617   0.35739   0.00000  Uiso   1.00
H635   H     0.37463   0.74401   0.41600   0.00000  Uiso   1.00
O636   O     0.44004   0.66126   0.80928   0.00000  Uiso   1.00
O637   O     0.81410   0.78815   0.33426   0.00000  Uiso   1.00
O638   O     0.45108   0.75763   0.41116   0.00000  Uiso   1.00
N639   N     0.46387   0.61798   0.88567   0.00000  Uiso   1.00
N640   N     0.87412   0.85209   0.25977   0.00000  Uiso   1.00
N641   N     0.47173   0.68662   0.31458   0.00000  Uiso   1.00
N642   N     0.39421   0.65158   0.94879   0.00000  Uiso   1.00
N643   N     0.80446   0.88568   0.32288   0.00000  Uiso   1.00
N644   N     0.40207   0.72022   0.37770   0.00000  Uiso   1.00
C645   C     0.54035   0.00929   0.98871   0.00000  Uiso   1.00
C646   C     0.51177   0.97499   0.96674   0.00000  Uiso   1.00
C647   C     0.48655   0.92638   0.00620   0.00000  Uiso   1.00
C648   C     0.46271   0.90122   0.97686   0.00000  Uiso   1.00
C649   C     0.41812   0.84453   0.95289   0.00000  Uiso   1.00
C650   C     0.52260   0.07058   0.00254   0.00000  Uiso   1.00
C651   C     0.50647   0.10235   0.07209   0.00000  Uiso   1.00
C652   C     0.49175   0.15766   0.07287   0.00000  Uiso   1.00
C653   C     0.46399   0.24939   0.10445   0.00000  Uiso   1.00
C654   C     0.58840   0.01090   0.91305   0.00000  Uiso   1.00
C655   C     0.62762   0.99251   0.90736   0.00000  Uiso   1.00
C656   C     0.66830   0.99758   0.83280   0.00000  Uiso   1.00
C657   C     0.74272   0.99665   0.72542   0.00000  Uiso   1.00
C658   C     0.54288   0.05102   0.86642   0.00000  Uiso   1.00
C659   C     0.51315   0.99766   0.90032   0.00000  Uiso   1.00
C660   C     0.48935   0.97256   0.87091   0.00000  Uiso   1.00
C661   C     0.46409   0.92393   0.91032   0.00000  Uiso   1.00
C662   C     0.52397   0.09325   0.93612   0.00000  Uiso   1.00
C663   C     0.50927   0.14852   0.93680   0.00000  Uiso   1.00
C664   C     0.49313   0.18037   0.00634   0.00000  Uiso   1.00
C665   C     0.58978   0.03357   0.84662   0.00000  Uiso   1.00
C666   C     0.63041   0.03868   0.77206   0.00000  Uiso   1.00
C667   C     0.66968   0.02029   0.76626   0.00000  Uiso   1.00
H668   H     0.53928   0.99164   0.04042   0.00000  Uiso   1.00
H669   H     0.48549   0.90886   0.05761   0.00000  Uiso   1.00
H670   H     0.50542   0.08480   0.12348   0.00000  Uiso   1.00
H671   H     0.62654   0.97497   0.95877   0.00000  Uiso   1.00
H672   H     0.42645   0.82708   0.04739   0.00000  Uiso   1.00
H673   H     0.46848   0.19807   0.18628   0.00000  Uiso   1.00
H674   H     0.72389   0.96647   0.83895   0.00000  Uiso   1.00
H675   H     0.54395   0.06867   0.81471   0.00000  Uiso   1.00
H676   H     0.49042   0.99011   0.81951   0.00000  Uiso   1.00
H677   H     0.51035   0.16605   0.88539   0.00000  Uiso   1.00
H678   H     0.63147   0.05622   0.72067   0.00000  Uiso   1.00
H679   H     0.43045   0.89303   0.85415   0.00000  Uiso   1.00
H680   H     0.47248   0.26402   0.99303   0.00000  Uiso   1.00
H681   H     0.72789   0.03242   0.64571   0.00000  Uiso   1.00
O682   O     0.39313   0.80700   0.95802   0.00000  Uiso   1.00
O683   O     0.94829   0.79372   0.14022   0.00000  Uiso   1.00
O684   O     0.78338   0.98987   0.68454   0.00000  Uiso   1.00
N685   N     0.43474   0.85338   0.00124   0.00000  Uiso   1.00
N686   N     0.47404   0.20023   0.13110   0.00000  Uiso   1.00
N687   N     0.71282   0.98372   0.80638   0.00000  Uiso   1.00
N688   N     0.43689   0.88887   0.89726   0.00000  Uiso   1.00
N689   N     0.47619   0.23571   0.02711   0.00000  Uiso   1.00
N690   N     0.71498   0.01921   0.70240   0.00000  Uiso   1.00
C691   C     0.35552   0.82243   0.22412   0.00000  Uiso   1.00
C692   C     0.40527   0.80404   0.18000   0.00000  Uiso   1.00
C693   C     0.42522   0.76005   0.12416   0.00000  Uiso   1.00
C694   C     0.47120   0.74990   0.09053   0.00000  Uiso   1.00
C695   C     0.54464   0.71635   0.01877   0.00000  Uiso   1.00
C696   C     0.33687   0.81856   0.31357   0.00000  Uiso   1.00
C697   C     0.29930   0.78678   0.37004   0.00000  Uiso   1.00
C698   C     0.28770   0.78887   0.44886   0.00000  Uiso   1.00
C699   C     0.25491   0.77789   0.58450   0.00000  Uiso   1.00
C700   C     0.35608   0.88596   0.20593   0.00000  Uiso   1.00
C701   C     0.33465   0.91085   0.17191   0.00000  Uiso   1.00
C702   C     0.33922   0.96969   0.16012   0.00000  Uiso   1.00
C703   C     0.33626   0.06337   0.12862   0.00000  Uiso   1.00
C704   C     0.40173   0.88266   0.26370   0.00000  Uiso   1.00
C705   C     0.43037   0.83675   0.20150   0.00000  Uiso   1.00
C706   C     0.47634   0.82668   0.16795   0.00000  Uiso   1.00
C707   C     0.49635   0.78268   0.11206   0.00000  Uiso   1.00
C708   C     0.36197   0.85127   0.33507   0.00000  Uiso   1.00
C709   C     0.35042   0.85341   0.41383   0.00000  Uiso   1.00
C710   C     0.31284   0.82164   0.47040   0.00000  Uiso   1.00
C711   C     0.38118   0.91867   0.22743   0.00000  Uiso   1.00
C712   C     0.38578   0.97749   0.21570   0.00000  Uiso   1.00
C713   C     0.36436   0.00247   0.18166   0.00000  Uiso   1.00
H714   H     0.33598   0.79696   0.20739   0.00000  Uiso   1.00
H715   H     0.40578   0.73474   0.10754   0.00000  Uiso   1.00
H716   H     0.27988   0.76147   0.35339   0.00000  Uiso   1.00
H717   H     0.31523   0.88553   0.15528   0.00000  Uiso   1.00
H718   H     0.49423   0.68016   0.00634   0.00000  Uiso   1.00
H719   H     0.22875   0.73655   0.52473   0.00000  Uiso   1.00
H720   H     0.30330   0.99814   0.10698   0.00000  Uiso   1.00
H721   H     0.42127   0.90813   0.28044   0.00000  Uiso   1.00
H722   H     0.49576   0.85200   0.18460   0.00000  Uiso   1.00
H723   H     0.36985   0.87873   0.43045   0.00000  Uiso   1.00
H724   H     0.40521   0.00279   0.23234   0.00000  Uiso   1.00
H725   H     0.56726   0.77533   0.06889   0.00000  Uiso   1.00
H726   H     0.30178   0.83172   0.58728   0.00000  Uiso   1.00
H727   H     0.37633   0.09332   0.16953   0.00000  Uiso   1.00
O728   O     0.57820   0.68881   0.97326   0.00000  Uiso   1.00
O729   O     0.22990   0.76280   0.65337   0.00000  Uiso   1.00
O730   O     0.32770   0.10600   0.10530   0.00000  Uiso   1.00
N731   N     0.50120   0.71027   0.03420   0.00000  Uiso   1.00
N732   N     0.25300   0.76298   0.51886   0.00000  Uiso   1.00
N733   N     0.32268   0.00755   0.12832   0.00000  Uiso   1.00
N734   N     0.54050   0.76148   0.06786   0.00000  Uiso   1.00
N735   N     0.29229   0.81419   0.55252   0.00000  Uiso   1.00
N736   N     0.36198   0.05876   0.16198   0.00000  Uiso   1.00
C737   C     0.62145   0.90630   0.63689   0.00000  Uiso   1.00
C738   C     0.63129   0.88859   0.69960   0.00000  Uiso   1.00
C739   C     0.60027   0.88934   0.78231   0.00000  Uiso   1.00
C740   C     0.61593   0.87152   0.82948   0.00000  Uiso   1.00
C741   C     0.62438   0.84678   0.93209   0.00000  Uiso   1.00
C742   C     0.65601   0.95284   0.58634   0.00000  Uiso   1.00
C743   C     0.64576   0.00760   0.57383   0.00000  Uiso   1.00
C744   C     0.68223   0.04385   0.52565   0.00000  Uiso   1.00
C745   C     0.22904   0.61883   0.45238   0.00000  Uiso   1.00
C746   C     0.63390   0.85486   0.58134   0.00000  Uiso   1.00
C747   C     0.60507   0.82725   0.56459   0.00000  Uiso   1.00
C748   C     0.62293   0.78102   0.51219   0.00000  Uiso   1.00
C749   C     0.63542   0.70389   0.43115   0.00000  Uiso   1.00
C750   C     0.70442   0.87331   0.57358   0.00000  Uiso   1.00
C751   C     0.67637   0.87068   0.66521   0.00000  Uiso   1.00
C752   C     0.69208   0.85285   0.71227   0.00000  Uiso   1.00
C753   C     0.66108   0.85357   0.79504   0.00000  Uiso   1.00
C754   C     0.70108   0.93492   0.55196   0.00000  Uiso   1.00
C755   C     0.73757   0.97110   0.50379   0.00000  Uiso   1.00
C756   C     0.72738   0.02590   0.49120   0.00000  Uiso   1.00
C757   C     0.67897   0.83695   0.54695   0.00000  Uiso   1.00
C758   C     0.69688   0.79076   0.49456   0.00000  Uiso   1.00
C759   C     0.66808   0.76308   0.47774   0.00000  Uiso   1.00
H760   H     0.58636   0.92025   0.66365   0.00000  Uiso   1.00
H761   H     0.56540   0.90322   0.80890   0.00000  Uiso   1.00
H762   H     0.61088   0.02145   0.60044   0.00000  Uiso   1.00
H763   H     0.57020   0.84113   0.59121   0.00000  Uiso   1.00
H764   H     0.56204   0.87645   0.95476   0.00000  Uiso   1.00
H765   H     0.65795   0.12574   0.51519   0.00000  Uiso   1.00
H766   H     0.57215   0.74550   0.49573   0.00000  Uiso   1.00
H767   H     0.73952   0.85937   0.54681   0.00000  Uiso   1.00
H768   H     0.72696   0.83899   0.68564   0.00000  Uiso   1.00
H769   H     0.77244   0.95722   0.47719   0.00000  Uiso   1.00
H770   H     0.73176   0.77690   0.46796   0.00000  Uiso   1.00
H771   H     0.69317   0.82432   0.85472   0.00000  Uiso   1.00
H772   H     0.28908   0.57361   0.41515   0.00000  Uiso   1.00
H773   H     0.70328   0.69338   0.39570   0.00000  Uiso   1.00
O774   O     0.61658   0.83810   0.99818   0.00000  Uiso   1.00
O775   O     0.24241   0.66515   0.42147   0.00000  Uiso   1.00
O776   O     0.62985   0.66629   0.39595   0.00000  Uiso   1.00
N777   N     0.59462   0.86697   0.91216   0.00000  Uiso   1.00
N778   N     0.68429   0.10004   0.50120   0.00000  Uiso   1.00
N779   N     0.60408   0.74456   0.48300   0.00000  Uiso   1.00
N780   N     0.66518   0.83892   0.85833   0.00000  Uiso   1.00
N781   N     0.25485   0.57199   0.44738   0.00000  Uiso   1.00
N782   N     0.67464   0.71651   0.42917   0.00000  Uiso   1.00
C783   C     0.53307   0.45527   0.84153   0.00000  Uiso   1.00
C784   C     0.54909   0.47441   0.89527   0.00000  Uiso   1.00
C785   C     0.57053   0.52587   0.88909   0.00000  Uiso   1.00
C786   C     0.58254   0.53535   0.94396   0.00000  Uiso   1.00
C787   C     0.60883   0.57123   0.01842   0.00000  Uiso   1.00
C788   C     0.55621   0.39791   0.80584   0.00000  Uiso   1.00
C789   C     0.58363   0.38504   0.72447   0.00000  Uiso   1.00
C790   C     0.10162   0.83012   0.70406   0.00000  Uiso   1.00
C791   C     0.13893   0.74722   0.63969   0.00000  Uiso   1.00
C792   C     0.48239   0.44231   0.89777   0.00000  Uiso   1.00
C793   C     0.44774   0.46677   0.89368   0.00000  Uiso   1.00
C794   C     0.40358   0.44921   0.95065   0.00000  Uiso   1.00
C795   C     0.82627   0.93525   0.02901   0.00000  Uiso   1.00
C796   C     0.51626   0.38059   0.94996   0.00000  Uiso   1.00
C797   C     0.53996   0.43385   0.95416   0.00000  Uiso   1.00
C798   C     0.55193   0.44326   0.00906   0.00000  Uiso   1.00
C799   C     0.57339   0.49472   0.00296   0.00000  Uiso   1.00
C800   C     0.54708   0.35735   0.86473   0.00000  Uiso   1.00
C801   C     0.06503   0.80243   0.84444   0.00000  Uiso   1.00
C802   C     0.09247   0.78949   0.76306   0.00000  Uiso   1.00
C803   C     0.47326   0.40175   0.95667   0.00000  Uiso   1.00
C804   C     0.42914   0.38415   0.01365   0.00000  Uiso   1.00
C805   C     0.39443   0.40858   0.00965   0.00000  Uiso   1.00
H806   H     0.54018   0.48684   0.79567   0.00000  Uiso   1.00
H807   H     0.57760   0.55724   0.84350   0.00000  Uiso   1.00
H808   H     0.59069   0.41644   0.67891   0.00000  Uiso   1.00
H809   H     0.45482   0.49815   0.84810   0.00000  Uiso   1.00
H810   H     0.61507   0.61741   0.92248   0.00000  Uiso   1.00
H811   H     0.14266   0.82050   0.57543   0.00000  Uiso   1.00
H812   H     0.35615   0.49281   0.93219   0.00000  Uiso   1.00
H813   H     0.50915   0.34902   0.99581   0.00000  Uiso   1.00
H814   H     0.54486   0.41186   0.05463   0.00000  Uiso   1.00
H815   H     0.05795   0.77105   0.89003   0.00000  Uiso   1.00
H816   H     0.92209   0.85277   0.05921   0.00000  Uiso   1.00
H817   H     0.58850   0.49941   0.09383   0.00000  Uiso   1.00
H818   H     0.11609   0.70250   0.74678   0.00000  Uiso   1.00
H819   H     0.82958   0.87481   0.10354   0.00000  Uiso   1.00
O820   O     0.62586   0.60223   0.04322   0.00000  Uiso   1.00
O821   O     0.16204   0.71270   0.58790   0.00000  Uiso   1.00
O822   O     0.78615   0.93876   0.05597   0.00000  Uiso   1.00
N823   N     0.60391   0.58102   0.95475   0.00000  Uiso   1.00
N824   N     0.12971   0.80343   0.63028   0.00000  Uiso   1.00
N825   N     0.36185   0.46451   0.96380   0.00000  Uiso   1.00
N826   N     0.58961   0.51752   0.04695   0.00000  Uiso   1.00
N827   N     0.11541   0.73994   0.72248   0.00000  Uiso   1.00
N828   N     0.84755   0.90102   0.05601   0.00000  Uiso   1.00
C829   C     0.20760   0.14643   0.67416   0.00000  Uiso   1.00
C830   C     0.16279   0.16265   0.68395   0.00000  Uiso   1.00
C831   C     0.13960   0.21392   0.71496   0.00000  Uiso   1.00
C832   C     0.09916   0.22053   0.71893   0.00000  Uiso   1.00
C833   C     0.03212   0.25229   0.73808   0.00000  Uiso   1.00
C834   C     0.24049   0.13174   0.58550   0.00000  Uiso   1.00
C835   C     0.28263   0.15701   0.53372   0.00000  Uiso   1.00
C836   C     0.30761   0.13759   0.45481   0.00000  Uiso   1.00
C837   C     0.86121   0.62133   0.32112   0.00000  Uiso   1.00
C838   C     0.19856   0.09047   0.72005   0.00000  Uiso   1.00
C839   C     0.20547   0.08103   0.78141   0.00000  Uiso   1.00
C840   C     0.19516   0.02685   0.81577   0.00000  Uiso   1.00
C841   C     0.68367   0.44651   0.89100   0.00000  Uiso   1.00
C842   C     0.17702   0.06699   0.62607   0.00000  Uiso   1.00
C843   C     0.14618   0.11950   0.65783   0.00000  Uiso   1.00
C844   C     0.10576   0.12603   0.66176   0.00000  Uiso   1.00
C845   C     0.08252   0.17730   0.69276   0.00000  Uiso   1.00
C846   C     0.22388   0.08859   0.55938   0.00000  Uiso   1.00
C847   C     0.24880   0.06912   0.48052   0.00000  Uiso   1.00
C848   C     0.29097   0.09436   0.42864   0.00000  Uiso   1.00
C849   C     0.18195   0.04732   0.69394   0.00000  Uiso   1.00
C850   C     0.17163   0.99314   0.72821   0.00000  Uiso   1.00
C851   C     0.17852   0.98362   0.78960   0.00000  Uiso   1.00
H852   H     0.22053   0.18003   0.69448   0.00000  Uiso   1.00
H853   H     0.15247   0.24731   0.73516   0.00000  Uiso   1.00
H854   H     0.29548   0.19040   0.55396   0.00000  Uiso   1.00
H855   H     0.21832   0.11443   0.80160   0.00000  Uiso   1.00
H856   H     0.06969   0.30288   0.76871   0.00000  Uiso   1.00
H857   H     0.37124   0.18288   0.38664   0.00000  Uiso   1.00
H858   H     0.20855   0.02268   0.90885   0.00000  Uiso   1.00
H859   H     0.16409   0.03339   0.60573   0.00000  Uiso   1.00
H860   H     0.09292   0.09263   0.64154   0.00000  Uiso   1.00
H861   H     0.23593   0.03572   0.46033   0.00000  Uiso   1.00
H862   H     0.15878   0.95976   0.70798   0.00000  Uiso   1.00
H863   H     0.02136   0.17734   0.69272   0.00000  Uiso   1.00
H864   H     0.82292   0.55733   0.31065   0.00000  Uiso   1.00
H865   H     0.66022   0.39714   0.83286   0.00000  Uiso   1.00
O866   O     0.99973   0.28173   0.75584   0.00000  Uiso   1.00
O867   O     0.89537   0.62428   0.25459   0.00000  Uiso   1.00
O868   O     0.68192   0.41412   0.93972   0.00000  Uiso   1.00
N869   N     0.06807   0.26520   0.74593   0.00000  Uiso   1.00
N870   N     0.35001   0.15301   0.38871   0.00000  Uiso   1.00
N871   N     0.19792   0.00324   0.87692   0.00000  Uiso   1.00
N872   N     0.04207   0.19765   0.70504   0.00000  Uiso   1.00
N873   N     0.82400   0.58546   0.34782   0.00000  Uiso   1.00
N874   N     0.67191   0.43569   0.83603   0.00000  Uiso   1.00
C875   C     0.94272   0.04930   0.14776   0.00000  Uiso   1.00
C876   C     0.93153   0.07645   0.09095   0.00000  Uiso   1.00
C877   C     0.96092   0.08055   0.00803   0.00000  Uiso   1.00
C878   C     0.94422   0.10690   0.96680   0.00000  Uiso   1.00
C879   C     0.93361   0.14576   0.87246   0.00000  Uiso   1.00
C880   C     0.90679   0.00316   0.19405   0.00000  Uiso   1.00
C881   C     0.91538   0.94565   0.19782   0.00000  Uiso   1.00
C882   C     0.37786   0.41031   0.24338   0.00000  Uiso   1.00
C883   C     0.32884   0.33540   0.30914   0.00000  Uiso   1.00
C884   C     0.93369   0.09536   0.20914   0.00000  Uiso   1.00
C885   C     0.96490   0.11537   0.22562   0.00000  Uiso   1.00
C886   C     0.95003   0.15765   0.28391   0.00000  Uiso   1.00
C887   C     0.94279   0.22590   0.37310   0.00000  Uiso   1.00
C888   C     0.86080   0.08881   0.22199   0.00000  Uiso   1.00
C889   C     0.88703   0.09790   0.13127   0.00000  Uiso   1.00
C890   C     0.87028   0.12426   0.09016   0.00000  Uiso   1.00
C891   C     0.89965   0.12840   0.00719   0.00000  Uiso   1.00
C892   C     0.86229   0.02462   0.23437   0.00000  Uiso   1.00
C893   C     0.82475   0.98936   0.27994   0.00000  Uiso   1.00
C894   C     0.33328   0.43181   0.28377   0.00000  Uiso   1.00
C895   C     0.88920   0.11683   0.24946   0.00000  Uiso   1.00
C896   C     0.87427   0.15908   0.30774   0.00000  Uiso   1.00
C897   C     0.90545   0.17915   0.32430   0.00000  Uiso   1.00
H898   H     0.97736   0.03259   0.11638   0.00000  Uiso   1.00
H899   H     0.99535   0.06393   0.97685   0.00000  Uiso   1.00
H900   H     0.94982   0.92905   0.16661   0.00000  Uiso   1.00
H901   H     0.99933   0.09875   0.19441   0.00000  Uiso   1.00
H902   H     0.99567   0.10812   0.83995   0.00000  Uiso   1.00
H903   H     0.39967   0.32373   0.24009   0.00000  Uiso   1.00
H904   H     0.00408   0.18157   0.29870   0.00000  Uiso   1.00
H905   H     0.82615   0.10552   0.25338   0.00000  Uiso   1.00
H906   H     0.83585   0.14086   0.12137   0.00000  Uiso   1.00
H907   H     0.29032   0.50598   0.31113   0.00000  Uiso   1.00
H908   H     0.83984   0.17568   0.33893   0.00000  Uiso   1.00
H909   H     0.86621   0.17056   0.95724   0.00000  Uiso   1.00
H910   H     0.27022   0.38617   0.35739   0.00000  Uiso   1.00
H911   H     0.87463   0.24401   0.41600   0.00000  Uiso   1.00
O912   O     0.94004   0.16126   0.80928   0.00000  Uiso   1.00
O913   O     0.31410   0.28815   0.33426   0.00000  Uiso   1.00
O914   O     0.95108   0.25763   0.41116   0.00000  Uiso   1.00
N915   N     0.96387   0.11798   0.88567   0.00000  Uiso   1.00
N916   N     0.37412   0.35209   0.25977   0.00000  Uiso   1.00
N917   N     0.97173   0.18662   0.31458   0.00000  Uiso   1.00
N918   N     0.89421   0.15158   0.94879   0.00000  Uiso   1.00
N919   N     0.30446   0.38568   0.32288   0.00000  Uiso   1.00
N920   N     0.90207   0.22022   0.37770   0.00000  Uiso   1.00
C921   C     0.04035   0.50929   0.98871   0.00000  Uiso   1.00
C922   C     0.01177   0.47499   0.96674   0.00000  Uiso   1.00
C923   C     0.98655   0.42638   0.00620   0.00000  Uiso   1.00
C924   C     0.96271   0.40122   0.97686   0.00000  Uiso   1.00
C925   C     0.91812   0.34453   0.95289   0.00000  Uiso   1.00
C926   C     0.02260   0.57058   0.00254   0.00000  Uiso   1.00
C927   C     0.00647   0.60235   0.07209   0.00000  Uiso   1.00
C928   C     0.99175   0.65766   0.07287   0.00000  Uiso   1.00
C929   C     0.96399   0.74939   0.10445   0.00000  Uiso   1.00
C930   C     0.08840   0.51090   0.91305   0.00000  Uiso   1.00
C931   C     0.12762   0.49251   0.90736   0.00000  Uiso   1.00
C932   C     0.16830   0.49758   0.83280   0.00000  Uiso   1.00
C933   C     0.24272   0.49665   0.72542   0.00000  Uiso   1.00
C934   C     0.04288   0.55102   0.86642   0.00000  Uiso   1.00
C935   C     0.01315   0.49766   0.90032   0.00000  Uiso   1.00
C936   C     0.98935   0.47256   0.87091   0.00000  Uiso   1.00
C937   C     0.96409   0.42393   0.91032   0.00000  Uiso   1.00
C938   C     0.02397   0.59325   0.93612   0.00000  Uiso   1.00
C939   C     0.00927   0.64852   0.93680   0.00000  Uiso   1.00
C940   C     0.99313   0.68037   0.00634   0.00000  Uiso   1.00
C941   C     0.08978   0.53357   0.84662   0.00000  Uiso   1.00
C942   C     0.13041   0.53868   0.77206   0.00000  Uiso   1.00
C943   C     0.16968   0.52029   0.76626   0.00000  Uiso   1.00
H944   H     0.03928   0.49164   0.04042   0.00000  Uiso   1.00
H945   H     0.98549   0.40886   0.05761   0.00000  Uiso   1.00
H946   H     0.00542   0.58480   0.12348   0.00000  Uiso   1.00
H947   H     0.12654   0.47497   0.95877   0.00000  Uiso   1.00
H948   H     0.92645   0.32708   0.04739   0.00000  Uiso   1.00
H949   H     0.96848   0.69807   0.18628   0.00000  Uiso   1.00
H950   H     0.22389   0.46647   0.83895   0.00000  Uiso   1.00
H951   H     0.04395   0.56867   0.81471   0.00000  Uiso   1.00
H952   H     0.99042   0.49011   0.81951   0.00000  Uiso   1.00
H953   H     0.01035   0.66605   0.88539   0.00000  Uiso   1.00
H954   H     0.13147   0.55622   0.72067   0.00000  Uiso   1.00
H955   H     0.93045   0.39303   0.85415   0.00000  Uiso   1.00
H956   H     0.97248   0.76402   0.99303   0.00000  Uiso   1.00
H957   H     0.22789   0.53242   0.64571   0.00000  Uiso   1.00
O958   O     0.89313   0.30700   0.95802   0.00000  Uiso   1.00
O959   O     0.44829   0.29372   0.14022   0.00000  Uiso   1.00
O960   O     0.28338   0.48987   0.68454   0.00000  Uiso   1.00
N961   N     0.93474   0.35338   0.00124   0.00000  Uiso   1.00
N962   N     0.97404   0.70023   0.13110   0.00000  Uiso   1.00
N963   N     0.21282   0.48372   0.80638   0.00000  Uiso   1.00
N964   N     0.93689   0.38887   0.89726   0.00000  Uiso   1.00
N965   N     0.97619   0.73571   0.02711   0.00000  Uiso   1.00
N966   N     0.21498   0.51921   0.70240   0.00000  Uiso   1.00
C967   C     0.85552   0.32243   0.22412   0.00000  Uiso   1.00
C968   C     0.90527   0.30404   0.18000   0.00000  Uiso   1.00
C969   C     0.92522   0.26005   0.12416   0.00000  Uiso   1.00
C970   C     0.97120   0.24990   0.09053   0.00000  Uiso   1.00
C971   C     0.04464   0.21635   0.01877   0.00000  Uiso   1.00
C972   C     0.83687   0.31856   0.31357   0.00000  Uiso   1.00
C973   C     0.79930   0.28678   0.37004   0.00000  Uiso   1.00
C974   C     0.78770   0.28887   0.44886   0.00000  Uiso   1.00
C975   C     0.75491   0.27789   0.58450   0.00000  Uiso   1.00
C976   C     0.85608   0.38596   0.20593   0.00000  Uiso   1.00
C977   C     0.83465   0.41085   0.17191   0.00000  Uiso   1.00
C978   C     0.83922   0.46969   0.16012   0.00000  Uiso   1.00
C979   C     0.83626   0.56337   0.12862   0.00000  Uiso   1.00
C980   C     0.90173   0.38266   0.26370   0.00000  Uiso   1.00
C981   C     0.93037   0.33675   0.20150   0.00000  Uiso   1.00
C982   C     0.97634   0.32668   0.16795   0.00000  Uiso   1.00
C983   C     0.99635   0.28268   0.11206   0.00000  Uiso   1.00
C984   C     0.86197   0.35127   0.33507   0.00000  Uiso   1.00
C985   C     0.85042   0.35341   0.41383   0.00000  Uiso   1.00
C986   C     0.81284   0.32164   0.47040   0.00000  Uiso   1.00
C987   C     0.88118   0.41867   0.22743   0.00000  Uiso   1.00
C988   C     0.88578   0.47749   0.21570   0.00000  Uiso   1.00
C989   C     0.86436   0.50247   0.18166   0.00000  Uiso   1.00
H990   H     0.83598   0.29696   0.20739   0.00000  Uiso   1.00
H991   H     0.90578   0.23474   0.10754   0.00000  Uiso   1.00
H992   H     0.77988   0.26147   0.35339   0.00000  Uiso   1.00
H993   H     0.81523   0.38553   0.15528   0.00000  Uiso   1.00
H994   H     0.99423   0.18016   0.00634   0.00000  Uiso   1.00
H995   H     0.72875   0.23655   0.52473   0.00000  Uiso   1.00
H996   H     0.80330   0.49814   0.10698   0.00000  Uiso   1.00
H997   H     0.92127   0.40813   0.28044   0.00000  Uiso   1.00
H998   H     0.99576   0.35200   0.18460   0.00000  Uiso   1.00
H999   H     0.86985   0.37873   0.43045   0.00000  Uiso   1.00
H1000  H     0.90521   0.50279   0.23234   0.00000  Uiso   1.00
H1001  H     0.06726   0.27533   0.06889   0.00000  Uiso   1.00
H1002  H     0.80178   0.33172   0.58728   0.00000  Uiso   1.00
H1003  H     0.87633   0.59332   0.16953   0.00000  Uiso   1.00
O1004  O     0.07820   0.18881   0.97326   0.00000  Uiso   1.00
O1005  O     0.72990   0.26280   0.65337   0.00000  Uiso   1.00
O1006  O     0.82770   0.60600   0.10530   0.00000  Uiso   1.00
N1007  N     0.00120   0.21027   0.03420   0.00000  Uiso   1.00
N1008  N     0.75300   0.26298   0.51886   0.00000  Uiso   1.00
N1009  N     0.82268   0.50755   0.12832   0.00000  Uiso   1.00
N1010  N     0.04050   0.26148   0.06786   0.00000  Uiso   1.00
N1011  N     0.79229   0.31419   0.55252   0.00000  Uiso   1.00
N1012  N     0.86198   0.55876   0.16198   0.00000  Uiso   1.00
C1013  C     0.12145   0.40630   0.63689   0.00000  Uiso   1.00
C1014  C     0.13129   0.38859   0.69960   0.00000  Uiso   1.00
C1015  C     0.10027   0.38934   0.78231   0.00000  Uiso   1.00
C1016  C     0.11593   0.37152   0.82948   0.00000  Uiso   1.00
C1017  C     0.12438   0.34678   0.93209   0.00000  Uiso   1.00
C1018  C     0.15601   0.45284   0.58634   0.00000  Uiso   1.00
C1019  C     0.14576   0.50760   0.57383   0.00000  Uiso   1.00
C1020  C     0.18223   0.54385   0.52565   0.00000  Uiso   1.00
C1021  C     0.72904   0.11883   0.45238   0.00000  Uiso   1.00
C1022  C     0.13390   0.35486   0.58134   0.00000  Uiso   1.00
C1023  C     0.10507   0.32725   0.56459   0.00000  Uiso   1.00
C1024  C     0.12293   0.28102   0.51219   0.00000  Uiso   1.00
C1025  C     0.13542   0.20389   0.43115   0.00000  Uiso   1.00
C1026  C     0.20442   0.37331   0.57358   0.00000  Uiso   1.00
C1027  C     0.17637   0.37068   0.66521   0.00000  Uiso   1.00
C1028  C     0.19208   0.35285   0.71227   0.00000  Uiso   1.00
C1029  C     0.16108   0.35357   0.79504   0.00000  Uiso   1.00
C1030  C     0.20108   0.43492   0.55196   0.00000  Uiso   1.00
C1031  C     0.23757   0.47110   0.50379   0.00000  Uiso   1.00
C1032  C     0.22738   0.52590   0.49120   0.00000  Uiso   1.00
C1033  C     0.17897   0.33695   0.54695   0.00000  Uiso   1.00
C1034  C     0.19688   0.29076   0.49456   0.00000  Uiso   1.00
C1035  C     0.16808   0.26308   0.47774   0.00000  Uiso   1.00
H1036  H     0.08636   0.42025   0.66365   0.00000  Uiso   1.00
H1037  H     0.06540   0.40322   0.80890   0.00000  Uiso   1.00
H1038  H     0.11088   0.52145   0.60044   0.00000  Uiso   1.00
H1039  H     0.07020   0.34113   0.59121   0.00000  Uiso   1.00
H1040  H     0.06204   0.37645   0.95476   0.00000  Uiso   1.00
H1041  H     0.15795   0.62574   0.51519   0.00000  Uiso   1.00
H1042  H     0.07215   0.24550   0.49573   0.00000  Uiso   1.00
H1043  H     0.23952   0.35937   0.54681   0.00000  Uiso   1.00
H1044  H     0.22696   0.33899   0.68564   0.00000  Uiso   1.00
H1045  H     0.27244   0.45722   0.47719   0.00000  Uiso   1.00
H1046  H     0.23176   0.27690   0.46796   0.00000  Uiso   1.00
H1047  H     0.19317   0.32432   0.85472   0.00000  Uiso   1.00
H1048  H     0.78908   0.07361   0.41515   0.00000  Uiso   1.00
H1049  H     0.20328   0.19338   0.39570   0.00000  Uiso   1.00
O1050  O     0.11658   0.33810   0.99818   0.00000  Uiso   1.00
O1051  O     0.74241   0.16515   0.42147   0.00000  Uiso   1.00
O1052  O     0.12985   0.16629   0.39595   0.00000  Uiso   1.00
N1053  N     0.09462   0.36697   0.91216   0.00000  Uiso   1.00
N1054  N     0.18429   0.60004   0.50120   0.00000  Uiso   1.00
N1055  N     0.10408   0.24456   0.48300   0.00000  Uiso   1.00
N1056  N     0.16518   0.33892   0.85833   0.00000  Uiso   1.00
N1057  N     0.75485   0.07199   0.44738   0.00000  Uiso   1.00
N1058  N     0.17464   0.21651   0.42917   0.00000  Uiso   1.00
C1059  C     0.03307   0.95527   0.84153   0.00000  Uiso   1.00
C1060  C     0.04909   0.97441   0.89527   0.00000  Uiso   1.00
C1061  C     0.07053   0.02587   0.88909   0.00000  Uiso   1.00
C1062  C     0.08254   0.03535   0.94396   0.00000  Uiso   1.00
C1063  C     0.10883   0.07123   0.01842   0.00000  Uiso   1.00
C1064  C     0.05621   0.89791   0.80584   0.00000  Uiso   1.00
C1065  C     0.08363   0.88504   0.72447   0.00000  Uiso   1.00
C1066  C     0.60162   0.33012   0.70406   0.00000  Uiso   1.00
C1067  C     0.63893   0.24722   0.63969   0.00000  Uiso   1.00
C1068  C     0.98239   0.94231   0.89777   0.00000  Uiso   1.00
C1069  C     0.94774   0.96677   0.89368   0.00000  Uiso   1.00
C1070  C     0.90358   0.94921   0.95065   0.00000  Uiso   1.00
C1071  C     0.32627   0.43525   0.02901   0.00000  Uiso   1.00
C1072  C     0.01626   0.88059   0.94996   0.00000  Uiso   1.00
C1073  C     0.03996   0.93385   0.95416   0.00000  Uiso   1.00
C1074  C     0.05193   0.94326   0.00906   0.00000  Uiso   1.00
C1075  C     0.07339   0.99472   0.00296   0.00000  Uiso   1.00
C1076  C     0.04708   0.85735   0.86473   0.00000  Uiso   1.00
C1077  C     0.56503   0.30243   0.84444   0.00000  Uiso   1.00
C1078  C     0.59247   0.28949   0.76306   0.00000  Uiso   1.00
C1079  C     0.97326   0.90175   0.95667   0.00000  Uiso   1.00
C1080  C     0.92914   0.88415   0.01365   0.00000  Uiso   1.00
C1081  C     0.89443   0.90858   0.00965   0.00000  Uiso   1.00
H1082  H     0.04018   0.98684   0.79567   0.00000  Uiso   1.00
H1083  H     0.07760   0.05724   0.84350   0.00000  Uiso   1.00
H1084  H     0.09069   0.91644   0.67891   0.00000  Uiso   1.00
H1085  H     0.95482   0.99815   0.84810   0.00000  Uiso   1.00
H1086  H     0.11507   0.11741   0.92248   0.00000  Uiso   1.00
H1087  H     0.64266   0.32050   0.57543   0.00000  Uiso   1.00
H1088  H     0.85615   0.99281   0.93219   0.00000  Uiso   1.00
H1089  H     0.00915   0.84902   0.99581   0.00000  Uiso   1.00
H1090  H     0.04486   0.91186   0.05463   0.00000  Uiso   1.00
H1091  H     0.55795   0.27105   0.89003   0.00000  Uiso   1.00
H1092  H     0.42209   0.35277   0.05921   0.00000  Uiso   1.00
H1093  H     0.08850   0.99941   0.09383   0.00000  Uiso   1.00
H1094  H     0.61609   0.20250   0.74678   0.00000  Uiso   1.00
H1095  H     0.32958   0.37481   0.10354   0.00000  Uiso   1.00
O1096  O     0.12586   0.10223   0.04322   0.00000  Uiso   1.00
O1097  O     0.66204   0.21270   0.58790   0.00000  Uiso   1.00
O1098  O     0.28615   0.43876   0.05597   0.00000  Uiso   1.00
N1099  N     0.10391   0.08102   0.95475   0.00000  Uiso   1.00
N1100  N     0.62971   0.30343   0.63028   0.00000  Uiso   1.00
N1101  N     0.86185   0.96451   0.96380   0.00000  Uiso   1.00
N1102  N     0.08961   0.01752   0.04695   0.00000  Uiso   1.00
N1103  N     0.61541   0.23994   0.72248   0.00000  Uiso   1.00
N1104  N     0.34755   0.40102   0.05601   0.00000  Uiso   1.00
