data_job_06569
_audit_creation_date              2018-12-19
_audit_creation_method            'Materials Studio'
_symmetry_space_group_name_H-M    'P1'
_symmetry_Int_Tables_number       1
_symmetry_cell_setting            triclinic
loop_
_symmetry_equiv_pos_as_xyz
  x,y,z
_cell_length_a                    27.1124
_cell_length_b                    27.1124
_cell_length_c                    38.8840
_cell_angle_alpha                 90.0000
_cell_angle_beta                  90.0000
_cell_angle_gamma                 120.0000
loop_
_atom_site_label
_atom_site_type_symbol
_atom_site_fract_x
_atom_site_fract_y
_atom_site_fract_z
_atom_site_U_iso_or_equiv
_atom_site_adp_type
_atom_site_occupancy
C1     C     0.38437   0.27592   0.36337   0.00000  Uiso   1.00
C2     C     0.41809   0.26875   0.33434   0.00000  Uiso   1.00
C3     C     0.44752   0.23918   0.33647   0.00000  Uiso   1.00
C4     C     0.47571   0.23756   0.30706   0.00000  Uiso   1.00
C5     C     0.52828   0.22235   0.26662   0.00000  Uiso   1.00
C6     C     0.40929   0.33992   0.36781   0.00000  Uiso   1.00
C7     C     0.43132   0.37020   0.39809   0.00000  Uiso   1.00
C8     C     0.11877   0.76183   0.73019   0.00000  Uiso   1.00
C9     C     0.15765   0.85712   0.74173   0.00000  Uiso   1.00
C10    C     0.32417   0.25315   0.34956   0.00000  Uiso   1.00
C11    C     0.27463   0.21048   0.36450   0.00000  Uiso   1.00
C12    C     0.22375   0.19573   0.34790   0.00000  Uiso   1.00
C13    C     0.13046   0.15629   0.33110   0.00000  Uiso   1.00
C14    C     0.04877   0.65896   0.64068   0.00000  Uiso   1.00
C15    C     0.41686   0.29575   0.30391   0.00000  Uiso   1.00
C16    C     0.11168   0.62751   0.60782   0.00000  Uiso   1.00
C17    C     0.47448   0.26461   0.27657   0.00000  Uiso   1.00
C18    C     0.07473   0.70026   0.67072   0.00000  Uiso   1.00
C19    C     0.09548   0.75853   0.66945   0.00000  Uiso   1.00
C20    C     0.11754   0.78889   0.69971   0.00000  Uiso   1.00
C21    C     0.32294   0.28015   0.31913   0.00000  Uiso   1.00
C22    C     0.27213   0.26547   0.30252   0.00000  Uiso   1.00
C23    C     0.22251   0.22278   0.31742   0.00000  Uiso   1.00
H24    H     0.38533   0.25490   0.38706   0.00000  Uiso   1.00
H25    H     0.44846   0.21829   0.36002   0.00000  Uiso   1.00
H26    H     0.43226   0.34929   0.42163   0.00000  Uiso   1.00
H27    H     0.27560   0.18959   0.38804   0.00000  Uiso   1.00
H28    H     0.51794   0.18963   0.31663   0.00000  Uiso   1.00
H29    H     0.15043   0.79918   0.77988   0.00000  Uiso   1.00
H30    H     0.15340   0.12909   0.37571   0.00000  Uiso   1.00
H31    H     0.04781   0.67998   0.61699   0.00000  Uiso   1.00
H32    H     0.11072   0.64841   0.58428   0.00000  Uiso   1.00
H33    H     0.09452   0.77941   0.64590   0.00000  Uiso   1.00
H34    H     0.93786   0.61971   0.61230   0.00000  Uiso   1.00
H35    H     0.18103   0.60152   0.56144   0.00000  Uiso   1.00
H36    H     0.14685   0.87774   0.69136   0.00000  Uiso   1.00
H37    H     0.14982   0.20765   0.28719   0.00000  Uiso   1.00
O38    O     0.22429   0.53983   0.58605   0.00000  Uiso   1.00
O39    O     0.17945   0.90221   0.75650   0.00000  Uiso   1.00
O40    O     0.07935   0.12706   0.33023   0.00000  Uiso   1.00
N41    N     0.50845   0.21244   0.30028   0.00000  Uiso   1.00
N42    N     0.14318   0.80402   0.75508   0.00000  Uiso   1.00
N43    N     0.16765   0.15586   0.35553   0.00000  Uiso   1.00
N44    N     0.17319   0.58805   0.58598   0.00000  Uiso   1.00
N45    N     0.14125   0.84629   0.70744   0.00000  Uiso   1.00
N46    N     0.16572   0.19813   0.30789   0.00000  Uiso   1.00
C47    C     0.05103   0.60925   0.69670   0.00000  Uiso   1.00
C48    C     0.08475   0.60208   0.66767   0.00000  Uiso   1.00
C49    C     0.11418   0.57251   0.66980   0.00000  Uiso   1.00
C50    C     0.14238   0.57090   0.64039   0.00000  Uiso   1.00
C51    C     0.19495   0.55568   0.59995   0.00000  Uiso   1.00
C52    C     0.07596   0.67326   0.70115   0.00000  Uiso   1.00
C53    C     0.09799   0.70353   0.73142   0.00000  Uiso   1.00
C54    C     0.78544   0.09517   0.06353   0.00000  Uiso   1.00
C55    C     0.82432   0.19045   0.07506   0.00000  Uiso   1.00
C56    C     0.99084   0.58649   0.68290   0.00000  Uiso   1.00
C57    C     0.94130   0.54381   0.69783   0.00000  Uiso   1.00
C58    C     0.89041   0.52907   0.68123   0.00000  Uiso   1.00
C59    C     0.79713   0.48962   0.66443   0.00000  Uiso   1.00
C60    C     0.71544   0.99229   0.97402   0.00000  Uiso   1.00
C61    C     0.08352   0.62908   0.63725   0.00000  Uiso   1.00
C62    C     0.77835   0.96084   0.94116   0.00000  Uiso   1.00
C63    C     0.14115   0.59794   0.60991   0.00000  Uiso   1.00
C64    C     0.74140   0.03359   0.00406   0.00000  Uiso   1.00
C65    C     0.76215   0.09186   0.00278   0.00000  Uiso   1.00
C66    C     0.78421   0.12222   0.03304   0.00000  Uiso   1.00
C67    C     0.98961   0.61348   0.65247   0.00000  Uiso   1.00
C68    C     0.93879   0.59881   0.63585   0.00000  Uiso   1.00
C69    C     0.88918   0.55612   0.65075   0.00000  Uiso   1.00
H70    H     0.05199   0.58823   0.72039   0.00000  Uiso   1.00
H71    H     0.11513   0.55163   0.69335   0.00000  Uiso   1.00
H72    H     0.09893   0.68262   0.75497   0.00000  Uiso   1.00
H73    H     0.94226   0.52293   0.72137   0.00000  Uiso   1.00
H74    H     0.18460   0.52297   0.64996   0.00000  Uiso   1.00
H75    H     0.81710   0.13251   0.11321   0.00000  Uiso   1.00
H76    H     0.82007   0.46242   0.70905   0.00000  Uiso   1.00
H77    H     0.71448   0.01332   0.95033   0.00000  Uiso   1.00
H78    H     0.77739   0.98174   0.91761   0.00000  Uiso   1.00
H79    H     0.76119   0.11274   0.97923   0.00000  Uiso   1.00
H80    H     0.60452   0.95304   0.94564   0.00000  Uiso   1.00
H81    H     0.84769   0.93485   0.89477   0.00000  Uiso   1.00
H82    H     0.81352   0.21107   0.02469   0.00000  Uiso   1.00
H83    H     0.81649   0.54098   0.62052   0.00000  Uiso   1.00
O84    O     0.89096   0.87317   0.91938   0.00000  Uiso   1.00
O85    O     0.84611   0.23555   0.08983   0.00000  Uiso   1.00
O86    O     0.74602   0.46040   0.66356   0.00000  Uiso   1.00
N87    N     0.17512   0.54578   0.63362   0.00000  Uiso   1.00
N88    N     0.80985   0.13736   0.08841   0.00000  Uiso   1.00
N89    N     0.83431   0.48920   0.68886   0.00000  Uiso   1.00
N90    N     0.83986   0.92138   0.91931   0.00000  Uiso   1.00
N91    N     0.80792   0.17963   0.04078   0.00000  Uiso   1.00
N92    N     0.83239   0.53146   0.64122   0.00000  Uiso   1.00
C93    C     0.71770   0.94258   0.03003   0.00000  Uiso   1.00
C94    C     0.75142   0.93541   0.00101   0.00000  Uiso   1.00
C95    C     0.78085   0.90584   0.00313   0.00000  Uiso   1.00
C96    C     0.80905   0.90423   0.97372   0.00000  Uiso   1.00
C97    C     0.86161   0.88901   0.93328   0.00000  Uiso   1.00
C98    C     0.74263   0.00659   0.03448   0.00000  Uiso   1.00
C99    C     0.76466   0.03687   0.06476   0.00000  Uiso   1.00
C100   C     0.45211   0.42850   0.39686   0.00000  Uiso   1.00
C101   C     0.49099   0.52378   0.40840   0.00000  Uiso   1.00
C102   C     0.65751   0.91982   0.01623   0.00000  Uiso   1.00
C103   C     0.60796   0.87714   0.03116   0.00000  Uiso   1.00
C104   C     0.55708   0.86240   0.01457   0.00000  Uiso   1.00
C105   C     0.46380   0.82295   0.99776   0.00000  Uiso   1.00
C106   C     0.38210   0.32563   0.30735   0.00000  Uiso   1.00
C107   C     0.75019   0.96242   0.97058   0.00000  Uiso   1.00
C108   C     0.44501   0.29418   0.27449   0.00000  Uiso   1.00
C109   C     0.80781   0.93128   0.94324   0.00000  Uiso   1.00
C110   C     0.40806   0.36693   0.33739   0.00000  Uiso   1.00
C111   C     0.42882   0.42520   0.33611   0.00000  Uiso   1.00
C112   C     0.45088   0.45555   0.36638   0.00000  Uiso   1.00
C113   C     0.65628   0.94682   0.98580   0.00000  Uiso   1.00
C114   C     0.60546   0.93214   0.96918   0.00000  Uiso   1.00
C115   C     0.55585   0.88945   0.98409   0.00000  Uiso   1.00
H116   H     0.71866   0.92157   0.05372   0.00000  Uiso   1.00
H117   H     0.78180   0.88496   0.02669   0.00000  Uiso   1.00
H118   H     0.76560   0.01596   0.08830   0.00000  Uiso   1.00
H119   H     0.60893   0.85626   0.05471   0.00000  Uiso   1.00
H120   H     0.85127   0.85630   0.98330   0.00000  Uiso   1.00
H121   H     0.48376   0.46585   0.44655   0.00000  Uiso   1.00
H122   H     0.48673   0.79576   0.04238   0.00000  Uiso   1.00
H123   H     0.38114   0.34665   0.28366   0.00000  Uiso   1.00
H124   H     0.44405   0.31508   0.25095   0.00000  Uiso   1.00
H125   H     0.42786   0.44608   0.31256   0.00000  Uiso   1.00
H126   H     0.27119   0.28638   0.27897   0.00000  Uiso   1.00
H127   H     0.51436   0.26819   0.22810   0.00000  Uiso   1.00
H128   H     0.48019   0.54440   0.35802   0.00000  Uiso   1.00
H129   H     0.48316   0.87431   0.95385   0.00000  Uiso   1.00
O130   O     0.55762   0.20650   0.25272   0.00000  Uiso   1.00
O131   O     0.51278   0.56888   0.42317   0.00000  Uiso   1.00
O132   O     0.41268   0.79373   0.99690   0.00000  Uiso   1.00
N133   N     0.84179   0.87911   0.96695   0.00000  Uiso   1.00
N134   N     0.47651   0.47069   0.42175   0.00000  Uiso   1.00
N135   N     0.50098   0.82253   0.02219   0.00000  Uiso   1.00
N136   N     0.50653   0.25471   0.25265   0.00000  Uiso   1.00
N137   N     0.47459   0.51296   0.37411   0.00000  Uiso   1.00
N138   N     0.49906   0.86480   0.97456   0.00000  Uiso   1.00
C139   C     0.72408   0.10845   0.36337   0.00000  Uiso   1.00
C140   C     0.73125   0.14934   0.33434   0.00000  Uiso   1.00
C141   C     0.76082   0.20834   0.33647   0.00000  Uiso   1.00
C142   C     0.76244   0.23815   0.30706   0.00000  Uiso   1.00
C143   C     0.77765   0.30594   0.26662   0.00000  Uiso   1.00
C144   C     0.66008   0.06937   0.36781   0.00000  Uiso   1.00
C145   C     0.62980   0.06112   0.39809   0.00000  Uiso   1.00
C146   C     0.23817   0.35694   0.73019   0.00000  Uiso   1.00
C147   C     0.14288   0.30054   0.74173   0.00000  Uiso   1.00
C148   C     0.74685   0.07102   0.34956   0.00000  Uiso   1.00
C149   C     0.78952   0.06415   0.36450   0.00000  Uiso   1.00
C150   C     0.80427   0.02801   0.34790   0.00000  Uiso   1.00
C151   C     0.84371   0.97418   0.33110   0.00000  Uiso   1.00
C152   C     0.34104   0.38981   0.64068   0.00000  Uiso   1.00
C153   C     0.70425   0.12111   0.30391   0.00000  Uiso   1.00
C154   C     0.37249   0.48417   0.60782   0.00000  Uiso   1.00
C155   C     0.73539   0.20987   0.27657   0.00000  Uiso   1.00
C156   C     0.29974   0.37447   0.67072   0.00000  Uiso   1.00
C157   C     0.24147   0.33695   0.66945   0.00000  Uiso   1.00
C158   C     0.21111   0.32866   0.69971   0.00000  Uiso   1.00
C159   C     0.71985   0.04279   0.31913   0.00000  Uiso   1.00
C160   C     0.73453   0.00665   0.30252   0.00000  Uiso   1.00
C161   C     0.77722   0.99973   0.31742   0.00000  Uiso   1.00
H162   H     0.74510   0.13043   0.38706   0.00000  Uiso   1.00
H163   H     0.78171   0.23017   0.36002   0.00000  Uiso   1.00
H164   H     0.65071   0.08297   0.42163   0.00000  Uiso   1.00
H165   H     0.81041   0.08600   0.38804   0.00000  Uiso   1.00
H166   H     0.81037   0.32831   0.31663   0.00000  Uiso   1.00
H167   H     0.20082   0.35125   0.77988   0.00000  Uiso   1.00
H168   H     0.87091   0.02431   0.37571   0.00000  Uiso   1.00
H169   H     0.32002   0.36783   0.61699   0.00000  Uiso   1.00
H170   H     0.35159   0.46231   0.58428   0.00000  Uiso   1.00
H171   H     0.22059   0.31511   0.64590   0.00000  Uiso   1.00
H172   H     0.38029   0.31815   0.61230   0.00000  Uiso   1.00
H173   H     0.39848   0.57951   0.56144   0.00000  Uiso   1.00
H174   H     0.12226   0.26912   0.69136   0.00000  Uiso   1.00
H175   H     0.79235   0.94218   0.28719   0.00000  Uiso   1.00
O176   O     0.46017   0.68446   0.58605   0.00000  Uiso   1.00
O177   O     0.09779   0.27723   0.75650   0.00000  Uiso   1.00
O178   O     0.87294   0.95229   0.33023   0.00000  Uiso   1.00
N179   N     0.78756   0.29601   0.30028   0.00000  Uiso   1.00
N180   N     0.19598   0.33916   0.75508   0.00000  Uiso   1.00
N181   N     0.84414   0.01179   0.35553   0.00000  Uiso   1.00
N182   N     0.41195   0.58515   0.58598   0.00000  Uiso   1.00
N183   N     0.15371   0.29496   0.70744   0.00000  Uiso   1.00
N184   N     0.80187   0.96759   0.30789   0.00000  Uiso   1.00
C185   C     0.39075   0.44178   0.69670   0.00000  Uiso   1.00
C186   C     0.39792   0.48267   0.66767   0.00000  Uiso   1.00
C187   C     0.42749   0.54167   0.66980   0.00000  Uiso   1.00
C188   C     0.42910   0.57148   0.64039   0.00000  Uiso   1.00
C189   C     0.44432   0.63927   0.59995   0.00000  Uiso   1.00
C190   C     0.32674   0.40270   0.70115   0.00000  Uiso   1.00
C191   C     0.29647   0.39446   0.73142   0.00000  Uiso   1.00
C192   C     0.90483   0.69027   0.06353   0.00000  Uiso   1.00
C193   C     0.80955   0.63387   0.07506   0.00000  Uiso   1.00
C194   C     0.41351   0.40436   0.68290   0.00000  Uiso   1.00
C195   C     0.45619   0.39749   0.69783   0.00000  Uiso   1.00
C196   C     0.47093   0.36135   0.68123   0.00000  Uiso   1.00
C197   C     0.51038   0.30751   0.66443   0.00000  Uiso   1.00
C198   C     0.00771   0.72314   0.97402   0.00000  Uiso   1.00
C199   C     0.37092   0.45444   0.63725   0.00000  Uiso   1.00
C200   C     0.03916   0.81750   0.94116   0.00000  Uiso   1.00
C201   C     0.40206   0.54320   0.60991   0.00000  Uiso   1.00
C202   C     0.96641   0.70781   0.00406   0.00000  Uiso   1.00
C203   C     0.90814   0.67029   0.00278   0.00000  Uiso   1.00
C204   C     0.87778   0.66199   0.03304   0.00000  Uiso   1.00
C205   C     0.38652   0.37612   0.65247   0.00000  Uiso   1.00
C206   C     0.40119   0.33999   0.63585   0.00000  Uiso   1.00
C207   C     0.44388   0.33307   0.65075   0.00000  Uiso   1.00
H208   H     0.41177   0.46376   0.72039   0.00000  Uiso   1.00
H209   H     0.44837   0.56350   0.69335   0.00000  Uiso   1.00
H210   H     0.31738   0.41631   0.75497   0.00000  Uiso   1.00
H211   H     0.47707   0.41934   0.72137   0.00000  Uiso   1.00
H212   H     0.47703   0.66164   0.64996   0.00000  Uiso   1.00
H213   H     0.86749   0.68458   0.11321   0.00000  Uiso   1.00
H214   H     0.53758   0.35764   0.70905   0.00000  Uiso   1.00
H215   H     0.98668   0.70116   0.95033   0.00000  Uiso   1.00
H216   H     0.01826   0.79564   0.91761   0.00000  Uiso   1.00
H217   H     0.88726   0.64845   0.97923   0.00000  Uiso   1.00
H218   H     0.04696   0.65148   0.94564   0.00000  Uiso   1.00
H219   H     0.06515   0.91284   0.89477   0.00000  Uiso   1.00
H220   H     0.78893   0.60245   0.02469   0.00000  Uiso   1.00
H221   H     0.45902   0.27551   0.62052   0.00000  Uiso   1.00
O222   O     0.12683   0.01779   0.91938   0.00000  Uiso   1.00
O223   O     0.76445   0.61057   0.08983   0.00000  Uiso   1.00
O224   O     0.53960   0.28562   0.66356   0.00000  Uiso   1.00
N225   N     0.45422   0.62934   0.63362   0.00000  Uiso   1.00
N226   N     0.86264   0.67249   0.08841   0.00000  Uiso   1.00
N227   N     0.51080   0.34512   0.68886   0.00000  Uiso   1.00
N228   N     0.07862   0.91848   0.91931   0.00000  Uiso   1.00
N229   N     0.82037   0.62829   0.04078   0.00000  Uiso   1.00
N230   N     0.46854   0.30092   0.64122   0.00000  Uiso   1.00
C231   C     0.05742   0.77512   0.03003   0.00000  Uiso   1.00
C232   C     0.06459   0.81601   0.00101   0.00000  Uiso   1.00
C233   C     0.09416   0.87501   0.00313   0.00000  Uiso   1.00
C234   C     0.09577   0.90482   0.97372   0.00000  Uiso   1.00
C235   C     0.11099   0.97260   0.93328   0.00000  Uiso   1.00
C236   C     0.99341   0.73604   0.03448   0.00000  Uiso   1.00
C237   C     0.96313   0.72779   0.06476   0.00000  Uiso   1.00
C238   C     0.57150   0.02361   0.39686   0.00000  Uiso   1.00
C239   C     0.47622   0.96720   0.40840   0.00000  Uiso   1.00
C240   C     0.08018   0.73769   0.01623   0.00000  Uiso   1.00
C241   C     0.12286   0.73082   0.03116   0.00000  Uiso   1.00
C242   C     0.13760   0.69468   0.01457   0.00000  Uiso   1.00
C243   C     0.17705   0.64085   0.99776   0.00000  Uiso   1.00
C244   C     0.67437   0.05647   0.30735   0.00000  Uiso   1.00
C245   C     0.03758   0.78777   0.97058   0.00000  Uiso   1.00
C246   C     0.70582   0.15084   0.27449   0.00000  Uiso   1.00
C247   C     0.06872   0.87654   0.94324   0.00000  Uiso   1.00
C248   C     0.63307   0.04114   0.33739   0.00000  Uiso   1.00
C249   C     0.57480   0.00362   0.33611   0.00000  Uiso   1.00
C250   C     0.54445   0.99532   0.36638   0.00000  Uiso   1.00
C251   C     0.05318   0.70946   0.98580   0.00000  Uiso   1.00
C252   C     0.06786   0.67332   0.96918   0.00000  Uiso   1.00
C253   C     0.11055   0.66640   0.98409   0.00000  Uiso   1.00
H254   H     0.07843   0.79709   0.05372   0.00000  Uiso   1.00
H255   H     0.11504   0.89684   0.02669   0.00000  Uiso   1.00
H256   H     0.98404   0.74964   0.08830   0.00000  Uiso   1.00
H257   H     0.14374   0.75267   0.05471   0.00000  Uiso   1.00
H258   H     0.14370   0.99497   0.98330   0.00000  Uiso   1.00
H259   H     0.53415   0.01792   0.44655   0.00000  Uiso   1.00
H260   H     0.20424   0.69097   0.04238   0.00000  Uiso   1.00
H261   H     0.65335   0.03449   0.28366   0.00000  Uiso   1.00
H262   H     0.68492   0.12898   0.25095   0.00000  Uiso   1.00
H263   H     0.55392   0.98178   0.31256   0.00000  Uiso   1.00
H264   H     0.71362   0.98481   0.27897   0.00000  Uiso   1.00
H265   H     0.73181   0.24617   0.22810   0.00000  Uiso   1.00
H266   H     0.45560   0.93578   0.35802   0.00000  Uiso   1.00
H267   H     0.12569   0.60884   0.95385   0.00000  Uiso   1.00
O268   O     0.79350   0.35112   0.25272   0.00000  Uiso   1.00
O269   O     0.43112   0.94390   0.42317   0.00000  Uiso   1.00
O270   O     0.20627   0.61895   0.99690   0.00000  Uiso   1.00
N271   N     0.12089   0.96268   0.96695   0.00000  Uiso   1.00
N272   N     0.52931   0.00582   0.42175   0.00000  Uiso   1.00
N273   N     0.17747   0.67845   0.02219   0.00000  Uiso   1.00
N274   N     0.74529   0.25182   0.25265   0.00000  Uiso   1.00
N275   N     0.48704   0.96163   0.37411   0.00000  Uiso   1.00
N276   N     0.13520   0.63426   0.97456   0.00000  Uiso   1.00
C277   C     0.89155   0.61563   0.36337   0.00000  Uiso   1.00
C278   C     0.85066   0.58191   0.33434   0.00000  Uiso   1.00
C279   C     0.79166   0.55248   0.33647   0.00000  Uiso   1.00
C280   C     0.76185   0.52429   0.30706   0.00000  Uiso   1.00
C281   C     0.69406   0.47172   0.26662   0.00000  Uiso   1.00
C282   C     0.93063   0.59071   0.36781   0.00000  Uiso   1.00
C283   C     0.93888   0.56868   0.39809   0.00000  Uiso   1.00
C284   C     0.64306   0.88123   0.73019   0.00000  Uiso   1.00
C285   C     0.69946   0.84235   0.74173   0.00000  Uiso   1.00
C286   C     0.92898   0.67583   0.34956   0.00000  Uiso   1.00
C287   C     0.93585   0.72537   0.36450   0.00000  Uiso   1.00
C288   C     0.97199   0.77625   0.34790   0.00000  Uiso   1.00
C289   C     0.02582   0.86954   0.33110   0.00000  Uiso   1.00
C290   C     0.61019   0.95123   0.64068   0.00000  Uiso   1.00
C291   C     0.87889   0.58314   0.30391   0.00000  Uiso   1.00
C292   C     0.51583   0.88832   0.60782   0.00000  Uiso   1.00
C293   C     0.79013   0.52552   0.27657   0.00000  Uiso   1.00
C294   C     0.62553   0.92527   0.67072   0.00000  Uiso   1.00
C295   C     0.66305   0.90452   0.66945   0.00000  Uiso   1.00
C296   C     0.67134   0.88246   0.69971   0.00000  Uiso   1.00
C297   C     0.95721   0.67706   0.31913   0.00000  Uiso   1.00
C298   C     0.99335   0.72787   0.30252   0.00000  Uiso   1.00
C299   C     0.00027   0.77749   0.31742   0.00000  Uiso   1.00
H300   H     0.86957   0.61467   0.38706   0.00000  Uiso   1.00
H301   H     0.76983   0.55154   0.36002   0.00000  Uiso   1.00
H302   H     0.91703   0.56774   0.42163   0.00000  Uiso   1.00
H303   H     0.91400   0.72440   0.38804   0.00000  Uiso   1.00
H304   H     0.67169   0.48206   0.31663   0.00000  Uiso   1.00
H305   H     0.64875   0.84957   0.77988   0.00000  Uiso   1.00
H306   H     0.97569   0.84660   0.37571   0.00000  Uiso   1.00
H307   H     0.63217   0.95219   0.61699   0.00000  Uiso   1.00
H308   H     0.53769   0.88928   0.58428   0.00000  Uiso   1.00
H309   H     0.68489   0.90548   0.64590   0.00000  Uiso   1.00
H310   H     0.68185   0.06214   0.61230   0.00000  Uiso   1.00
H311   H     0.42049   0.81897   0.56144   0.00000  Uiso   1.00
H312   H     0.73088   0.85315   0.69136   0.00000  Uiso   1.00
H313   H     0.05782   0.85018   0.28719   0.00000  Uiso   1.00
O314   O     0.31554   0.77571   0.58605   0.00000  Uiso   1.00
O315   O     0.72277   0.82055   0.75650   0.00000  Uiso   1.00
O316   O     0.04771   0.92065   0.33023   0.00000  Uiso   1.00
N317   N     0.70399   0.49155   0.30028   0.00000  Uiso   1.00
N318   N     0.66084   0.85682   0.75508   0.00000  Uiso   1.00
N319   N     0.98821   0.83235   0.35553   0.00000  Uiso   1.00
N320   N     0.41485   0.82681   0.58598   0.00000  Uiso   1.00
N321   N     0.70504   0.85875   0.70744   0.00000  Uiso   1.00
N322   N     0.03241   0.83428   0.30789   0.00000  Uiso   1.00
C323   C     0.55822   0.94897   0.69670   0.00000  Uiso   1.00
C324   C     0.51733   0.91525   0.66767   0.00000  Uiso   1.00
C325   C     0.45833   0.88582   0.66980   0.00000  Uiso   1.00
C326   C     0.42852   0.85762   0.64039   0.00000  Uiso   1.00
C327   C     0.36073   0.80505   0.59995   0.00000  Uiso   1.00
C328   C     0.59730   0.92404   0.70115   0.00000  Uiso   1.00
C329   C     0.60554   0.90201   0.73142   0.00000  Uiso   1.00
C330   C     0.30973   0.21456   0.06353   0.00000  Uiso   1.00
C331   C     0.36613   0.17568   0.07506   0.00000  Uiso   1.00
C332   C     0.59564   0.00916   0.68290   0.00000  Uiso   1.00
C333   C     0.60251   0.05870   0.69783   0.00000  Uiso   1.00
C334   C     0.63865   0.10959   0.68123   0.00000  Uiso   1.00
C335   C     0.69249   0.20287   0.66443   0.00000  Uiso   1.00
C336   C     0.27686   0.28456   0.97402   0.00000  Uiso   1.00
C337   C     0.54556   0.91648   0.63725   0.00000  Uiso   1.00
C338   C     0.18250   0.22165   0.94116   0.00000  Uiso   1.00
C339   C     0.45680   0.85885   0.60991   0.00000  Uiso   1.00
C340   C     0.29219   0.25860   0.00406   0.00000  Uiso   1.00
C341   C     0.32971   0.23785   0.00278   0.00000  Uiso   1.00
C342   C     0.33801   0.21579   0.03304   0.00000  Uiso   1.00
C343   C     0.62388   0.01039   0.65247   0.00000  Uiso   1.00
C344   C     0.66001   0.06121   0.63585   0.00000  Uiso   1.00
C345   C     0.66693   0.11082   0.65075   0.00000  Uiso   1.00
H346   H     0.53624   0.94801   0.72039   0.00000  Uiso   1.00
H347   H     0.43650   0.88487   0.69335   0.00000  Uiso   1.00
H348   H     0.58369   0.90107   0.75497   0.00000  Uiso   1.00
H349   H     0.58066   0.05774   0.72137   0.00000  Uiso   1.00
H350   H     0.33836   0.81540   0.64996   0.00000  Uiso   1.00
H351   H     0.31542   0.18290   0.11321   0.00000  Uiso   1.00
H352   H     0.64236   0.17993   0.70905   0.00000  Uiso   1.00
H353   H     0.29884   0.28552   0.95033   0.00000  Uiso   1.00
H354   H     0.20436   0.22261   0.91761   0.00000  Uiso   1.00
H355   H     0.35155   0.23881   0.97923   0.00000  Uiso   1.00
H356   H     0.34852   0.39548   0.94564   0.00000  Uiso   1.00
H357   H     0.08716   0.15231   0.89477   0.00000  Uiso   1.00
H358   H     0.39755   0.18648   0.02469   0.00000  Uiso   1.00
H359   H     0.72449   0.18351   0.62052   0.00000  Uiso   1.00
O360   O     0.98221   0.10904   0.91938   0.00000  Uiso   1.00
O361   O     0.38943   0.15389   0.08983   0.00000  Uiso   1.00
O362   O     0.71438   0.25398   0.66356   0.00000  Uiso   1.00
N363   N     0.37066   0.82488   0.63362   0.00000  Uiso   1.00
N364   N     0.32751   0.19015   0.08841   0.00000  Uiso   1.00
N365   N     0.65488   0.16569   0.68886   0.00000  Uiso   1.00
N366   N     0.08152   0.16014   0.91931   0.00000  Uiso   1.00
N367   N     0.37171   0.19208   0.04078   0.00000  Uiso   1.00
N368   N     0.69908   0.16761   0.64122   0.00000  Uiso   1.00
C369   C     0.22488   0.28230   0.03003   0.00000  Uiso   1.00
C370   C     0.18399   0.24858   0.00101   0.00000  Uiso   1.00
C371   C     0.12499   0.21915   0.00313   0.00000  Uiso   1.00
C372   C     0.09518   0.19095   0.97372   0.00000  Uiso   1.00
C373   C     0.02740   0.13839   0.93328   0.00000  Uiso   1.00
C374   C     0.26396   0.25737   0.03448   0.00000  Uiso   1.00
C375   C     0.27221   0.23534   0.06476   0.00000  Uiso   1.00
C376   C     0.97639   0.54789   0.39686   0.00000  Uiso   1.00
C377   C     0.03280   0.50901   0.40840   0.00000  Uiso   1.00
C378   C     0.26231   0.34249   0.01623   0.00000  Uiso   1.00
C379   C     0.26918   0.39204   0.03116   0.00000  Uiso   1.00
C380   C     0.30532   0.44292   0.01457   0.00000  Uiso   1.00
C381   C     0.35915   0.53620   0.99776   0.00000  Uiso   1.00
C382   C     0.94353   0.61790   0.30735   0.00000  Uiso   1.00
C383   C     0.21223   0.24981   0.97058   0.00000  Uiso   1.00
C384   C     0.84916   0.55499   0.27449   0.00000  Uiso   1.00
C385   C     0.12346   0.19219   0.94324   0.00000  Uiso   1.00
C386   C     0.95886   0.59194   0.33739   0.00000  Uiso   1.00
C387   C     0.99638   0.57118   0.33611   0.00000  Uiso   1.00
C388   C     0.00468   0.54912   0.36638   0.00000  Uiso   1.00
C389   C     0.29054   0.34372   0.98580   0.00000  Uiso   1.00
C390   C     0.32668   0.39454   0.96918   0.00000  Uiso   1.00
C391   C     0.33360   0.44415   0.98409   0.00000  Uiso   1.00
H392   H     0.20291   0.28134   0.05372   0.00000  Uiso   1.00
H393   H     0.10316   0.21820   0.02669   0.00000  Uiso   1.00
H394   H     0.25036   0.23440   0.08830   0.00000  Uiso   1.00
H395   H     0.24733   0.39107   0.05471   0.00000  Uiso   1.00
H396   H     0.00503   0.14873   0.98330   0.00000  Uiso   1.00
H397   H     0.98208   0.51624   0.44655   0.00000  Uiso   1.00
H398   H     0.30903   0.51327   0.04238   0.00000  Uiso   1.00
H399   H     0.96551   0.61886   0.28366   0.00000  Uiso   1.00
H400   H     0.87102   0.55595   0.25095   0.00000  Uiso   1.00
H401   H     0.01822   0.57214   0.31256   0.00000  Uiso   1.00
H402   H     0.01519   0.72881   0.27897   0.00000  Uiso   1.00
H403   H     0.75383   0.48564   0.22810   0.00000  Uiso   1.00
H404   H     0.06422   0.51981   0.35802   0.00000  Uiso   1.00
H405   H     0.39116   0.51684   0.95385   0.00000  Uiso   1.00
O406   O     0.64888   0.44238   0.25272   0.00000  Uiso   1.00
O407   O     0.05610   0.48722   0.42317   0.00000  Uiso   1.00
O408   O     0.38105   0.58732   0.99690   0.00000  Uiso   1.00
N409   N     0.03732   0.15821   0.96695   0.00000  Uiso   1.00
N410   N     0.99418   0.52349   0.42175   0.00000  Uiso   1.00
N411   N     0.32155   0.49902   0.02219   0.00000  Uiso   1.00
N412   N     0.74818   0.49347   0.25265   0.00000  Uiso   1.00
N413   N     0.03837   0.52541   0.37411   0.00000  Uiso   1.00
N414   N     0.36574   0.50094   0.97456   0.00000  Uiso   1.00
C415   C     0.27592   0.38437   0.13663   0.00000  Uiso   1.00
C416   C     0.26875   0.41809   0.16566   0.00000  Uiso   1.00
C417   C     0.23918   0.44752   0.16353   0.00000  Uiso   1.00
C418   C     0.23756   0.47571   0.19294   0.00000  Uiso   1.00
C419   C     0.22235   0.52828   0.23338   0.00000  Uiso   1.00
C420   C     0.33992   0.40929   0.13219   0.00000  Uiso   1.00
C421   C     0.37020   0.43132   0.10191   0.00000  Uiso   1.00
C422   C     0.76183   0.11877   0.76981   0.00000  Uiso   1.00
C423   C     0.85712   0.15765   0.75827   0.00000  Uiso   1.00
C424   C     0.25315   0.32417   0.15044   0.00000  Uiso   1.00
C425   C     0.21048   0.27463   0.13550   0.00000  Uiso   1.00
C426   C     0.19573   0.22375   0.15210   0.00000  Uiso   1.00
C427   C     0.15629   0.13046   0.16890   0.00000  Uiso   1.00
C428   C     0.65896   0.04877   0.85932   0.00000  Uiso   1.00
C429   C     0.29575   0.41686   0.19609   0.00000  Uiso   1.00
C430   C     0.62751   0.11168   0.89218   0.00000  Uiso   1.00
C431   C     0.26461   0.47448   0.22343   0.00000  Uiso   1.00
C432   C     0.70026   0.07473   0.82928   0.00000  Uiso   1.00
C433   C     0.75853   0.09548   0.83055   0.00000  Uiso   1.00
C434   C     0.78889   0.11754   0.80029   0.00000  Uiso   1.00
C435   C     0.28015   0.32294   0.18087   0.00000  Uiso   1.00
C436   C     0.26547   0.27213   0.19748   0.00000  Uiso   1.00
C437   C     0.22278   0.22251   0.18258   0.00000  Uiso   1.00
H438   H     0.25490   0.38533   0.11294   0.00000  Uiso   1.00
H439   H     0.21829   0.44846   0.13998   0.00000  Uiso   1.00
H440   H     0.34929   0.43226   0.07837   0.00000  Uiso   1.00
H441   H     0.18959   0.27560   0.11196   0.00000  Uiso   1.00
H442   H     0.18963   0.51794   0.18337   0.00000  Uiso   1.00
H443   H     0.79918   0.15043   0.72012   0.00000  Uiso   1.00
H444   H     0.12909   0.15340   0.12429   0.00000  Uiso   1.00
H445   H     0.67998   0.04781   0.88301   0.00000  Uiso   1.00
H446   H     0.64841   0.11072   0.91572   0.00000  Uiso   1.00
H447   H     0.77941   0.09452   0.85410   0.00000  Uiso   1.00
H448   H     0.61971   0.93786   0.88770   0.00000  Uiso   1.00
H449   H     0.60152   0.18103   0.93856   0.00000  Uiso   1.00
H450   H     0.87774   0.14685   0.80864   0.00000  Uiso   1.00
H451   H     0.20765   0.14982   0.21281   0.00000  Uiso   1.00
O452   O     0.53983   0.22429   0.91395   0.00000  Uiso   1.00
O453   O     0.90221   0.17945   0.74350   0.00000  Uiso   1.00
O454   O     0.12706   0.07935   0.16977   0.00000  Uiso   1.00
N455   N     0.21244   0.50845   0.19972   0.00000  Uiso   1.00
N456   N     0.80402   0.14318   0.74492   0.00000  Uiso   1.00
N457   N     0.15586   0.16765   0.14447   0.00000  Uiso   1.00
N458   N     0.58805   0.17319   0.91402   0.00000  Uiso   1.00
N459   N     0.84629   0.14125   0.79256   0.00000  Uiso   1.00
N460   N     0.19813   0.16572   0.19211   0.00000  Uiso   1.00
C461   C     0.94258   0.71770   0.46997   0.00000  Uiso   1.00
C462   C     0.93541   0.75142   0.49899   0.00000  Uiso   1.00
C463   C     0.90584   0.78085   0.49687   0.00000  Uiso   1.00
C464   C     0.90423   0.80905   0.52628   0.00000  Uiso   1.00
C465   C     0.88901   0.86161   0.56672   0.00000  Uiso   1.00
C466   C     0.00659   0.74263   0.46552   0.00000  Uiso   1.00
C467   C     0.03687   0.76466   0.43524   0.00000  Uiso   1.00
C468   C     0.42850   0.45211   0.10314   0.00000  Uiso   1.00
C469   C     0.52378   0.49099   0.09160   0.00000  Uiso   1.00
C470   C     0.91982   0.65751   0.48377   0.00000  Uiso   1.00
C471   C     0.87714   0.60796   0.46884   0.00000  Uiso   1.00
C472   C     0.86240   0.55708   0.48543   0.00000  Uiso   1.00
C473   C     0.82295   0.46380   0.50224   0.00000  Uiso   1.00
C474   C     0.32563   0.38210   0.19265   0.00000  Uiso   1.00
C475   C     0.96242   0.75019   0.52942   0.00000  Uiso   1.00
C476   C     0.29418   0.44501   0.22551   0.00000  Uiso   1.00
C477   C     0.93128   0.80781   0.55676   0.00000  Uiso   1.00
C478   C     0.36693   0.40806   0.16261   0.00000  Uiso   1.00
C479   C     0.42520   0.42882   0.16389   0.00000  Uiso   1.00
C480   C     0.45555   0.45088   0.13362   0.00000  Uiso   1.00
C481   C     0.94682   0.65628   0.51420   0.00000  Uiso   1.00
C482   C     0.93214   0.60546   0.53082   0.00000  Uiso   1.00
C483   C     0.88945   0.55585   0.51591   0.00000  Uiso   1.00
H484   H     0.92157   0.71866   0.44628   0.00000  Uiso   1.00
H485   H     0.88496   0.78180   0.47331   0.00000  Uiso   1.00
H486   H     0.01596   0.76560   0.41170   0.00000  Uiso   1.00
H487   H     0.85626   0.60893   0.44529   0.00000  Uiso   1.00
H488   H     0.85630   0.85127   0.51670   0.00000  Uiso   1.00
H489   H     0.46585   0.48376   0.05345   0.00000  Uiso   1.00
H490   H     0.79576   0.48673   0.45762   0.00000  Uiso   1.00
H491   H     0.34665   0.38114   0.21634   0.00000  Uiso   1.00
H492   H     0.31508   0.44405   0.24905   0.00000  Uiso   1.00
H493   H     0.44608   0.42786   0.18744   0.00000  Uiso   1.00
H494   H     0.28638   0.27119   0.22103   0.00000  Uiso   1.00
H495   H     0.26819   0.51436   0.27190   0.00000  Uiso   1.00
H496   H     0.54440   0.48019   0.14198   0.00000  Uiso   1.00
H497   H     0.87431   0.48316   0.54615   0.00000  Uiso   1.00
O498   O     0.20650   0.55762   0.24728   0.00000  Uiso   1.00
O499   O     0.56888   0.51278   0.07683   0.00000  Uiso   1.00
O500   O     0.79373   0.41268   0.50310   0.00000  Uiso   1.00
N501   N     0.87911   0.84179   0.53305   0.00000  Uiso   1.00
N502   N     0.47069   0.47651   0.07825   0.00000  Uiso   1.00
N503   N     0.82253   0.50098   0.47781   0.00000  Uiso   1.00
N504   N     0.25471   0.50653   0.24735   0.00000  Uiso   1.00
N505   N     0.51296   0.47459   0.12589   0.00000  Uiso   1.00
N506   N     0.86480   0.49906   0.52544   0.00000  Uiso   1.00
C507   C     0.60925   0.05103   0.80330   0.00000  Uiso   1.00
C508   C     0.60208   0.08475   0.83233   0.00000  Uiso   1.00
C509   C     0.57251   0.11418   0.83020   0.00000  Uiso   1.00
C510   C     0.57090   0.14238   0.85961   0.00000  Uiso   1.00
C511   C     0.55568   0.19495   0.90005   0.00000  Uiso   1.00
C512   C     0.67326   0.07596   0.79885   0.00000  Uiso   1.00
C513   C     0.70353   0.09799   0.76858   0.00000  Uiso   1.00
C514   C     0.09517   0.78544   0.43647   0.00000  Uiso   1.00
C515   C     0.19045   0.82432   0.42494   0.00000  Uiso   1.00
C516   C     0.58649   0.99084   0.81710   0.00000  Uiso   1.00
C517   C     0.54381   0.94130   0.80217   0.00000  Uiso   1.00
C518   C     0.52907   0.89041   0.81877   0.00000  Uiso   1.00
C519   C     0.48962   0.79713   0.83557   0.00000  Uiso   1.00
C520   C     0.99229   0.71544   0.52598   0.00000  Uiso   1.00
C521   C     0.62908   0.08352   0.86275   0.00000  Uiso   1.00
C522   C     0.96084   0.77835   0.55884   0.00000  Uiso   1.00
C523   C     0.59794   0.14115   0.89009   0.00000  Uiso   1.00
C524   C     0.03359   0.74140   0.49594   0.00000  Uiso   1.00
C525   C     0.09186   0.76215   0.49722   0.00000  Uiso   1.00
C526   C     0.12222   0.78421   0.46696   0.00000  Uiso   1.00
C527   C     0.61348   0.98961   0.84753   0.00000  Uiso   1.00
C528   C     0.59881   0.93879   0.86415   0.00000  Uiso   1.00
C529   C     0.55612   0.88918   0.84925   0.00000  Uiso   1.00
H530   H     0.58823   0.05199   0.77961   0.00000  Uiso   1.00
H531   H     0.55163   0.11513   0.80665   0.00000  Uiso   1.00
H532   H     0.68262   0.09893   0.74503   0.00000  Uiso   1.00
H533   H     0.52293   0.94226   0.77863   0.00000  Uiso   1.00
H534   H     0.52297   0.18460   0.85004   0.00000  Uiso   1.00
H535   H     0.13251   0.81710   0.38679   0.00000  Uiso   1.00
H536   H     0.46242   0.82007   0.79095   0.00000  Uiso   1.00
H537   H     0.01332   0.71448   0.54967   0.00000  Uiso   1.00
H538   H     0.98174   0.77739   0.58239   0.00000  Uiso   1.00
H539   H     0.11274   0.76119   0.52077   0.00000  Uiso   1.00
H540   H     0.95304   0.60452   0.55436   0.00000  Uiso   1.00
H541   H     0.93485   0.84769   0.60523   0.00000  Uiso   1.00
H542   H     0.21107   0.81352   0.47531   0.00000  Uiso   1.00
H543   H     0.54098   0.81649   0.87948   0.00000  Uiso   1.00
O544   O     0.87317   0.89096   0.58062   0.00000  Uiso   1.00
O545   O     0.23555   0.84611   0.41017   0.00000  Uiso   1.00
O546   O     0.46040   0.74602   0.83644   0.00000  Uiso   1.00
N547   N     0.54578   0.17512   0.86638   0.00000  Uiso   1.00
N548   N     0.13736   0.80985   0.41159   0.00000  Uiso   1.00
N549   N     0.48920   0.83431   0.81114   0.00000  Uiso   1.00
N550   N     0.92138   0.83986   0.58069   0.00000  Uiso   1.00
N551   N     0.17963   0.80792   0.45922   0.00000  Uiso   1.00
N552   N     0.53146   0.83239   0.85878   0.00000  Uiso   1.00
C553   C     0.10845   0.72408   0.13663   0.00000  Uiso   1.00
C554   C     0.14934   0.73125   0.16566   0.00000  Uiso   1.00
C555   C     0.20834   0.76082   0.16353   0.00000  Uiso   1.00
C556   C     0.23815   0.76244   0.19294   0.00000  Uiso   1.00
C557   C     0.30594   0.77765   0.23338   0.00000  Uiso   1.00
C558   C     0.06937   0.66008   0.13219   0.00000  Uiso   1.00
C559   C     0.06112   0.62980   0.10191   0.00000  Uiso   1.00
C560   C     0.35694   0.23817   0.76981   0.00000  Uiso   1.00
C561   C     0.30054   0.14288   0.75827   0.00000  Uiso   1.00
C562   C     0.07102   0.74685   0.15044   0.00000  Uiso   1.00
C563   C     0.06415   0.78952   0.13550   0.00000  Uiso   1.00
C564   C     0.02801   0.80427   0.15210   0.00000  Uiso   1.00
C565   C     0.97418   0.84371   0.16890   0.00000  Uiso   1.00
C566   C     0.38981   0.34104   0.85932   0.00000  Uiso   1.00
C567   C     0.12111   0.70425   0.19609   0.00000  Uiso   1.00
C568   C     0.48417   0.37249   0.89218   0.00000  Uiso   1.00
C569   C     0.20987   0.73539   0.22343   0.00000  Uiso   1.00
C570   C     0.37447   0.29974   0.82928   0.00000  Uiso   1.00
C571   C     0.33695   0.24147   0.83055   0.00000  Uiso   1.00
C572   C     0.32866   0.21111   0.80029   0.00000  Uiso   1.00
C573   C     0.04279   0.71985   0.18087   0.00000  Uiso   1.00
C574   C     0.00665   0.73453   0.19748   0.00000  Uiso   1.00
C575   C     0.99973   0.77722   0.18258   0.00000  Uiso   1.00
H576   H     0.13043   0.74510   0.11294   0.00000  Uiso   1.00
H577   H     0.23017   0.78171   0.13998   0.00000  Uiso   1.00
H578   H     0.08297   0.65071   0.07837   0.00000  Uiso   1.00
H579   H     0.08600   0.81041   0.11196   0.00000  Uiso   1.00
H580   H     0.32831   0.81037   0.18337   0.00000  Uiso   1.00
H581   H     0.35125   0.20082   0.72012   0.00000  Uiso   1.00
H582   H     0.02431   0.87091   0.12429   0.00000  Uiso   1.00
H583   H     0.36783   0.32002   0.88301   0.00000  Uiso   1.00
H584   H     0.46231   0.35159   0.91572   0.00000  Uiso   1.00
H585   H     0.31511   0.22059   0.85410   0.00000  Uiso   1.00
H586   H     0.31815   0.38029   0.88770   0.00000  Uiso   1.00
H587   H     0.57951   0.39848   0.93856   0.00000  Uiso   1.00
H588   H     0.26912   0.12226   0.80864   0.00000  Uiso   1.00
H589   H     0.94218   0.79235   0.21281   0.00000  Uiso   1.00
O590   O     0.68446   0.46017   0.91395   0.00000  Uiso   1.00
O591   O     0.27723   0.09779   0.74350   0.00000  Uiso   1.00
O592   O     0.95229   0.87294   0.16977   0.00000  Uiso   1.00
N593   N     0.29601   0.78756   0.19972   0.00000  Uiso   1.00
N594   N     0.33916   0.19598   0.74492   0.00000  Uiso   1.00
N595   N     0.01179   0.84414   0.14447   0.00000  Uiso   1.00
N596   N     0.58515   0.41195   0.91402   0.00000  Uiso   1.00
N597   N     0.29496   0.15371   0.79256   0.00000  Uiso   1.00
N598   N     0.96759   0.80187   0.19211   0.00000  Uiso   1.00
C599   C     0.77512   0.05742   0.46997   0.00000  Uiso   1.00
C600   C     0.81601   0.06459   0.49899   0.00000  Uiso   1.00
C601   C     0.87501   0.09416   0.49687   0.00000  Uiso   1.00
C602   C     0.90482   0.09577   0.52628   0.00000  Uiso   1.00
C603   C     0.97260   0.11099   0.56672   0.00000  Uiso   1.00
C604   C     0.73604   0.99341   0.46552   0.00000  Uiso   1.00
C605   C     0.72779   0.96313   0.43524   0.00000  Uiso   1.00
C606   C     0.02361   0.57150   0.10314   0.00000  Uiso   1.00
C607   C     0.96720   0.47622   0.09160   0.00000  Uiso   1.00
C608   C     0.73769   0.08018   0.48377   0.00000  Uiso   1.00
C609   C     0.73082   0.12286   0.46884   0.00000  Uiso   1.00
C610   C     0.69468   0.13760   0.48543   0.00000  Uiso   1.00
C611   C     0.64085   0.17705   0.50224   0.00000  Uiso   1.00
C612   C     0.05647   0.67437   0.19265   0.00000  Uiso   1.00
C613   C     0.78777   0.03758   0.52942   0.00000  Uiso   1.00
C614   C     0.15084   0.70582   0.22551   0.00000  Uiso   1.00
C615   C     0.87654   0.06872   0.55676   0.00000  Uiso   1.00
C616   C     0.04114   0.63307   0.16261   0.00000  Uiso   1.00
C617   C     0.00362   0.57480   0.16389   0.00000  Uiso   1.00
C618   C     0.99532   0.54445   0.13362   0.00000  Uiso   1.00
C619   C     0.70946   0.05318   0.51420   0.00000  Uiso   1.00
C620   C     0.67332   0.06786   0.53082   0.00000  Uiso   1.00
C621   C     0.66640   0.11055   0.51591   0.00000  Uiso   1.00
H622   H     0.79709   0.07843   0.44628   0.00000  Uiso   1.00
H623   H     0.89684   0.11504   0.47331   0.00000  Uiso   1.00
H624   H     0.74964   0.98404   0.41170   0.00000  Uiso   1.00
H625   H     0.75267   0.14374   0.44529   0.00000  Uiso   1.00
H626   H     0.99497   0.14370   0.51670   0.00000  Uiso   1.00
H627   H     0.01792   0.53415   0.05345   0.00000  Uiso   1.00
H628   H     0.69097   0.20424   0.45762   0.00000  Uiso   1.00
H629   H     0.03449   0.65335   0.21634   0.00000  Uiso   1.00
H630   H     0.12898   0.68492   0.24905   0.00000  Uiso   1.00
H631   H     0.98178   0.55392   0.18744   0.00000  Uiso   1.00
H632   H     0.98481   0.71362   0.22103   0.00000  Uiso   1.00
H633   H     0.24617   0.73181   0.27190   0.00000  Uiso   1.00
H634   H     0.93578   0.45560   0.14198   0.00000  Uiso   1.00
H635   H     0.60884   0.12569   0.54615   0.00000  Uiso   1.00
O636   O     0.35112   0.79350   0.24728   0.00000  Uiso   1.00
O637   O     0.94390   0.43112   0.07683   0.00000  Uiso   1.00
O638   O     0.61895   0.20627   0.50310   0.00000  Uiso   1.00
N639   N     0.96268   0.12089   0.53305   0.00000  Uiso   1.00
N640   N     0.00582   0.52931   0.07825   0.00000  Uiso   1.00
N641   N     0.67845   0.17747   0.47781   0.00000  Uiso   1.00
N642   N     0.25182   0.74529   0.24735   0.00000  Uiso   1.00
N643   N     0.96163   0.48704   0.12589   0.00000  Uiso   1.00
N644   N     0.63426   0.13520   0.52544   0.00000  Uiso   1.00
C645   C     0.44178   0.39075   0.80330   0.00000  Uiso   1.00
C646   C     0.48267   0.39792   0.83233   0.00000  Uiso   1.00
C647   C     0.54167   0.42749   0.83020   0.00000  Uiso   1.00
C648   C     0.57148   0.42910   0.85961   0.00000  Uiso   1.00
C649   C     0.63927   0.44432   0.90005   0.00000  Uiso   1.00
C650   C     0.40270   0.32674   0.79885   0.00000  Uiso   1.00
C651   C     0.39446   0.29647   0.76858   0.00000  Uiso   1.00
C652   C     0.69027   0.90483   0.43647   0.00000  Uiso   1.00
C653   C     0.63387   0.80955   0.42494   0.00000  Uiso   1.00
C654   C     0.40436   0.41351   0.81710   0.00000  Uiso   1.00
C655   C     0.39749   0.45619   0.80217   0.00000  Uiso   1.00
C656   C     0.36135   0.47093   0.81877   0.00000  Uiso   1.00
C657   C     0.30751   0.51038   0.83557   0.00000  Uiso   1.00
C658   C     0.72314   0.00771   0.52598   0.00000  Uiso   1.00
C659   C     0.45444   0.37092   0.86275   0.00000  Uiso   1.00
C660   C     0.81750   0.03916   0.55884   0.00000  Uiso   1.00
C661   C     0.54320   0.40206   0.89009   0.00000  Uiso   1.00
C662   C     0.70781   0.96641   0.49594   0.00000  Uiso   1.00
C663   C     0.67029   0.90814   0.49722   0.00000  Uiso   1.00
C664   C     0.66199   0.87778   0.46696   0.00000  Uiso   1.00
C665   C     0.37612   0.38652   0.84753   0.00000  Uiso   1.00
C666   C     0.33999   0.40119   0.86415   0.00000  Uiso   1.00
C667   C     0.33307   0.44388   0.84925   0.00000  Uiso   1.00
H668   H     0.46376   0.41177   0.77961   0.00000  Uiso   1.00
H669   H     0.56350   0.44837   0.80665   0.00000  Uiso   1.00
H670   H     0.41631   0.31738   0.74503   0.00000  Uiso   1.00
H671   H     0.41934   0.47707   0.77863   0.00000  Uiso   1.00
H672   H     0.66164   0.47703   0.85004   0.00000  Uiso   1.00
H673   H     0.68458   0.86749   0.38679   0.00000  Uiso   1.00
H674   H     0.35764   0.53758   0.79095   0.00000  Uiso   1.00
H675   H     0.70116   0.98668   0.54967   0.00000  Uiso   1.00
H676   H     0.79564   0.01826   0.58239   0.00000  Uiso   1.00
H677   H     0.64845   0.88726   0.52077   0.00000  Uiso   1.00
H678   H     0.65148   0.04696   0.55436   0.00000  Uiso   1.00
H679   H     0.91284   0.06515   0.60523   0.00000  Uiso   1.00
H680   H     0.60245   0.78893   0.47531   0.00000  Uiso   1.00
H681   H     0.27551   0.45902   0.87948   0.00000  Uiso   1.00
O682   O     0.01779   0.12683   0.58062   0.00000  Uiso   1.00
O683   O     0.61057   0.76445   0.41017   0.00000  Uiso   1.00
O684   O     0.28562   0.53960   0.83644   0.00000  Uiso   1.00
N685   N     0.62934   0.45422   0.86638   0.00000  Uiso   1.00
N686   N     0.67249   0.86264   0.41159   0.00000  Uiso   1.00
N687   N     0.34512   0.51080   0.81114   0.00000  Uiso   1.00
N688   N     0.91848   0.07862   0.58069   0.00000  Uiso   1.00
N689   N     0.62829   0.82037   0.45922   0.00000  Uiso   1.00
N690   N     0.30092   0.46854   0.85878   0.00000  Uiso   1.00
C691   C     0.61563   0.89155   0.13663   0.00000  Uiso   1.00
C692   C     0.58191   0.85066   0.16566   0.00000  Uiso   1.00
C693   C     0.55248   0.79166   0.16353   0.00000  Uiso   1.00
C694   C     0.52429   0.76185   0.19294   0.00000  Uiso   1.00
C695   C     0.47172   0.69406   0.23338   0.00000  Uiso   1.00
C696   C     0.59071   0.93063   0.13219   0.00000  Uiso   1.00
C697   C     0.56868   0.93888   0.10191   0.00000  Uiso   1.00
C698   C     0.88123   0.64306   0.76981   0.00000  Uiso   1.00
C699   C     0.84235   0.69946   0.75827   0.00000  Uiso   1.00
C700   C     0.67583   0.92898   0.15044   0.00000  Uiso   1.00
C701   C     0.72537   0.93585   0.13550   0.00000  Uiso   1.00
C702   C     0.77625   0.97199   0.15210   0.00000  Uiso   1.00
C703   C     0.86954   0.02582   0.16890   0.00000  Uiso   1.00
C704   C     0.95123   0.61019   0.85932   0.00000  Uiso   1.00
C705   C     0.58314   0.87889   0.19609   0.00000  Uiso   1.00
C706   C     0.88832   0.51583   0.89218   0.00000  Uiso   1.00
C707   C     0.52552   0.79013   0.22343   0.00000  Uiso   1.00
C708   C     0.92527   0.62553   0.82928   0.00000  Uiso   1.00
C709   C     0.90452   0.66305   0.83055   0.00000  Uiso   1.00
C710   C     0.88246   0.67134   0.80029   0.00000  Uiso   1.00
C711   C     0.67706   0.95721   0.18087   0.00000  Uiso   1.00
C712   C     0.72787   0.99335   0.19748   0.00000  Uiso   1.00
C713   C     0.77749   0.00027   0.18258   0.00000  Uiso   1.00
H714   H     0.61467   0.86957   0.11294   0.00000  Uiso   1.00
H715   H     0.55154   0.76983   0.13998   0.00000  Uiso   1.00
H716   H     0.56774   0.91703   0.07837   0.00000  Uiso   1.00
H717   H     0.72440   0.91400   0.11196   0.00000  Uiso   1.00
H718   H     0.48206   0.67169   0.18337   0.00000  Uiso   1.00
H719   H     0.84957   0.64875   0.72012   0.00000  Uiso   1.00
H720   H     0.84660   0.97569   0.12429   0.00000  Uiso   1.00
H721   H     0.95219   0.63217   0.88301   0.00000  Uiso   1.00
H722   H     0.88928   0.53769   0.91572   0.00000  Uiso   1.00
H723   H     0.90548   0.68489   0.85410   0.00000  Uiso   1.00
H724   H     0.06214   0.68185   0.88770   0.00000  Uiso   1.00
H725   H     0.81897   0.42049   0.93856   0.00000  Uiso   1.00
H726   H     0.85315   0.73088   0.80864   0.00000  Uiso   1.00
H727   H     0.85018   0.05782   0.21281   0.00000  Uiso   1.00
O728   O     0.77571   0.31554   0.91395   0.00000  Uiso   1.00
O729   O     0.82055   0.72277   0.74350   0.00000  Uiso   1.00
O730   O     0.92065   0.04771   0.16977   0.00000  Uiso   1.00
N731   N     0.49155   0.70399   0.19972   0.00000  Uiso   1.00
N732   N     0.85682   0.66084   0.74492   0.00000  Uiso   1.00
N733   N     0.83235   0.98821   0.14447   0.00000  Uiso   1.00
N734   N     0.82681   0.41485   0.91402   0.00000  Uiso   1.00
N735   N     0.85875   0.70504   0.79256   0.00000  Uiso   1.00
N736   N     0.83428   0.03241   0.19211   0.00000  Uiso   1.00
C737   C     0.28230   0.22488   0.46997   0.00000  Uiso   1.00
C738   C     0.24858   0.18399   0.49899   0.00000  Uiso   1.00
C739   C     0.21915   0.12499   0.49687   0.00000  Uiso   1.00
C740   C     0.19095   0.09518   0.52628   0.00000  Uiso   1.00
C741   C     0.13839   0.02740   0.56672   0.00000  Uiso   1.00
C742   C     0.25737   0.26396   0.46552   0.00000  Uiso   1.00
C743   C     0.23534   0.27221   0.43524   0.00000  Uiso   1.00
C744   C     0.54789   0.97639   0.10314   0.00000  Uiso   1.00
C745   C     0.50901   0.03280   0.09160   0.00000  Uiso   1.00
C746   C     0.34249   0.26231   0.48377   0.00000  Uiso   1.00
C747   C     0.39204   0.26918   0.46884   0.00000  Uiso   1.00
C748   C     0.44292   0.30532   0.48543   0.00000  Uiso   1.00
C749   C     0.53620   0.35915   0.50224   0.00000  Uiso   1.00
C750   C     0.61790   0.94353   0.19265   0.00000  Uiso   1.00
C751   C     0.24981   0.21223   0.52942   0.00000  Uiso   1.00
C752   C     0.55499   0.84916   0.22551   0.00000  Uiso   1.00
C753   C     0.19219   0.12346   0.55676   0.00000  Uiso   1.00
C754   C     0.59194   0.95886   0.16261   0.00000  Uiso   1.00
C755   C     0.57118   0.99638   0.16389   0.00000  Uiso   1.00
C756   C     0.54912   0.00468   0.13362   0.00000  Uiso   1.00
C757   C     0.34372   0.29054   0.51420   0.00000  Uiso   1.00
C758   C     0.39454   0.32668   0.53082   0.00000  Uiso   1.00
C759   C     0.44415   0.33360   0.51591   0.00000  Uiso   1.00
H760   H     0.28134   0.20291   0.44628   0.00000  Uiso   1.00
H761   H     0.21820   0.10316   0.47331   0.00000  Uiso   1.00
H762   H     0.23440   0.25036   0.41170   0.00000  Uiso   1.00
H763   H     0.39107   0.24733   0.44529   0.00000  Uiso   1.00
H764   H     0.14873   0.00503   0.51670   0.00000  Uiso   1.00
H765   H     0.51624   0.98208   0.05345   0.00000  Uiso   1.00
H766   H     0.51327   0.30903   0.45762   0.00000  Uiso   1.00
H767   H     0.61886   0.96551   0.21634   0.00000  Uiso   1.00
H768   H     0.55595   0.87102   0.24905   0.00000  Uiso   1.00
H769   H     0.57214   0.01822   0.18744   0.00000  Uiso   1.00
H770   H     0.72881   0.01519   0.22103   0.00000  Uiso   1.00
H771   H     0.48564   0.75383   0.27190   0.00000  Uiso   1.00
H772   H     0.51981   0.06422   0.14198   0.00000  Uiso   1.00
H773   H     0.51684   0.39116   0.54615   0.00000  Uiso   1.00
O774   O     0.44238   0.64888   0.24728   0.00000  Uiso   1.00
O775   O     0.48722   0.05610   0.07683   0.00000  Uiso   1.00
O776   O     0.58732   0.38105   0.50310   0.00000  Uiso   1.00
N777   N     0.15821   0.03732   0.53305   0.00000  Uiso   1.00
N778   N     0.52349   0.99418   0.07825   0.00000  Uiso   1.00
N779   N     0.49902   0.32155   0.47781   0.00000  Uiso   1.00
N780   N     0.49347   0.74818   0.24735   0.00000  Uiso   1.00
N781   N     0.52541   0.03837   0.12589   0.00000  Uiso   1.00
N782   N     0.50094   0.36574   0.52544   0.00000  Uiso   1.00
C783   C     0.94897   0.55822   0.80330   0.00000  Uiso   1.00
C784   C     0.91525   0.51733   0.83233   0.00000  Uiso   1.00
C785   C     0.88582   0.45833   0.83020   0.00000  Uiso   1.00
C786   C     0.85762   0.42852   0.85961   0.00000  Uiso   1.00
C787   C     0.80505   0.36073   0.90005   0.00000  Uiso   1.00
C788   C     0.92404   0.59730   0.79885   0.00000  Uiso   1.00
C789   C     0.90201   0.60554   0.76858   0.00000  Uiso   1.00
C790   C     0.21456   0.30973   0.43647   0.00000  Uiso   1.00
C791   C     0.17568   0.36613   0.42494   0.00000  Uiso   1.00
C792   C     0.00916   0.59564   0.81710   0.00000  Uiso   1.00
C793   C     0.05870   0.60251   0.80217   0.00000  Uiso   1.00
C794   C     0.10959   0.63865   0.81877   0.00000  Uiso   1.00
C795   C     0.20287   0.69249   0.83557   0.00000  Uiso   1.00
C796   C     0.28456   0.27686   0.52598   0.00000  Uiso   1.00
C797   C     0.91648   0.54556   0.86275   0.00000  Uiso   1.00
C798   C     0.22165   0.18250   0.55884   0.00000  Uiso   1.00
C799   C     0.85885   0.45680   0.89009   0.00000  Uiso   1.00
C800   C     0.25860   0.29219   0.49594   0.00000  Uiso   1.00
C801   C     0.23785   0.32971   0.49722   0.00000  Uiso   1.00
C802   C     0.21579   0.33801   0.46696   0.00000  Uiso   1.00
C803   C     0.01039   0.62388   0.84753   0.00000  Uiso   1.00
C804   C     0.06121   0.66001   0.86415   0.00000  Uiso   1.00
C805   C     0.11082   0.66693   0.84925   0.00000  Uiso   1.00
H806   H     0.94801   0.53624   0.77961   0.00000  Uiso   1.00
H807   H     0.88487   0.43650   0.80665   0.00000  Uiso   1.00
H808   H     0.90107   0.58369   0.74503   0.00000  Uiso   1.00
H809   H     0.05774   0.58066   0.77863   0.00000  Uiso   1.00
H810   H     0.81540   0.33836   0.85004   0.00000  Uiso   1.00
H811   H     0.18290   0.31542   0.38679   0.00000  Uiso   1.00
H812   H     0.17993   0.64236   0.79095   0.00000  Uiso   1.00
H813   H     0.28552   0.29884   0.54967   0.00000  Uiso   1.00
H814   H     0.22261   0.20436   0.58239   0.00000  Uiso   1.00
H815   H     0.23881   0.35155   0.52077   0.00000  Uiso   1.00
H816   H     0.39548   0.34852   0.55436   0.00000  Uiso   1.00
H817   H     0.15231   0.08716   0.60523   0.00000  Uiso   1.00
H818   H     0.18648   0.39755   0.47531   0.00000  Uiso   1.00
H819   H     0.18351   0.72449   0.87948   0.00000  Uiso   1.00
O820   O     0.10904   0.98221   0.58062   0.00000  Uiso   1.00
O821   O     0.15389   0.38943   0.41017   0.00000  Uiso   1.00
O822   O     0.25398   0.71438   0.83644   0.00000  Uiso   1.00
N823   N     0.82488   0.37066   0.86638   0.00000  Uiso   1.00
N824   N     0.19015   0.32751   0.41159   0.00000  Uiso   1.00
N825   N     0.16569   0.65488   0.81114   0.00000  Uiso   1.00
N826   N     0.16014   0.08152   0.58069   0.00000  Uiso   1.00
N827   N     0.19208   0.37171   0.45922   0.00000  Uiso   1.00
N828   N     0.16761   0.69908   0.85878   0.00000  Uiso   1.00
C829   C     0.61563   0.72408   0.63663   0.00000  Uiso   1.00
C830   C     0.58191   0.73125   0.66566   0.00000  Uiso   1.00
C831   C     0.55248   0.76082   0.66353   0.00000  Uiso   1.00
C832   C     0.52429   0.76244   0.69294   0.00000  Uiso   1.00
C833   C     0.47172   0.77765   0.73338   0.00000  Uiso   1.00
C834   C     0.59071   0.66008   0.63219   0.00000  Uiso   1.00
C835   C     0.56868   0.62980   0.60191   0.00000  Uiso   1.00
C836   C     0.88123   0.23817   0.26981   0.00000  Uiso   1.00
C837   C     0.84235   0.14288   0.25827   0.00000  Uiso   1.00
C838   C     0.67583   0.74685   0.65044   0.00000  Uiso   1.00
C839   C     0.72537   0.78952   0.63550   0.00000  Uiso   1.00
C840   C     0.77625   0.80427   0.65210   0.00000  Uiso   1.00
C841   C     0.86954   0.84371   0.66890   0.00000  Uiso   1.00
C842   C     0.95123   0.34104   0.35932   0.00000  Uiso   1.00
C843   C     0.58314   0.70425   0.69609   0.00000  Uiso   1.00
C844   C     0.88832   0.37249   0.39218   0.00000  Uiso   1.00
C845   C     0.52552   0.73539   0.72343   0.00000  Uiso   1.00
C846   C     0.92527   0.29974   0.32928   0.00000  Uiso   1.00
C847   C     0.90452   0.24147   0.33055   0.00000  Uiso   1.00
C848   C     0.88246   0.21111   0.30029   0.00000  Uiso   1.00
C849   C     0.67706   0.71985   0.68087   0.00000  Uiso   1.00
C850   C     0.72787   0.73453   0.69748   0.00000  Uiso   1.00
C851   C     0.77749   0.77722   0.68258   0.00000  Uiso   1.00
H852   H     0.61467   0.74510   0.61294   0.00000  Uiso   1.00
H853   H     0.55154   0.78171   0.63998   0.00000  Uiso   1.00
H854   H     0.56774   0.65071   0.57837   0.00000  Uiso   1.00
H855   H     0.72440   0.81041   0.61196   0.00000  Uiso   1.00
H856   H     0.48206   0.81037   0.68337   0.00000  Uiso   1.00
H857   H     0.84957   0.20082   0.22012   0.00000  Uiso   1.00
H858   H     0.84660   0.87091   0.62429   0.00000  Uiso   1.00
H859   H     0.95219   0.32002   0.38301   0.00000  Uiso   1.00
H860   H     0.88928   0.35159   0.41572   0.00000  Uiso   1.00
H861   H     0.90548   0.22059   0.35410   0.00000  Uiso   1.00
H862   H     0.06214   0.38029   0.38770   0.00000  Uiso   1.00
H863   H     0.81897   0.39848   0.43856   0.00000  Uiso   1.00
H864   H     0.85315   0.12226   0.30864   0.00000  Uiso   1.00
H865   H     0.85018   0.79235   0.71281   0.00000  Uiso   1.00
O866   O     0.77571   0.46017   0.41395   0.00000  Uiso   1.00
O867   O     0.82055   0.09779   0.24350   0.00000  Uiso   1.00
O868   O     0.92065   0.87294   0.66977   0.00000  Uiso   1.00
N869   N     0.49155   0.78756   0.69972   0.00000  Uiso   1.00
N870   N     0.85682   0.19598   0.24492   0.00000  Uiso   1.00
N871   N     0.83235   0.84414   0.64447   0.00000  Uiso   1.00
N872   N     0.82681   0.41195   0.41402   0.00000  Uiso   1.00
N873   N     0.85875   0.15371   0.29256   0.00000  Uiso   1.00
N874   N     0.83428   0.80187   0.69211   0.00000  Uiso   1.00
C875   C     0.28230   0.05742   0.96997   0.00000  Uiso   1.00
C876   C     0.24858   0.06459   0.99899   0.00000  Uiso   1.00
C877   C     0.21915   0.09416   0.99687   0.00000  Uiso   1.00
C878   C     0.19095   0.09577   0.02628   0.00000  Uiso   1.00
C879   C     0.13839   0.11099   0.06672   0.00000  Uiso   1.00
C880   C     0.25737   0.99341   0.96552   0.00000  Uiso   1.00
C881   C     0.23534   0.96313   0.93524   0.00000  Uiso   1.00
C882   C     0.54789   0.57150   0.60314   0.00000  Uiso   1.00
C883   C     0.50901   0.47622   0.59160   0.00000  Uiso   1.00
C884   C     0.34249   0.08018   0.98377   0.00000  Uiso   1.00
C885   C     0.39204   0.12286   0.96884   0.00000  Uiso   1.00
C886   C     0.44292   0.13760   0.98543   0.00000  Uiso   1.00
C887   C     0.53620   0.17705   0.00224   0.00000  Uiso   1.00
C888   C     0.61790   0.67437   0.69265   0.00000  Uiso   1.00
C889   C     0.24981   0.03758   0.02942   0.00000  Uiso   1.00
C890   C     0.55499   0.70582   0.72551   0.00000  Uiso   1.00
C891   C     0.19219   0.06872   0.05676   0.00000  Uiso   1.00
C892   C     0.59194   0.63307   0.66261   0.00000  Uiso   1.00
C893   C     0.57118   0.57480   0.66389   0.00000  Uiso   1.00
C894   C     0.54912   0.54445   0.63362   0.00000  Uiso   1.00
C895   C     0.34372   0.05318   0.01420   0.00000  Uiso   1.00
C896   C     0.39454   0.06786   0.03082   0.00000  Uiso   1.00
C897   C     0.44415   0.11055   0.01591   0.00000  Uiso   1.00
H898   H     0.28134   0.07843   0.94628   0.00000  Uiso   1.00
H899   H     0.21820   0.11504   0.97331   0.00000  Uiso   1.00
H900   H     0.23440   0.98404   0.91170   0.00000  Uiso   1.00
H901   H     0.39107   0.14374   0.94529   0.00000  Uiso   1.00
H902   H     0.14873   0.14370   0.01670   0.00000  Uiso   1.00
H903   H     0.51624   0.53415   0.55345   0.00000  Uiso   1.00
H904   H     0.51327   0.20424   0.95762   0.00000  Uiso   1.00
H905   H     0.61886   0.65335   0.71634   0.00000  Uiso   1.00
H906   H     0.55595   0.68492   0.74905   0.00000  Uiso   1.00
H907   H     0.57214   0.55392   0.68744   0.00000  Uiso   1.00
H908   H     0.72881   0.71362   0.72103   0.00000  Uiso   1.00
H909   H     0.48564   0.73181   0.77190   0.00000  Uiso   1.00
H910   H     0.51981   0.45560   0.64198   0.00000  Uiso   1.00
H911   H     0.51684   0.12569   0.04615   0.00000  Uiso   1.00
O912   O     0.44238   0.79350   0.74728   0.00000  Uiso   1.00
O913   O     0.48722   0.43112   0.57683   0.00000  Uiso   1.00
O914   O     0.58732   0.20627   0.00310   0.00000  Uiso   1.00
N915   N     0.15821   0.12089   0.03305   0.00000  Uiso   1.00
N916   N     0.52349   0.52931   0.57825   0.00000  Uiso   1.00
N917   N     0.49902   0.17747   0.97781   0.00000  Uiso   1.00
N918   N     0.49347   0.74529   0.74735   0.00000  Uiso   1.00
N919   N     0.52541   0.48704   0.62589   0.00000  Uiso   1.00
N920   N     0.50094   0.13520   0.02544   0.00000  Uiso   1.00
C921   C     0.94897   0.39075   0.30330   0.00000  Uiso   1.00
C922   C     0.91525   0.39792   0.33233   0.00000  Uiso   1.00
C923   C     0.88582   0.42749   0.33020   0.00000  Uiso   1.00
C924   C     0.85762   0.42910   0.35961   0.00000  Uiso   1.00
C925   C     0.80505   0.44432   0.40005   0.00000  Uiso   1.00
C926   C     0.92404   0.32674   0.29885   0.00000  Uiso   1.00
C927   C     0.90201   0.29647   0.26858   0.00000  Uiso   1.00
C928   C     0.21456   0.90483   0.93647   0.00000  Uiso   1.00
C929   C     0.17568   0.80955   0.92494   0.00000  Uiso   1.00
C930   C     0.00916   0.41351   0.31710   0.00000  Uiso   1.00
C931   C     0.05870   0.45619   0.30217   0.00000  Uiso   1.00
C932   C     0.10959   0.47093   0.31877   0.00000  Uiso   1.00
C933   C     0.20287   0.51038   0.33557   0.00000  Uiso   1.00
C934   C     0.28456   0.00771   0.02598   0.00000  Uiso   1.00
C935   C     0.91648   0.37092   0.36275   0.00000  Uiso   1.00
C936   C     0.22165   0.03916   0.05884   0.00000  Uiso   1.00
C937   C     0.85885   0.40206   0.39009   0.00000  Uiso   1.00
C938   C     0.25860   0.96641   0.99594   0.00000  Uiso   1.00
C939   C     0.23785   0.90814   0.99722   0.00000  Uiso   1.00
C940   C     0.21579   0.87778   0.96696   0.00000  Uiso   1.00
C941   C     0.01039   0.38652   0.34753   0.00000  Uiso   1.00
C942   C     0.06121   0.40119   0.36415   0.00000  Uiso   1.00
C943   C     0.11082   0.44388   0.34925   0.00000  Uiso   1.00
H944   H     0.94801   0.41177   0.27961   0.00000  Uiso   1.00
H945   H     0.88487   0.44837   0.30665   0.00000  Uiso   1.00
H946   H     0.90107   0.31738   0.24503   0.00000  Uiso   1.00
H947   H     0.05774   0.47707   0.27863   0.00000  Uiso   1.00
H948   H     0.81540   0.47703   0.35004   0.00000  Uiso   1.00
H949   H     0.18290   0.86749   0.88679   0.00000  Uiso   1.00
H950   H     0.17993   0.53758   0.29095   0.00000  Uiso   1.00
H951   H     0.28552   0.98668   0.04967   0.00000  Uiso   1.00
H952   H     0.22261   0.01826   0.08239   0.00000  Uiso   1.00
H953   H     0.23881   0.88726   0.02077   0.00000  Uiso   1.00
H954   H     0.39548   0.04696   0.05436   0.00000  Uiso   1.00
H955   H     0.15231   0.06515   0.10523   0.00000  Uiso   1.00
H956   H     0.18648   0.78893   0.97531   0.00000  Uiso   1.00
H957   H     0.18351   0.45902   0.37948   0.00000  Uiso   1.00
O958   O     0.10904   0.12683   0.08062   0.00000  Uiso   1.00
O959   O     0.15389   0.76445   0.91017   0.00000  Uiso   1.00
O960   O     0.25398   0.53960   0.33644   0.00000  Uiso   1.00
N961   N     0.82488   0.45422   0.36638   0.00000  Uiso   1.00
N962   N     0.19015   0.86264   0.91159   0.00000  Uiso   1.00
N963   N     0.16569   0.51080   0.31114   0.00000  Uiso   1.00
N964   N     0.16014   0.07862   0.08069   0.00000  Uiso   1.00
N965   N     0.19208   0.82037   0.95922   0.00000  Uiso   1.00
N966   N     0.16761   0.46854   0.35878   0.00000  Uiso   1.00
C967   C     0.27592   0.89155   0.63663   0.00000  Uiso   1.00
C968   C     0.26875   0.85066   0.66566   0.00000  Uiso   1.00
C969   C     0.23918   0.79166   0.66353   0.00000  Uiso   1.00
C970   C     0.23756   0.76185   0.69294   0.00000  Uiso   1.00
C971   C     0.22235   0.69406   0.73338   0.00000  Uiso   1.00
C972   C     0.33992   0.93063   0.63219   0.00000  Uiso   1.00
C973   C     0.37020   0.93888   0.60191   0.00000  Uiso   1.00
C974   C     0.76183   0.64306   0.26981   0.00000  Uiso   1.00
C975   C     0.85712   0.69946   0.25827   0.00000  Uiso   1.00
C976   C     0.25315   0.92898   0.65044   0.00000  Uiso   1.00
C977   C     0.21048   0.93585   0.63550   0.00000  Uiso   1.00
C978   C     0.19573   0.97199   0.65210   0.00000  Uiso   1.00
C979   C     0.15629   0.02582   0.66890   0.00000  Uiso   1.00
C980   C     0.65896   0.61019   0.35932   0.00000  Uiso   1.00
C981   C     0.29575   0.87889   0.69609   0.00000  Uiso   1.00
C982   C     0.62751   0.51583   0.39218   0.00000  Uiso   1.00
C983   C     0.26461   0.79013   0.72343   0.00000  Uiso   1.00
C984   C     0.70026   0.62553   0.32928   0.00000  Uiso   1.00
C985   C     0.75853   0.66305   0.33055   0.00000  Uiso   1.00
C986   C     0.78889   0.67134   0.30029   0.00000  Uiso   1.00
C987   C     0.28015   0.95721   0.68087   0.00000  Uiso   1.00
C988   C     0.26547   0.99335   0.69748   0.00000  Uiso   1.00
C989   C     0.22278   0.00027   0.68258   0.00000  Uiso   1.00
H990   H     0.25490   0.86957   0.61294   0.00000  Uiso   1.00
H991   H     0.21829   0.76983   0.63998   0.00000  Uiso   1.00
H992   H     0.34929   0.91703   0.57837   0.00000  Uiso   1.00
H993   H     0.18959   0.91400   0.61196   0.00000  Uiso   1.00
H994   H     0.18963   0.67169   0.68337   0.00000  Uiso   1.00
H995   H     0.79918   0.64875   0.22012   0.00000  Uiso   1.00
H996   H     0.12909   0.97569   0.62429   0.00000  Uiso   1.00
H997   H     0.67998   0.63217   0.38301   0.00000  Uiso   1.00
H998   H     0.64841   0.53769   0.41572   0.00000  Uiso   1.00
H999   H     0.77941   0.68489   0.35410   0.00000  Uiso   1.00
H1000  H     0.61971   0.68185   0.38770   0.00000  Uiso   1.00
H1001  H     0.60152   0.42049   0.43856   0.00000  Uiso   1.00
H1002  H     0.87774   0.73088   0.30864   0.00000  Uiso   1.00
H1003  H     0.20765   0.05782   0.71281   0.00000  Uiso   1.00
O1004  O     0.53983   0.31554   0.41395   0.00000  Uiso   1.00
O1005  O     0.90221   0.72277   0.24350   0.00000  Uiso   1.00
O1006  O     0.12706   0.04771   0.66977   0.00000  Uiso   1.00
N1007  N     0.21244   0.70399   0.69972   0.00000  Uiso   1.00
N1008  N     0.80402   0.66084   0.24492   0.00000  Uiso   1.00
N1009  N     0.15586   0.98821   0.64447   0.00000  Uiso   1.00
N1010  N     0.58805   0.41485   0.41402   0.00000  Uiso   1.00
N1011  N     0.84629   0.70504   0.29256   0.00000  Uiso   1.00
N1012  N     0.19813   0.03241   0.69211   0.00000  Uiso   1.00
C1013  C     0.94258   0.22488   0.96997   0.00000  Uiso   1.00
C1014  C     0.93541   0.18399   0.99899   0.00000  Uiso   1.00
C1015  C     0.90584   0.12499   0.99687   0.00000  Uiso   1.00
C1016  C     0.90423   0.09518   0.02628   0.00000  Uiso   1.00
C1017  C     0.88901   0.02740   0.06672   0.00000  Uiso   1.00
C1018  C     0.00659   0.26396   0.96552   0.00000  Uiso   1.00
C1019  C     0.03687   0.27221   0.93524   0.00000  Uiso   1.00
C1020  C     0.42850   0.97639   0.60314   0.00000  Uiso   1.00
C1021  C     0.52378   0.03280   0.59160   0.00000  Uiso   1.00
C1022  C     0.91982   0.26231   0.98377   0.00000  Uiso   1.00
C1023  C     0.87714   0.26918   0.96884   0.00000  Uiso   1.00
C1024  C     0.86240   0.30532   0.98543   0.00000  Uiso   1.00
C1025  C     0.82295   0.35915   0.00224   0.00000  Uiso   1.00
C1026  C     0.32563   0.94353   0.69265   0.00000  Uiso   1.00
C1027  C     0.96242   0.21223   0.02942   0.00000  Uiso   1.00
C1028  C     0.29418   0.84916   0.72551   0.00000  Uiso   1.00
C1029  C     0.93128   0.12346   0.05676   0.00000  Uiso   1.00
C1030  C     0.36693   0.95886   0.66261   0.00000  Uiso   1.00
C1031  C     0.42520   0.99638   0.66389   0.00000  Uiso   1.00
C1032  C     0.45555   0.00468   0.63362   0.00000  Uiso   1.00
C1033  C     0.94682   0.29054   0.01420   0.00000  Uiso   1.00
C1034  C     0.93214   0.32668   0.03082   0.00000  Uiso   1.00
C1035  C     0.88945   0.33360   0.01591   0.00000  Uiso   1.00
H1036  H     0.92157   0.20291   0.94628   0.00000  Uiso   1.00
H1037  H     0.88496   0.10316   0.97331   0.00000  Uiso   1.00
H1038  H     0.01596   0.25036   0.91170   0.00000  Uiso   1.00
H1039  H     0.85626   0.24733   0.94529   0.00000  Uiso   1.00
H1040  H     0.85630   0.00503   0.01670   0.00000  Uiso   1.00
H1041  H     0.46585   0.98208   0.55345   0.00000  Uiso   1.00
H1042  H     0.79576   0.30903   0.95762   0.00000  Uiso   1.00
H1043  H     0.34665   0.96551   0.71634   0.00000  Uiso   1.00
H1044  H     0.31508   0.87102   0.74905   0.00000  Uiso   1.00
H1045  H     0.44608   0.01822   0.68744   0.00000  Uiso   1.00
H1046  H     0.28638   0.01519   0.72103   0.00000  Uiso   1.00
H1047  H     0.26819   0.75383   0.77190   0.00000  Uiso   1.00
H1048  H     0.54440   0.06422   0.64198   0.00000  Uiso   1.00
H1049  H     0.87431   0.39116   0.04615   0.00000  Uiso   1.00
O1050  O     0.20650   0.64888   0.74728   0.00000  Uiso   1.00
O1051  O     0.56888   0.05610   0.57683   0.00000  Uiso   1.00
O1052  O     0.79373   0.38105   0.00310   0.00000  Uiso   1.00
N1053  N     0.87911   0.03732   0.03305   0.00000  Uiso   1.00
N1054  N     0.47069   0.99418   0.57825   0.00000  Uiso   1.00
N1055  N     0.82253   0.32155   0.97781   0.00000  Uiso   1.00
N1056  N     0.25471   0.74818   0.74735   0.00000  Uiso   1.00
N1057  N     0.51296   0.03837   0.62589   0.00000  Uiso   1.00
N1058  N     0.86480   0.36574   0.02544   0.00000  Uiso   1.00
C1059  C     0.60925   0.55822   0.30330   0.00000  Uiso   1.00
C1060  C     0.60208   0.51733   0.33233   0.00000  Uiso   1.00
C1061  C     0.57251   0.45833   0.33020   0.00000  Uiso   1.00
C1062  C     0.57090   0.42852   0.35961   0.00000  Uiso   1.00
C1063  C     0.55568   0.36073   0.40005   0.00000  Uiso   1.00
C1064  C     0.67326   0.59730   0.29885   0.00000  Uiso   1.00
C1065  C     0.70353   0.60554   0.26858   0.00000  Uiso   1.00
C1066  C     0.09517   0.30973   0.93647   0.00000  Uiso   1.00
C1067  C     0.19045   0.36613   0.92494   0.00000  Uiso   1.00
C1068  C     0.58649   0.59564   0.31710   0.00000  Uiso   1.00
C1069  C     0.54381   0.60251   0.30217   0.00000  Uiso   1.00
C1070  C     0.52907   0.63865   0.31877   0.00000  Uiso   1.00
C1071  C     0.48962   0.69249   0.33557   0.00000  Uiso   1.00
C1072  C     0.99229   0.27686   0.02598   0.00000  Uiso   1.00
C1073  C     0.62908   0.54556   0.36275   0.00000  Uiso   1.00
C1074  C     0.96084   0.18250   0.05884   0.00000  Uiso   1.00
C1075  C     0.59794   0.45680   0.39009   0.00000  Uiso   1.00
C1076  C     0.03359   0.29219   0.99594   0.00000  Uiso   1.00
C1077  C     0.09186   0.32971   0.99722   0.00000  Uiso   1.00
C1078  C     0.12222   0.33801   0.96696   0.00000  Uiso   1.00
C1079  C     0.61348   0.62388   0.34753   0.00000  Uiso   1.00
C1080  C     0.59881   0.66001   0.36415   0.00000  Uiso   1.00
C1081  C     0.55612   0.66693   0.34925   0.00000  Uiso   1.00
H1082  H     0.58823   0.53624   0.27961   0.00000  Uiso   1.00
H1083  H     0.55163   0.43650   0.30665   0.00000  Uiso   1.00
H1084  H     0.68262   0.58369   0.24503   0.00000  Uiso   1.00
H1085  H     0.52293   0.58066   0.27863   0.00000  Uiso   1.00
H1086  H     0.52297   0.33836   0.35004   0.00000  Uiso   1.00
H1087  H     0.13251   0.31542   0.88679   0.00000  Uiso   1.00
H1088  H     0.46242   0.64236   0.29095   0.00000  Uiso   1.00
H1089  H     0.01332   0.29884   0.04967   0.00000  Uiso   1.00
H1090  H     0.98174   0.20436   0.08239   0.00000  Uiso   1.00
H1091  H     0.11274   0.35155   0.02077   0.00000  Uiso   1.00
H1092  H     0.95304   0.34852   0.05436   0.00000  Uiso   1.00
H1093  H     0.93485   0.08716   0.10523   0.00000  Uiso   1.00
H1094  H     0.21107   0.39755   0.97531   0.00000  Uiso   1.00
H1095  H     0.54098   0.72449   0.37948   0.00000  Uiso   1.00
O1096  O     0.87317   0.98221   0.08062   0.00000  Uiso   1.00
O1097  O     0.23555   0.38943   0.91017   0.00000  Uiso   1.00
O1098  O     0.46040   0.71438   0.33644   0.00000  Uiso   1.00
N1099  N     0.54578   0.37066   0.36638   0.00000  Uiso   1.00
N1100  N     0.13736   0.32751   0.91159   0.00000  Uiso   1.00
N1101  N     0.48920   0.65488   0.31114   0.00000  Uiso   1.00
N1102  N     0.92138   0.08152   0.08069   0.00000  Uiso   1.00
N1103  N     0.17963   0.37171   0.95922   0.00000  Uiso   1.00
N1104  N     0.53146   0.69908   0.35878   0.00000  Uiso   1.00
C1105  C     0.10845   0.38437   0.63663   0.00000  Uiso   1.00
C1106  C     0.14934   0.41809   0.66566   0.00000  Uiso   1.00
C1107  C     0.20834   0.44752   0.66353   0.00000  Uiso   1.00
C1108  C     0.23815   0.47571   0.69294   0.00000  Uiso   1.00
C1109  C     0.30594   0.52828   0.73338   0.00000  Uiso   1.00
C1110  C     0.06937   0.40929   0.63219   0.00000  Uiso   1.00
C1111  C     0.06112   0.43132   0.60191   0.00000  Uiso   1.00
C1112  C     0.35694   0.11877   0.26981   0.00000  Uiso   1.00
C1113  C     0.30054   0.15765   0.25827   0.00000  Uiso   1.00
C1114  C     0.07102   0.32417   0.65044   0.00000  Uiso   1.00
C1115  C     0.06415   0.27463   0.63550   0.00000  Uiso   1.00
C1116  C     0.02801   0.22375   0.65210   0.00000  Uiso   1.00
C1117  C     0.97418   0.13046   0.66890   0.00000  Uiso   1.00
C1118  C     0.38981   0.04877   0.35932   0.00000  Uiso   1.00
C1119  C     0.12111   0.41686   0.69609   0.00000  Uiso   1.00
C1120  C     0.48417   0.11168   0.39218   0.00000  Uiso   1.00
C1121  C     0.20987   0.47448   0.72343   0.00000  Uiso   1.00
C1122  C     0.37447   0.07473   0.32928   0.00000  Uiso   1.00
C1123  C     0.33695   0.09548   0.33055   0.00000  Uiso   1.00
C1124  C     0.32866   0.11754   0.30029   0.00000  Uiso   1.00
C1125  C     0.04279   0.32294   0.68087   0.00000  Uiso   1.00
C1126  C     0.00665   0.27213   0.69748   0.00000  Uiso   1.00
C1127  C     0.99973   0.22251   0.68258   0.00000  Uiso   1.00
H1128  H     0.13043   0.38533   0.61294   0.00000  Uiso   1.00
H1129  H     0.23017   0.44846   0.63998   0.00000  Uiso   1.00
H1130  H     0.08297   0.43226   0.57837   0.00000  Uiso   1.00
H1131  H     0.08600   0.27560   0.61196   0.00000  Uiso   1.00
H1132  H     0.32831   0.51794   0.68337   0.00000  Uiso   1.00
H1133  H     0.35125   0.15043   0.22012   0.00000  Uiso   1.00
H1134  H     0.02431   0.15340   0.62429   0.00000  Uiso   1.00
H1135  H     0.36783   0.04781   0.38301   0.00000  Uiso   1.00
H1136  H     0.46231   0.11072   0.41572   0.00000  Uiso   1.00
H1137  H     0.31511   0.09452   0.35410   0.00000  Uiso   1.00
H1138  H     0.31815   0.93786   0.38770   0.00000  Uiso   1.00
H1139  H     0.57951   0.18103   0.43856   0.00000  Uiso   1.00
H1140  H     0.26912   0.14685   0.30864   0.00000  Uiso   1.00
H1141  H     0.94218   0.14982   0.71281   0.00000  Uiso   1.00
O1142  O     0.68446   0.22429   0.41395   0.00000  Uiso   1.00
O1143  O     0.27723   0.17945   0.24350   0.00000  Uiso   1.00
O1144  O     0.95229   0.07935   0.66977   0.00000  Uiso   1.00
N1145  N     0.29601   0.50845   0.69972   0.00000  Uiso   1.00
N1146  N     0.33916   0.14318   0.24492   0.00000  Uiso   1.00
N1147  N     0.01179   0.16765   0.64447   0.00000  Uiso   1.00
N1148  N     0.58515   0.17319   0.41402   0.00000  Uiso   1.00
N1149  N     0.29496   0.14125   0.29256   0.00000  Uiso   1.00
N1150  N     0.96759   0.16572   0.69211   0.00000  Uiso   1.00
C1151  C     0.77512   0.71770   0.96997   0.00000  Uiso   1.00
C1152  C     0.81601   0.75142   0.99899   0.00000  Uiso   1.00
C1153  C     0.87501   0.78085   0.99687   0.00000  Uiso   1.00
C1154  C     0.90482   0.80905   0.02628   0.00000  Uiso   1.00
C1155  C     0.97260   0.86161   0.06672   0.00000  Uiso   1.00
C1156  C     0.73604   0.74263   0.96552   0.00000  Uiso   1.00
C1157  C     0.72779   0.76466   0.93524   0.00000  Uiso   1.00
C1158  C     0.02361   0.45211   0.60314   0.00000  Uiso   1.00
C1159  C     0.96720   0.49099   0.59160   0.00000  Uiso   1.00
C1160  C     0.73769   0.65751   0.98377   0.00000  Uiso   1.00
C1161  C     0.73082   0.60796   0.96884   0.00000  Uiso   1.00
C1162  C     0.69468   0.55708   0.98543   0.00000  Uiso   1.00
C1163  C     0.64085   0.46380   0.00224   0.00000  Uiso   1.00
C1164  C     0.05647   0.38210   0.69265   0.00000  Uiso   1.00
C1165  C     0.78777   0.75019   0.02942   0.00000  Uiso   1.00
C1166  C     0.15084   0.44501   0.72551   0.00000  Uiso   1.00
C1167  C     0.87654   0.80781   0.05676   0.00000  Uiso   1.00
C1168  C     0.04114   0.40806   0.66261   0.00000  Uiso   1.00
C1169  C     0.00362   0.42882   0.66389   0.00000  Uiso   1.00
C1170  C     0.99532   0.45088   0.63362   0.00000  Uiso   1.00
C1171  C     0.70946   0.65628   0.01420   0.00000  Uiso   1.00
C1172  C     0.67332   0.60546   0.03082   0.00000  Uiso   1.00
C1173  C     0.66640   0.55585   0.01591   0.00000  Uiso   1.00
H1174  H     0.79709   0.71866   0.94628   0.00000  Uiso   1.00
H1175  H     0.89684   0.78180   0.97331   0.00000  Uiso   1.00
H1176  H     0.74964   0.76560   0.91170   0.00000  Uiso   1.00
H1177  H     0.75267   0.60893   0.94529   0.00000  Uiso   1.00
H1178  H     0.99497   0.85127   0.01670   0.00000  Uiso   1.00
H1179  H     0.01792   0.48376   0.55345   0.00000  Uiso   1.00
H1180  H     0.69097   0.48673   0.95762   0.00000  Uiso   1.00
H1181  H     0.03449   0.38114   0.71634   0.00000  Uiso   1.00
H1182  H     0.12898   0.44405   0.74905   0.00000  Uiso   1.00
H1183  H     0.98178   0.42786   0.68744   0.00000  Uiso   1.00
H1184  H     0.98481   0.27119   0.72103   0.00000  Uiso   1.00
H1185  H     0.24617   0.51436   0.77190   0.00000  Uiso   1.00
H1186  H     0.93578   0.48019   0.64198   0.00000  Uiso   1.00
H1187  H     0.60884   0.48316   0.04615   0.00000  Uiso   1.00
O1188  O     0.35112   0.55762   0.74728   0.00000  Uiso   1.00
O1189  O     0.94390   0.51278   0.57683   0.00000  Uiso   1.00
O1190  O     0.61895   0.41268   0.00310   0.00000  Uiso   1.00
N1191  N     0.96268   0.84179   0.03305   0.00000  Uiso   1.00
N1192  N     0.00582   0.47651   0.57825   0.00000  Uiso   1.00
N1193  N     0.67845   0.50098   0.97781   0.00000  Uiso   1.00
N1194  N     0.25182   0.50653   0.74735   0.00000  Uiso   1.00
N1195  N     0.96163   0.47459   0.62589   0.00000  Uiso   1.00
N1196  N     0.63426   0.49906   0.02544   0.00000  Uiso   1.00
C1197  C     0.44178   0.05103   0.30330   0.00000  Uiso   1.00
C1198  C     0.48267   0.08475   0.33233   0.00000  Uiso   1.00
C1199  C     0.54167   0.11418   0.33020   0.00000  Uiso   1.00
C1200  C     0.57148   0.14238   0.35961   0.00000  Uiso   1.00
C1201  C     0.63927   0.19495   0.40005   0.00000  Uiso   1.00
C1202  C     0.40270   0.07596   0.29885   0.00000  Uiso   1.00
C1203  C     0.39446   0.09799   0.26858   0.00000  Uiso   1.00
C1204  C     0.69027   0.78544   0.93647   0.00000  Uiso   1.00
C1205  C     0.63387   0.82432   0.92494   0.00000  Uiso   1.00
C1206  C     0.40436   0.99084   0.31710   0.00000  Uiso   1.00
C1207  C     0.39749   0.94130   0.30217   0.00000  Uiso   1.00
C1208  C     0.36135   0.89041   0.31877   0.00000  Uiso   1.00
C1209  C     0.30751   0.79713   0.33557   0.00000  Uiso   1.00
C1210  C     0.72314   0.71544   0.02598   0.00000  Uiso   1.00
C1211  C     0.45444   0.08352   0.36275   0.00000  Uiso   1.00
C1212  C     0.81750   0.77835   0.05884   0.00000  Uiso   1.00
C1213  C     0.54320   0.14115   0.39009   0.00000  Uiso   1.00
C1214  C     0.70781   0.74140   0.99594   0.00000  Uiso   1.00
C1215  C     0.67029   0.76215   0.99722   0.00000  Uiso   1.00
C1216  C     0.66199   0.78421   0.96696   0.00000  Uiso   1.00
C1217  C     0.37612   0.98961   0.34753   0.00000  Uiso   1.00
C1218  C     0.33999   0.93879   0.36415   0.00000  Uiso   1.00
C1219  C     0.33307   0.88918   0.34925   0.00000  Uiso   1.00
H1220  H     0.46376   0.05199   0.27961   0.00000  Uiso   1.00
H1221  H     0.56350   0.11513   0.30665   0.00000  Uiso   1.00
H1222  H     0.41631   0.09893   0.24503   0.00000  Uiso   1.00
H1223  H     0.41934   0.94226   0.27863   0.00000  Uiso   1.00
H1224  H     0.66164   0.18460   0.35004   0.00000  Uiso   1.00
H1225  H     0.68458   0.81710   0.88679   0.00000  Uiso   1.00
H1226  H     0.35764   0.82007   0.29095   0.00000  Uiso   1.00
H1227  H     0.70116   0.71448   0.04967   0.00000  Uiso   1.00
H1228  H     0.79564   0.77739   0.08239   0.00000  Uiso   1.00
H1229  H     0.64845   0.76119   0.02077   0.00000  Uiso   1.00
H1230  H     0.65148   0.60452   0.05436   0.00000  Uiso   1.00
H1231  H     0.91284   0.84769   0.10523   0.00000  Uiso   1.00
H1232  H     0.60245   0.81352   0.97531   0.00000  Uiso   1.00
H1233  H     0.27551   0.81649   0.37948   0.00000  Uiso   1.00
O1234  O     0.01779   0.89096   0.08062   0.00000  Uiso   1.00
O1235  O     0.61057   0.84611   0.91017   0.00000  Uiso   1.00
O1236  O     0.28562   0.74602   0.33644   0.00000  Uiso   1.00
N1237  N     0.62934   0.17512   0.36638   0.00000  Uiso   1.00
N1238  N     0.67249   0.80985   0.91159   0.00000  Uiso   1.00
N1239  N     0.34512   0.83431   0.31114   0.00000  Uiso   1.00
N1240  N     0.91848   0.83986   0.08069   0.00000  Uiso   1.00
N1241  N     0.62829   0.80792   0.95922   0.00000  Uiso   1.00
N1242  N     0.30092   0.83239   0.35878   0.00000  Uiso   1.00
C1243  C     0.72408   0.61563   0.86337   0.00000  Uiso   1.00
C1244  C     0.73125   0.58191   0.83434   0.00000  Uiso   1.00
C1245  C     0.76082   0.55248   0.83647   0.00000  Uiso   1.00
C1246  C     0.76244   0.52429   0.80706   0.00000  Uiso   1.00
C1247  C     0.77765   0.47172   0.76662   0.00000  Uiso   1.00
C1248  C     0.66008   0.59071   0.86781   0.00000  Uiso   1.00
C1249  C     0.62980   0.56868   0.89809   0.00000  Uiso   1.00
C1250  C     0.23817   0.88123   0.23019   0.00000  Uiso   1.00
C1251  C     0.14288   0.84235   0.24173   0.00000  Uiso   1.00
C1252  C     0.74685   0.67583   0.84956   0.00000  Uiso   1.00
C1253  C     0.78952   0.72537   0.86450   0.00000  Uiso   1.00
C1254  C     0.80427   0.77625   0.84790   0.00000  Uiso   1.00
C1255  C     0.84371   0.86954   0.83110   0.00000  Uiso   1.00
C1256  C     0.34104   0.95123   0.14068   0.00000  Uiso   1.00
C1257  C     0.70425   0.58314   0.80391   0.00000  Uiso   1.00
C1258  C     0.37249   0.88832   0.10782   0.00000  Uiso   1.00
C1259  C     0.73539   0.52552   0.77657   0.00000  Uiso   1.00
C1260  C     0.29974   0.92527   0.17072   0.00000  Uiso   1.00
C1261  C     0.24147   0.90452   0.16945   0.00000  Uiso   1.00
C1262  C     0.21111   0.88246   0.19971   0.00000  Uiso   1.00
C1263  C     0.71985   0.67706   0.81913   0.00000  Uiso   1.00
C1264  C     0.73453   0.72787   0.80252   0.00000  Uiso   1.00
C1265  C     0.77722   0.77749   0.81742   0.00000  Uiso   1.00
H1266  H     0.74510   0.61467   0.88706   0.00000  Uiso   1.00
H1267  H     0.78171   0.55154   0.86002   0.00000  Uiso   1.00
H1268  H     0.65071   0.56774   0.92163   0.00000  Uiso   1.00
H1269  H     0.81041   0.72440   0.88804   0.00000  Uiso   1.00
H1270  H     0.81037   0.48206   0.81663   0.00000  Uiso   1.00
H1271  H     0.20082   0.84957   0.27988   0.00000  Uiso   1.00
H1272  H     0.87091   0.84660   0.87571   0.00000  Uiso   1.00
H1273  H     0.32002   0.95219   0.11699   0.00000  Uiso   1.00
H1274  H     0.35159   0.88928   0.08428   0.00000  Uiso   1.00
H1275  H     0.22059   0.90548   0.14590   0.00000  Uiso   1.00
H1276  H     0.38029   0.06214   0.11230   0.00000  Uiso   1.00
H1277  H     0.39848   0.81897   0.06144   0.00000  Uiso   1.00
H1278  H     0.12226   0.85315   0.19136   0.00000  Uiso   1.00
H1279  H     0.79235   0.85018   0.78719   0.00000  Uiso   1.00
O1280  O     0.46017   0.77571   0.08605   0.00000  Uiso   1.00
O1281  O     0.09779   0.82055   0.25650   0.00000  Uiso   1.00
O1282  O     0.87294   0.92065   0.83023   0.00000  Uiso   1.00
N1283  N     0.78756   0.49155   0.80028   0.00000  Uiso   1.00
N1284  N     0.19598   0.85682   0.25508   0.00000  Uiso   1.00
N1285  N     0.84414   0.83235   0.85553   0.00000  Uiso   1.00
N1286  N     0.41195   0.82681   0.08598   0.00000  Uiso   1.00
N1287  N     0.15371   0.85875   0.20744   0.00000  Uiso   1.00
N1288  N     0.80187   0.83428   0.80789   0.00000  Uiso   1.00
C1289  C     0.39075   0.94897   0.19670   0.00000  Uiso   1.00
C1290  C     0.39792   0.91525   0.16767   0.00000  Uiso   1.00
C1291  C     0.42749   0.88582   0.16980   0.00000  Uiso   1.00
C1292  C     0.42910   0.85762   0.14039   0.00000  Uiso   1.00
C1293  C     0.44432   0.80505   0.09995   0.00000  Uiso   1.00
C1294  C     0.32674   0.92404   0.20115   0.00000  Uiso   1.00
C1295  C     0.29647   0.90201   0.23142   0.00000  Uiso   1.00
C1296  C     0.90483   0.21456   0.56353   0.00000  Uiso   1.00
C1297  C     0.80955   0.17568   0.57506   0.00000  Uiso   1.00
C1298  C     0.41351   0.00916   0.18290   0.00000  Uiso   1.00
C1299  C     0.45619   0.05870   0.19783   0.00000  Uiso   1.00
C1300  C     0.47093   0.10959   0.18123   0.00000  Uiso   1.00
C1301  C     0.51038   0.20287   0.16443   0.00000  Uiso   1.00
C1302  C     0.00771   0.28456   0.47402   0.00000  Uiso   1.00
C1303  C     0.37092   0.91648   0.13725   0.00000  Uiso   1.00
C1304  C     0.03916   0.22165   0.44116   0.00000  Uiso   1.00
C1305  C     0.40206   0.85885   0.10991   0.00000  Uiso   1.00
C1306  C     0.96641   0.25860   0.50406   0.00000  Uiso   1.00
C1307  C     0.90814   0.23785   0.50278   0.00000  Uiso   1.00
C1308  C     0.87778   0.21579   0.53304   0.00000  Uiso   1.00
C1309  C     0.38652   0.01039   0.15247   0.00000  Uiso   1.00
C1310  C     0.40119   0.06121   0.13585   0.00000  Uiso   1.00
C1311  C     0.44388   0.11082   0.15075   0.00000  Uiso   1.00
H1312  H     0.41177   0.94801   0.22039   0.00000  Uiso   1.00
H1313  H     0.44837   0.88487   0.19335   0.00000  Uiso   1.00
H1314  H     0.31738   0.90107   0.25497   0.00000  Uiso   1.00
H1315  H     0.47707   0.05774   0.22137   0.00000  Uiso   1.00
H1316  H     0.47703   0.81540   0.14996   0.00000  Uiso   1.00
H1317  H     0.86749   0.18290   0.61321   0.00000  Uiso   1.00
H1318  H     0.53758   0.17993   0.20905   0.00000  Uiso   1.00
H1319  H     0.98668   0.28552   0.45033   0.00000  Uiso   1.00
H1320  H     0.01826   0.22261   0.41761   0.00000  Uiso   1.00
H1321  H     0.88726   0.23881   0.47923   0.00000  Uiso   1.00
H1322  H     0.04696   0.39548   0.44564   0.00000  Uiso   1.00
H1323  H     0.06515   0.15231   0.39477   0.00000  Uiso   1.00
H1324  H     0.78893   0.18648   0.52469   0.00000  Uiso   1.00
H1325  H     0.45902   0.18351   0.12052   0.00000  Uiso   1.00
O1326  O     0.12683   0.10904   0.41938   0.00000  Uiso   1.00
O1327  O     0.76445   0.15389   0.58983   0.00000  Uiso   1.00
O1328  O     0.53960   0.25398   0.16356   0.00000  Uiso   1.00
N1329  N     0.45422   0.82488   0.13362   0.00000  Uiso   1.00
N1330  N     0.86264   0.19015   0.58841   0.00000  Uiso   1.00
N1331  N     0.51080   0.16569   0.18886   0.00000  Uiso   1.00
N1332  N     0.07862   0.16014   0.41931   0.00000  Uiso   1.00
N1333  N     0.82037   0.19208   0.54078   0.00000  Uiso   1.00
N1334  N     0.46854   0.16761   0.14122   0.00000  Uiso   1.00
C1335  C     0.05742   0.28230   0.53003   0.00000  Uiso   1.00
C1336  C     0.06459   0.24858   0.50101   0.00000  Uiso   1.00
C1337  C     0.09416   0.21915   0.50313   0.00000  Uiso   1.00
C1338  C     0.09577   0.19095   0.47372   0.00000  Uiso   1.00
C1339  C     0.11099   0.13839   0.43328   0.00000  Uiso   1.00
C1340  C     0.99341   0.25737   0.53448   0.00000  Uiso   1.00
C1341  C     0.96313   0.23534   0.56476   0.00000  Uiso   1.00
C1342  C     0.57150   0.54789   0.89686   0.00000  Uiso   1.00
C1343  C     0.47622   0.50901   0.90840   0.00000  Uiso   1.00
C1344  C     0.08018   0.34249   0.51623   0.00000  Uiso   1.00
C1345  C     0.12286   0.39204   0.53116   0.00000  Uiso   1.00
C1346  C     0.13760   0.44292   0.51457   0.00000  Uiso   1.00
C1347  C     0.17705   0.53620   0.49776   0.00000  Uiso   1.00
C1348  C     0.67437   0.61790   0.80735   0.00000  Uiso   1.00
C1349  C     0.03758   0.24981   0.47058   0.00000  Uiso   1.00
C1350  C     0.70582   0.55499   0.77449   0.00000  Uiso   1.00
C1351  C     0.06872   0.19219   0.44324   0.00000  Uiso   1.00
C1352  C     0.63307   0.59194   0.83739   0.00000  Uiso   1.00
C1353  C     0.57480   0.57118   0.83611   0.00000  Uiso   1.00
C1354  C     0.54445   0.54912   0.86638   0.00000  Uiso   1.00
C1355  C     0.05318   0.34372   0.48580   0.00000  Uiso   1.00
C1356  C     0.06786   0.39454   0.46918   0.00000  Uiso   1.00
C1357  C     0.11055   0.44415   0.48409   0.00000  Uiso   1.00
H1358  H     0.07843   0.28134   0.55372   0.00000  Uiso   1.00
H1359  H     0.11504   0.21820   0.52669   0.00000  Uiso   1.00
H1360  H     0.98404   0.23440   0.58830   0.00000  Uiso   1.00
H1361  H     0.14374   0.39107   0.55471   0.00000  Uiso   1.00
H1362  H     0.14370   0.14873   0.48330   0.00000  Uiso   1.00
H1363  H     0.53415   0.51624   0.94655   0.00000  Uiso   1.00
H1364  H     0.20424   0.51327   0.54238   0.00000  Uiso   1.00
H1365  H     0.65335   0.61886   0.78366   0.00000  Uiso   1.00
H1366  H     0.68492   0.55595   0.75095   0.00000  Uiso   1.00
H1367  H     0.55392   0.57214   0.81256   0.00000  Uiso   1.00
H1368  H     0.71362   0.72881   0.77897   0.00000  Uiso   1.00
H1369  H     0.73181   0.48564   0.72810   0.00000  Uiso   1.00
H1370  H     0.45560   0.51981   0.85802   0.00000  Uiso   1.00
H1371  H     0.12569   0.51684   0.45385   0.00000  Uiso   1.00
O1372  O     0.79350   0.44238   0.75272   0.00000  Uiso   1.00
O1373  O     0.43112   0.48722   0.92317   0.00000  Uiso   1.00
O1374  O     0.20627   0.58732   0.49690   0.00000  Uiso   1.00
N1375  N     0.12089   0.15821   0.46695   0.00000  Uiso   1.00
N1376  N     0.52931   0.52349   0.92175   0.00000  Uiso   1.00
N1377  N     0.17747   0.49902   0.52219   0.00000  Uiso   1.00
N1378  N     0.74529   0.49347   0.75265   0.00000  Uiso   1.00
N1379  N     0.48704   0.52541   0.87411   0.00000  Uiso   1.00
N1380  N     0.13520   0.50094   0.47456   0.00000  Uiso   1.00
C1381  C     0.89155   0.27592   0.86337   0.00000  Uiso   1.00
C1382  C     0.85066   0.26875   0.83434   0.00000  Uiso   1.00
C1383  C     0.79166   0.23918   0.83647   0.00000  Uiso   1.00
C1384  C     0.76185   0.23756   0.80706   0.00000  Uiso   1.00
C1385  C     0.69406   0.22235   0.76662   0.00000  Uiso   1.00
C1386  C     0.93063   0.33992   0.86781   0.00000  Uiso   1.00
C1387  C     0.93888   0.37020   0.89809   0.00000  Uiso   1.00
C1388  C     0.64306   0.76183   0.23019   0.00000  Uiso   1.00
C1389  C     0.69946   0.85712   0.24173   0.00000  Uiso   1.00
C1390  C     0.92898   0.25315   0.84956   0.00000  Uiso   1.00
C1391  C     0.93585   0.21048   0.86450   0.00000  Uiso   1.00
C1392  C     0.97199   0.19573   0.84790   0.00000  Uiso   1.00
C1393  C     0.02582   0.15629   0.83110   0.00000  Uiso   1.00
C1394  C     0.61019   0.65896   0.14068   0.00000  Uiso   1.00
C1395  C     0.87889   0.29575   0.80391   0.00000  Uiso   1.00
C1396  C     0.51583   0.62751   0.10782   0.00000  Uiso   1.00
C1397  C     0.79013   0.26461   0.77657   0.00000  Uiso   1.00
C1398  C     0.62553   0.70026   0.17072   0.00000  Uiso   1.00
C1399  C     0.66305   0.75853   0.16945   0.00000  Uiso   1.00
C1400  C     0.67134   0.78889   0.19971   0.00000  Uiso   1.00
C1401  C     0.95721   0.28015   0.81913   0.00000  Uiso   1.00
C1402  C     0.99335   0.26547   0.80252   0.00000  Uiso   1.00
C1403  C     0.00027   0.22278   0.81742   0.00000  Uiso   1.00
H1404  H     0.86957   0.25490   0.88706   0.00000  Uiso   1.00
H1405  H     0.76983   0.21829   0.86002   0.00000  Uiso   1.00
H1406  H     0.91703   0.34929   0.92163   0.00000  Uiso   1.00
H1407  H     0.91400   0.18959   0.88804   0.00000  Uiso   1.00
H1408  H     0.67169   0.18963   0.81663   0.00000  Uiso   1.00
H1409  H     0.64875   0.79918   0.27988   0.00000  Uiso   1.00
H1410  H     0.97569   0.12909   0.87571   0.00000  Uiso   1.00
H1411  H     0.63217   0.67998   0.11699   0.00000  Uiso   1.00
H1412  H     0.53769   0.64841   0.08428   0.00000  Uiso   1.00
H1413  H     0.68489   0.77941   0.14590   0.00000  Uiso   1.00
H1414  H     0.68185   0.61971   0.11230   0.00000  Uiso   1.00
H1415  H     0.42049   0.60152   0.06144   0.00000  Uiso   1.00
H1416  H     0.73088   0.87774   0.19136   0.00000  Uiso   1.00
H1417  H     0.05782   0.20765   0.78719   0.00000  Uiso   1.00
O1418  O     0.31554   0.53983   0.08605   0.00000  Uiso   1.00
O1419  O     0.72277   0.90221   0.25650   0.00000  Uiso   1.00
O1420  O     0.04771   0.12706   0.83023   0.00000  Uiso   1.00
N1421  N     0.70399   0.21244   0.80028   0.00000  Uiso   1.00
N1422  N     0.66084   0.80402   0.25508   0.00000  Uiso   1.00
N1423  N     0.98821   0.15586   0.85553   0.00000  Uiso   1.00
N1424  N     0.41485   0.58805   0.08598   0.00000  Uiso   1.00
N1425  N     0.70504   0.84629   0.20744   0.00000  Uiso   1.00
N1426  N     0.03241   0.19813   0.80789   0.00000  Uiso   1.00
C1427  C     0.55822   0.60925   0.19670   0.00000  Uiso   1.00
C1428  C     0.51733   0.60208   0.16767   0.00000  Uiso   1.00
C1429  C     0.45833   0.57251   0.16980   0.00000  Uiso   1.00
C1430  C     0.42852   0.57090   0.14039   0.00000  Uiso   1.00
C1431  C     0.36073   0.55568   0.09995   0.00000  Uiso   1.00
C1432  C     0.59730   0.67326   0.20115   0.00000  Uiso   1.00
C1433  C     0.60554   0.70353   0.23142   0.00000  Uiso   1.00
C1434  C     0.30973   0.09517   0.56353   0.00000  Uiso   1.00
C1435  C     0.36613   0.19045   0.57506   0.00000  Uiso   1.00
C1436  C     0.59564   0.58649   0.18290   0.00000  Uiso   1.00
C1437  C     0.60251   0.54381   0.19783   0.00000  Uiso   1.00
C1438  C     0.63865   0.52907   0.18123   0.00000  Uiso   1.00
C1439  C     0.69249   0.48962   0.16443   0.00000  Uiso   1.00
C1440  C     0.27686   0.99229   0.47402   0.00000  Uiso   1.00
C1441  C     0.54556   0.62908   0.13725   0.00000  Uiso   1.00
C1442  C     0.18250   0.96084   0.44116   0.00000  Uiso   1.00
C1443  C     0.45680   0.59794   0.10991   0.00000  Uiso   1.00
C1444  C     0.29219   0.03359   0.50406   0.00000  Uiso   1.00
C1445  C     0.32971   0.09186   0.50278   0.00000  Uiso   1.00
C1446  C     0.33801   0.12222   0.53304   0.00000  Uiso   1.00
C1447  C     0.62388   0.61348   0.15247   0.00000  Uiso   1.00
C1448  C     0.66001   0.59881   0.13585   0.00000  Uiso   1.00
C1449  C     0.66693   0.55612   0.15075   0.00000  Uiso   1.00
H1450  H     0.53624   0.58823   0.22039   0.00000  Uiso   1.00
H1451  H     0.43650   0.55163   0.19335   0.00000  Uiso   1.00
H1452  H     0.58369   0.68262   0.25497   0.00000  Uiso   1.00
H1453  H     0.58066   0.52293   0.22137   0.00000  Uiso   1.00
H1454  H     0.33836   0.52297   0.14996   0.00000  Uiso   1.00
H1455  H     0.31542   0.13251   0.61321   0.00000  Uiso   1.00
H1456  H     0.64236   0.46242   0.20905   0.00000  Uiso   1.00
H1457  H     0.29884   0.01332   0.45033   0.00000  Uiso   1.00
H1458  H     0.20436   0.98174   0.41761   0.00000  Uiso   1.00
H1459  H     0.35155   0.11274   0.47923   0.00000  Uiso   1.00
H1460  H     0.34852   0.95304   0.44564   0.00000  Uiso   1.00
H1461  H     0.08716   0.93485   0.39477   0.00000  Uiso   1.00
H1462  H     0.39755   0.21107   0.52469   0.00000  Uiso   1.00
H1463  H     0.72449   0.54098   0.12052   0.00000  Uiso   1.00
O1464  O     0.98221   0.87317   0.41938   0.00000  Uiso   1.00
O1465  O     0.38943   0.23555   0.58983   0.00000  Uiso   1.00
O1466  O     0.71438   0.46040   0.16356   0.00000  Uiso   1.00
N1467  N     0.37066   0.54578   0.13362   0.00000  Uiso   1.00
N1468  N     0.32751   0.13736   0.58841   0.00000  Uiso   1.00
N1469  N     0.65488   0.48920   0.18886   0.00000  Uiso   1.00
N1470  N     0.08152   0.92138   0.41931   0.00000  Uiso   1.00
N1471  N     0.37171   0.17963   0.54078   0.00000  Uiso   1.00
N1472  N     0.69908   0.53146   0.14122   0.00000  Uiso   1.00
C1473  C     0.22488   0.94258   0.53003   0.00000  Uiso   1.00
C1474  C     0.18399   0.93541   0.50101   0.00000  Uiso   1.00
C1475  C     0.12499   0.90584   0.50313   0.00000  Uiso   1.00
C1476  C     0.09518   0.90423   0.47372   0.00000  Uiso   1.00
C1477  C     0.02740   0.88901   0.43328   0.00000  Uiso   1.00
C1478  C     0.26396   0.00659   0.53448   0.00000  Uiso   1.00
C1479  C     0.27221   0.03687   0.56476   0.00000  Uiso   1.00
C1480  C     0.97639   0.42850   0.89686   0.00000  Uiso   1.00
C1481  C     0.03280   0.52378   0.90840   0.00000  Uiso   1.00
C1482  C     0.26231   0.91982   0.51623   0.00000  Uiso   1.00
C1483  C     0.26918   0.87714   0.53116   0.00000  Uiso   1.00
C1484  C     0.30532   0.86240   0.51457   0.00000  Uiso   1.00
C1485  C     0.35915   0.82295   0.49776   0.00000  Uiso   1.00
C1486  C     0.94353   0.32563   0.80735   0.00000  Uiso   1.00
C1487  C     0.21223   0.96242   0.47058   0.00000  Uiso   1.00
C1488  C     0.84916   0.29418   0.77449   0.00000  Uiso   1.00
C1489  C     0.12346   0.93128   0.44324   0.00000  Uiso   1.00
C1490  C     0.95886   0.36693   0.83739   0.00000  Uiso   1.00
C1491  C     0.99638   0.42520   0.83611   0.00000  Uiso   1.00
C1492  C     0.00468   0.45555   0.86638   0.00000  Uiso   1.00
C1493  C     0.29054   0.94682   0.48580   0.00000  Uiso   1.00
C1494  C     0.32668   0.93214   0.46918   0.00000  Uiso   1.00
C1495  C     0.33360   0.88945   0.48409   0.00000  Uiso   1.00
H1496  H     0.20291   0.92157   0.55372   0.00000  Uiso   1.00
H1497  H     0.10316   0.88496   0.52669   0.00000  Uiso   1.00
H1498  H     0.25036   0.01596   0.58830   0.00000  Uiso   1.00
H1499  H     0.24733   0.85626   0.55471   0.00000  Uiso   1.00
H1500  H     0.00503   0.85630   0.48330   0.00000  Uiso   1.00
H1501  H     0.98208   0.46585   0.94655   0.00000  Uiso   1.00
H1502  H     0.30903   0.79576   0.54238   0.00000  Uiso   1.00
H1503  H     0.96551   0.34665   0.78366   0.00000  Uiso   1.00
H1504  H     0.87102   0.31508   0.75095   0.00000  Uiso   1.00
H1505  H     0.01822   0.44608   0.81256   0.00000  Uiso   1.00
H1506  H     0.01519   0.28638   0.77897   0.00000  Uiso   1.00
H1507  H     0.75383   0.26819   0.72810   0.00000  Uiso   1.00
H1508  H     0.06422   0.54440   0.85802   0.00000  Uiso   1.00
H1509  H     0.39116   0.87431   0.45385   0.00000  Uiso   1.00
O1510  O     0.64888   0.20650   0.75272   0.00000  Uiso   1.00
O1511  O     0.05610   0.56888   0.92317   0.00000  Uiso   1.00
O1512  O     0.38105   0.79373   0.49690   0.00000  Uiso   1.00
N1513  N     0.03732   0.87911   0.46695   0.00000  Uiso   1.00
N1514  N     0.99418   0.47069   0.92175   0.00000  Uiso   1.00
N1515  N     0.32155   0.82253   0.52219   0.00000  Uiso   1.00
N1516  N     0.74818   0.25471   0.75265   0.00000  Uiso   1.00
N1517  N     0.03837   0.51296   0.87411   0.00000  Uiso   1.00
N1518  N     0.36574   0.86480   0.47456   0.00000  Uiso   1.00
C1519  C     0.38437   0.10845   0.86337   0.00000  Uiso   1.00
C1520  C     0.41809   0.14934   0.83434   0.00000  Uiso   1.00
C1521  C     0.44752   0.20834   0.83647   0.00000  Uiso   1.00
C1522  C     0.47571   0.23815   0.80706   0.00000  Uiso   1.00
C1523  C     0.52828   0.30594   0.76662   0.00000  Uiso   1.00
C1524  C     0.40929   0.06937   0.86781   0.00000  Uiso   1.00
C1525  C     0.43132   0.06112   0.89809   0.00000  Uiso   1.00
C1526  C     0.11877   0.35694   0.23019   0.00000  Uiso   1.00
C1527  C     0.15765   0.30054   0.24173   0.00000  Uiso   1.00
C1528  C     0.32417   0.07102   0.84956   0.00000  Uiso   1.00
C1529  C     0.27463   0.06415   0.86450   0.00000  Uiso   1.00
C1530  C     0.22375   0.02801   0.84790   0.00000  Uiso   1.00
C1531  C     0.13046   0.97418   0.83110   0.00000  Uiso   1.00
C1532  C     0.04877   0.38981   0.14068   0.00000  Uiso   1.00
C1533  C     0.41686   0.12111   0.80391   0.00000  Uiso   1.00
C1534  C     0.11168   0.48417   0.10782   0.00000  Uiso   1.00
C1535  C     0.47448   0.20987   0.77657   0.00000  Uiso   1.00
C1536  C     0.07473   0.37447   0.17072   0.00000  Uiso   1.00
C1537  C     0.09548   0.33695   0.16945   0.00000  Uiso   1.00
C1538  C     0.11754   0.32866   0.19971   0.00000  Uiso   1.00
C1539  C     0.32294   0.04279   0.81913   0.00000  Uiso   1.00
C1540  C     0.27213   0.00665   0.80252   0.00000  Uiso   1.00
C1541  C     0.22251   0.99973   0.81742   0.00000  Uiso   1.00
H1542  H     0.38533   0.13043   0.88706   0.00000  Uiso   1.00
H1543  H     0.44846   0.23017   0.86002   0.00000  Uiso   1.00
H1544  H     0.43226   0.08297   0.92163   0.00000  Uiso   1.00
H1545  H     0.27560   0.08600   0.88804   0.00000  Uiso   1.00
H1546  H     0.51794   0.32831   0.81663   0.00000  Uiso   1.00
H1547  H     0.15043   0.35125   0.27988   0.00000  Uiso   1.00
H1548  H     0.15340   0.02431   0.87571   0.00000  Uiso   1.00
H1549  H     0.04781   0.36783   0.11699   0.00000  Uiso   1.00
H1550  H     0.11072   0.46231   0.08428   0.00000  Uiso   1.00
H1551  H     0.09452   0.31511   0.14590   0.00000  Uiso   1.00
H1552  H     0.93786   0.31815   0.11230   0.00000  Uiso   1.00
H1553  H     0.18103   0.57951   0.06144   0.00000  Uiso   1.00
H1554  H     0.14685   0.26912   0.19136   0.00000  Uiso   1.00
H1555  H     0.14982   0.94218   0.78719   0.00000  Uiso   1.00
O1556  O     0.22429   0.68446   0.08605   0.00000  Uiso   1.00
O1557  O     0.17945   0.27723   0.25650   0.00000  Uiso   1.00
O1558  O     0.07935   0.95229   0.83023   0.00000  Uiso   1.00
N1559  N     0.50845   0.29601   0.80028   0.00000  Uiso   1.00
N1560  N     0.14318   0.33916   0.25508   0.00000  Uiso   1.00
N1561  N     0.16765   0.01179   0.85553   0.00000  Uiso   1.00
N1562  N     0.17319   0.58515   0.08598   0.00000  Uiso   1.00
N1563  N     0.14125   0.29496   0.20744   0.00000  Uiso   1.00
N1564  N     0.16572   0.96759   0.80789   0.00000  Uiso   1.00
C1565  C     0.05103   0.44178   0.19670   0.00000  Uiso   1.00
C1566  C     0.08475   0.48267   0.16767   0.00000  Uiso   1.00
C1567  C     0.11418   0.54167   0.16980   0.00000  Uiso   1.00
C1568  C     0.14238   0.57148   0.14039   0.00000  Uiso   1.00
C1569  C     0.19495   0.63927   0.09995   0.00000  Uiso   1.00
C1570  C     0.07596   0.40270   0.20115   0.00000  Uiso   1.00
C1571  C     0.09799   0.39446   0.23142   0.00000  Uiso   1.00
C1572  C     0.78544   0.69027   0.56353   0.00000  Uiso   1.00
C1573  C     0.82432   0.63387   0.57506   0.00000  Uiso   1.00
C1574  C     0.99084   0.40436   0.18290   0.00000  Uiso   1.00
C1575  C     0.94130   0.39749   0.19783   0.00000  Uiso   1.00
C1576  C     0.89041   0.36135   0.18123   0.00000  Uiso   1.00
C1577  C     0.79713   0.30751   0.16443   0.00000  Uiso   1.00
C1578  C     0.71544   0.72314   0.47402   0.00000  Uiso   1.00
C1579  C     0.08352   0.45444   0.13725   0.00000  Uiso   1.00
C1580  C     0.77835   0.81750   0.44116   0.00000  Uiso   1.00
C1581  C     0.14115   0.54320   0.10991   0.00000  Uiso   1.00
C1582  C     0.74140   0.70781   0.50406   0.00000  Uiso   1.00
C1583  C     0.76215   0.67029   0.50278   0.00000  Uiso   1.00
C1584  C     0.78421   0.66199   0.53304   0.00000  Uiso   1.00
C1585  C     0.98961   0.37612   0.15247   0.00000  Uiso   1.00
C1586  C     0.93879   0.33999   0.13585   0.00000  Uiso   1.00
C1587  C     0.88918   0.33307   0.15075   0.00000  Uiso   1.00
H1588  H     0.05199   0.46376   0.22039   0.00000  Uiso   1.00
H1589  H     0.11513   0.56350   0.19335   0.00000  Uiso   1.00
H1590  H     0.09893   0.41631   0.25497   0.00000  Uiso   1.00
H1591  H     0.94226   0.41934   0.22137   0.00000  Uiso   1.00
H1592  H     0.18460   0.66164   0.14996   0.00000  Uiso   1.00
H1593  H     0.81710   0.68458   0.61321   0.00000  Uiso   1.00
H1594  H     0.82007   0.35764   0.20905   0.00000  Uiso   1.00
H1595  H     0.71448   0.70116   0.45033   0.00000  Uiso   1.00
H1596  H     0.77739   0.79564   0.41761   0.00000  Uiso   1.00
H1597  H     0.76119   0.64845   0.47923   0.00000  Uiso   1.00
H1598  H     0.60452   0.65148   0.44564   0.00000  Uiso   1.00
H1599  H     0.84769   0.91284   0.39477   0.00000  Uiso   1.00
H1600  H     0.81352   0.60245   0.52469   0.00000  Uiso   1.00
H1601  H     0.81649   0.27551   0.12052   0.00000  Uiso   1.00
O1602  O     0.89096   0.01779   0.41938   0.00000  Uiso   1.00
O1603  O     0.84611   0.61057   0.58983   0.00000  Uiso   1.00
O1604  O     0.74602   0.28562   0.16356   0.00000  Uiso   1.00
N1605  N     0.17512   0.62934   0.13362   0.00000  Uiso   1.00
N1606  N     0.80985   0.67249   0.58841   0.00000  Uiso   1.00
N1607  N     0.83431   0.34512   0.18886   0.00000  Uiso   1.00
N1608  N     0.83986   0.91848   0.41931   0.00000  Uiso   1.00
N1609  N     0.80792   0.62829   0.54078   0.00000  Uiso   1.00
N1610  N     0.83239   0.30092   0.14122   0.00000  Uiso   1.00
C1611  C     0.71770   0.77512   0.53003   0.00000  Uiso   1.00
C1612  C     0.75142   0.81601   0.50101   0.00000  Uiso   1.00
C1613  C     0.78085   0.87501   0.50313   0.00000  Uiso   1.00
C1614  C     0.80905   0.90482   0.47372   0.00000  Uiso   1.00
C1615  C     0.86161   0.97260   0.43328   0.00000  Uiso   1.00
C1616  C     0.74263   0.73604   0.53448   0.00000  Uiso   1.00
C1617  C     0.76466   0.72779   0.56476   0.00000  Uiso   1.00
C1618  C     0.45211   0.02361   0.89686   0.00000  Uiso   1.00
C1619  C     0.49099   0.96720   0.90840   0.00000  Uiso   1.00
C1620  C     0.65751   0.73769   0.51623   0.00000  Uiso   1.00
C1621  C     0.60796   0.73082   0.53116   0.00000  Uiso   1.00
C1622  C     0.55708   0.69468   0.51457   0.00000  Uiso   1.00
C1623  C     0.46380   0.64085   0.49776   0.00000  Uiso   1.00
C1624  C     0.38210   0.05647   0.80735   0.00000  Uiso   1.00
C1625  C     0.75019   0.78777   0.47058   0.00000  Uiso   1.00
C1626  C     0.44501   0.15084   0.77449   0.00000  Uiso   1.00
C1627  C     0.80781   0.87654   0.44324   0.00000  Uiso   1.00
C1628  C     0.40806   0.04114   0.83739   0.00000  Uiso   1.00
C1629  C     0.42882   0.00362   0.83611   0.00000  Uiso   1.00
C1630  C     0.45088   0.99532   0.86638   0.00000  Uiso   1.00
C1631  C     0.65628   0.70946   0.48580   0.00000  Uiso   1.00
C1632  C     0.60546   0.67332   0.46918   0.00000  Uiso   1.00
C1633  C     0.55585   0.66640   0.48409   0.00000  Uiso   1.00
H1634  H     0.71866   0.79709   0.55372   0.00000  Uiso   1.00
H1635  H     0.78180   0.89684   0.52669   0.00000  Uiso   1.00
H1636  H     0.76560   0.74964   0.58830   0.00000  Uiso   1.00
H1637  H     0.60893   0.75267   0.55471   0.00000  Uiso   1.00
H1638  H     0.85127   0.99497   0.48330   0.00000  Uiso   1.00
H1639  H     0.48376   0.01792   0.94655   0.00000  Uiso   1.00
H1640  H     0.48673   0.69097   0.54238   0.00000  Uiso   1.00
H1641  H     0.38114   0.03449   0.78366   0.00000  Uiso   1.00
H1642  H     0.44405   0.12898   0.75095   0.00000  Uiso   1.00
H1643  H     0.42786   0.98178   0.81256   0.00000  Uiso   1.00
H1644  H     0.27119   0.98481   0.77897   0.00000  Uiso   1.00
H1645  H     0.51436   0.24617   0.72810   0.00000  Uiso   1.00
H1646  H     0.48019   0.93578   0.85802   0.00000  Uiso   1.00
H1647  H     0.48316   0.60884   0.45385   0.00000  Uiso   1.00
O1648  O     0.55762   0.35112   0.75272   0.00000  Uiso   1.00
O1649  O     0.51278   0.94390   0.92317   0.00000  Uiso   1.00
O1650  O     0.41268   0.61895   0.49690   0.00000  Uiso   1.00
N1651  N     0.84179   0.96268   0.46695   0.00000  Uiso   1.00
N1652  N     0.47651   0.00582   0.92175   0.00000  Uiso   1.00
N1653  N     0.50098   0.67845   0.52219   0.00000  Uiso   1.00
N1654  N     0.50653   0.25182   0.75265   0.00000  Uiso   1.00
N1655  N     0.47459   0.96163   0.87411   0.00000  Uiso   1.00
N1656  N     0.49906   0.63426   0.47456   0.00000  Uiso   1.00
