data_job_03853
_audit_creation_date              2018-12-19
_audit_creation_method            'Materials Studio'
_symmetry_space_group_name_H-M    'P1'
_symmetry_Int_Tables_number       1
_symmetry_cell_setting            triclinic
loop_
_symmetry_equiv_pos_as_xyz
  x,y,z
_cell_length_a                    30.4611
_cell_length_b                    16.9190
_cell_length_c                    21.2534
_cell_angle_alpha                 90.0000
_cell_angle_beta                  90.0000
_cell_angle_gamma                 90.0000
loop_
_atom_site_label
_atom_site_type_symbol
_atom_site_fract_x
_atom_site_fract_y
_atom_site_fract_z
_atom_site_U_iso_or_equiv
_atom_site_adp_type
_atom_site_occupancy
C1     C     0.33427   0.76206   0.28095   0.00000  Uiso   1.00
C2     C     0.38040   0.73795   0.30116   0.00000  Uiso   1.00
C3     C     0.39158   0.66796   0.33120   0.00000  Uiso   1.00
C4     C     0.43559   0.65697   0.34577   0.00000  Uiso   1.00
C5     C     0.50241   0.61084   0.37940   0.00000  Uiso   1.00
C6     C     0.33696   0.77861   0.21052   0.00000  Uiso   1.00
C7     C     0.31161   0.74280   0.16435   0.00000  Uiso   1.00
C8     C     0.31905   0.76605   0.10261   0.00000  Uiso   1.00
C9     C     0.31839   0.78308   0.99553   0.00000  Uiso   1.00
C10    C     0.32540   0.84156   0.31227   0.00000  Uiso   1.00
C11    C     0.29032   0.85869   0.35164   0.00000  Uiso   1.00
C12    C     0.28801   0.93495   0.37556   0.00000  Uiso   1.00
C13    C     0.26941   0.04972   0.42647   0.00000  Uiso   1.00
C14    C     0.39255   0.86702   0.25340   0.00000  Uiso   1.00
C15    C     0.41206   0.79496   0.28620   0.00000  Uiso   1.00
C16    C     0.45606   0.78408   0.30072   0.00000  Uiso   1.00
C17    C     0.46730   0.71408   0.33078   0.00000  Uiso   1.00
C18    C     0.36861   0.83561   0.19556   0.00000  Uiso   1.00
C19    C     0.37609   0.85892   0.13387   0.00000  Uiso   1.00
C20    C     0.35076   0.82316   0.08762   0.00000  Uiso   1.00
C21    C     0.35705   0.89857   0.29731   0.00000  Uiso   1.00
C22    C     0.35480   0.97481   0.32117   0.00000  Uiso   1.00
C23    C     0.31972   0.99206   0.36057   0.00000  Uiso   1.00
H24    H     0.30963   0.71768   0.29259   0.00000  Uiso   1.00
H25    H     0.36708   0.62385   0.34277   0.00000  Uiso   1.00
H26    H     0.28711   0.69869   0.17595   0.00000  Uiso   1.00
H27    H     0.26583   0.81456   0.36321   0.00000  Uiso   1.00
H28    H     0.44473   0.54495   0.39178   0.00000  Uiso   1.00
H29    H     0.27611   0.70277   0.04003   0.00000  Uiso   1.00
H30    H     0.23122   0.94711   0.43491   0.00000  Uiso   1.00
H31    H     0.41720   0.91141   0.24175   0.00000  Uiso   1.00
H32    H     0.48055   0.82821   0.28914   0.00000  Uiso   1.00
H33    H     0.40058   0.90304   0.12231   0.00000  Uiso   1.00
H34    H     0.37930   0.01892   0.30958   0.00000  Uiso   1.00
H35    H     0.53683   0.71081   0.34825   0.00000  Uiso   1.00
H36    H     0.36821   0.86864   0.99649   0.00000  Uiso   1.00
H37    H     0.32332   0.11297   0.39138   0.00000  Uiso   1.00
O38    O     0.53052   0.56965   0.40208   0.00000  Uiso   1.00
O39    O     0.30929   0.77671   0.94060   0.00000  Uiso   1.00
O40    O     0.25040   0.09727   0.45869   0.00000  Uiso   1.00
N41    N     0.45771   0.59541   0.37504   0.00000  Uiso   1.00
N42    N     0.30007   0.74296   0.04617   0.00000  Uiso   1.00
N43    N     0.25809   0.97140   0.41535   0.00000  Uiso   1.00
N44    N     0.50727   0.68466   0.35162   0.00000  Uiso   1.00
N45    N     0.34963   0.83220   0.02275   0.00000  Uiso   1.00
N46    N     0.30765   0.06065   0.39192   0.00000  Uiso   1.00
C47    C     0.83427   0.26206   0.28095   0.00000  Uiso   1.00
C48    C     0.88040   0.23795   0.30116   0.00000  Uiso   1.00
C49    C     0.89158   0.16796   0.33120   0.00000  Uiso   1.00
C50    C     0.93559   0.15697   0.34577   0.00000  Uiso   1.00
C51    C     0.00241   0.11084   0.37940   0.00000  Uiso   1.00
C52    C     0.83696   0.27861   0.21052   0.00000  Uiso   1.00
C53    C     0.81161   0.24280   0.16435   0.00000  Uiso   1.00
C54    C     0.81905   0.26605   0.10261   0.00000  Uiso   1.00
C55    C     0.81839   0.28308   0.99553   0.00000  Uiso   1.00
C56    C     0.82540   0.34156   0.31227   0.00000  Uiso   1.00
C57    C     0.79032   0.35869   0.35164   0.00000  Uiso   1.00
C58    C     0.78801   0.43495   0.37556   0.00000  Uiso   1.00
C59    C     0.76941   0.54972   0.42647   0.00000  Uiso   1.00
C60    C     0.89255   0.36702   0.25340   0.00000  Uiso   1.00
C61    C     0.91206   0.29496   0.28620   0.00000  Uiso   1.00
C62    C     0.95606   0.28408   0.30072   0.00000  Uiso   1.00
C63    C     0.96730   0.21408   0.33078   0.00000  Uiso   1.00
C64    C     0.86861   0.33561   0.19556   0.00000  Uiso   1.00
C65    C     0.87609   0.35892   0.13387   0.00000  Uiso   1.00
C66    C     0.85076   0.32316   0.08762   0.00000  Uiso   1.00
C67    C     0.85705   0.39857   0.29731   0.00000  Uiso   1.00
C68    C     0.85480   0.47481   0.32117   0.00000  Uiso   1.00
C69    C     0.81972   0.49206   0.36057   0.00000  Uiso   1.00
H70    H     0.80963   0.21768   0.29259   0.00000  Uiso   1.00
H71    H     0.86708   0.12385   0.34277   0.00000  Uiso   1.00
H72    H     0.78711   0.19869   0.17595   0.00000  Uiso   1.00
H73    H     0.76583   0.31456   0.36321   0.00000  Uiso   1.00
H74    H     0.94473   0.04495   0.39178   0.00000  Uiso   1.00
H75    H     0.77611   0.20277   0.04003   0.00000  Uiso   1.00
H76    H     0.73122   0.44711   0.43491   0.00000  Uiso   1.00
H77    H     0.91720   0.41141   0.24175   0.00000  Uiso   1.00
H78    H     0.98055   0.32821   0.28914   0.00000  Uiso   1.00
H79    H     0.90058   0.40304   0.12231   0.00000  Uiso   1.00
H80    H     0.87930   0.51892   0.30958   0.00000  Uiso   1.00
H81    H     0.03683   0.21081   0.34825   0.00000  Uiso   1.00
H82    H     0.86821   0.36864   0.99649   0.00000  Uiso   1.00
H83    H     0.82332   0.61297   0.39138   0.00000  Uiso   1.00
O84    O     0.03052   0.06965   0.40208   0.00000  Uiso   1.00
O85    O     0.80929   0.27671   0.94060   0.00000  Uiso   1.00
O86    O     0.75040   0.59727   0.45869   0.00000  Uiso   1.00
N87    N     0.95771   0.09541   0.37504   0.00000  Uiso   1.00
N88    N     0.80007   0.24296   0.04617   0.00000  Uiso   1.00
N89    N     0.75809   0.47140   0.41535   0.00000  Uiso   1.00
N90    N     0.00727   0.18466   0.35162   0.00000  Uiso   1.00
N91    N     0.84963   0.33220   0.02275   0.00000  Uiso   1.00
N92    N     0.80765   0.56065   0.39192   0.00000  Uiso   1.00
C93    C     0.16573   0.73794   0.28095   0.00000  Uiso   1.00
C94    C     0.11960   0.76205   0.30116   0.00000  Uiso   1.00
C95    C     0.10842   0.83204   0.33120   0.00000  Uiso   1.00
C96    C     0.06441   0.84303   0.34577   0.00000  Uiso   1.00
C97    C     0.99759   0.88916   0.37940   0.00000  Uiso   1.00
C98    C     0.16304   0.72139   0.21052   0.00000  Uiso   1.00
C99    C     0.18839   0.75720   0.16435   0.00000  Uiso   1.00
C100   C     0.18095   0.73395   0.10261   0.00000  Uiso   1.00
C101   C     0.18161   0.71692   0.99553   0.00000  Uiso   1.00
C102   C     0.17460   0.65844   0.31227   0.00000  Uiso   1.00
C103   C     0.20968   0.64131   0.35164   0.00000  Uiso   1.00
C104   C     0.21199   0.56505   0.37556   0.00000  Uiso   1.00
C105   C     0.23059   0.45028   0.42647   0.00000  Uiso   1.00
C106   C     0.10745   0.63298   0.25340   0.00000  Uiso   1.00
C107   C     0.08794   0.70504   0.28620   0.00000  Uiso   1.00
C108   C     0.04394   0.71592   0.30072   0.00000  Uiso   1.00
C109   C     0.03270   0.78592   0.33078   0.00000  Uiso   1.00
C110   C     0.13139   0.66439   0.19556   0.00000  Uiso   1.00
C111   C     0.12391   0.64108   0.13387   0.00000  Uiso   1.00
C112   C     0.14924   0.67684   0.08762   0.00000  Uiso   1.00
C113   C     0.14295   0.60143   0.29731   0.00000  Uiso   1.00
C114   C     0.14520   0.52519   0.32117   0.00000  Uiso   1.00
C115   C     0.18028   0.50794   0.36057   0.00000  Uiso   1.00
H116   H     0.19037   0.78232   0.29259   0.00000  Uiso   1.00
H117   H     0.13292   0.87615   0.34277   0.00000  Uiso   1.00
H118   H     0.21289   0.80131   0.17595   0.00000  Uiso   1.00
H119   H     0.23417   0.68544   0.36321   0.00000  Uiso   1.00
H120   H     0.05527   0.95505   0.39178   0.00000  Uiso   1.00
H121   H     0.22389   0.79723   0.04003   0.00000  Uiso   1.00
H122   H     0.26878   0.55289   0.43491   0.00000  Uiso   1.00
H123   H     0.08280   0.58859   0.24175   0.00000  Uiso   1.00
H124   H     0.01945   0.67179   0.28914   0.00000  Uiso   1.00
H125   H     0.09942   0.59696   0.12231   0.00000  Uiso   1.00
H126   H     0.12070   0.48108   0.30958   0.00000  Uiso   1.00
H127   H     0.96317   0.78919   0.34825   0.00000  Uiso   1.00
H128   H     0.13179   0.63136   0.99649   0.00000  Uiso   1.00
H129   H     0.17668   0.38703   0.39138   0.00000  Uiso   1.00
O130   O     0.96948   0.93035   0.40208   0.00000  Uiso   1.00
O131   O     0.19071   0.72329   0.94060   0.00000  Uiso   1.00
O132   O     0.24960   0.40273   0.45869   0.00000  Uiso   1.00
N133   N     0.04229   0.90459   0.37504   0.00000  Uiso   1.00
N134   N     0.19993   0.75704   0.04617   0.00000  Uiso   1.00
N135   N     0.24191   0.52860   0.41535   0.00000  Uiso   1.00
N136   N     0.99273   0.81534   0.35162   0.00000  Uiso   1.00
N137   N     0.15037   0.66780   0.02275   0.00000  Uiso   1.00
N138   N     0.19235   0.43935   0.39192   0.00000  Uiso   1.00
C139   C     0.66573   0.23794   0.28095   0.00000  Uiso   1.00
C140   C     0.61960   0.26205   0.30116   0.00000  Uiso   1.00
C141   C     0.60842   0.33204   0.33120   0.00000  Uiso   1.00
C142   C     0.56441   0.34303   0.34577   0.00000  Uiso   1.00
C143   C     0.49759   0.38916   0.37940   0.00000  Uiso   1.00
C144   C     0.66304   0.22139   0.21052   0.00000  Uiso   1.00
C145   C     0.68839   0.25720   0.16435   0.00000  Uiso   1.00
C146   C     0.68095   0.23395   0.10261   0.00000  Uiso   1.00
C147   C     0.68161   0.21692   0.99553   0.00000  Uiso   1.00
C148   C     0.67460   0.15844   0.31227   0.00000  Uiso   1.00
C149   C     0.70968   0.14131   0.35164   0.00000  Uiso   1.00
C150   C     0.71199   0.06505   0.37556   0.00000  Uiso   1.00
C151   C     0.73059   0.95028   0.42647   0.00000  Uiso   1.00
C152   C     0.60745   0.13298   0.25340   0.00000  Uiso   1.00
C153   C     0.58794   0.20504   0.28620   0.00000  Uiso   1.00
C154   C     0.54394   0.21592   0.30072   0.00000  Uiso   1.00
C155   C     0.53270   0.28592   0.33078   0.00000  Uiso   1.00
C156   C     0.63139   0.16439   0.19556   0.00000  Uiso   1.00
C157   C     0.62391   0.14108   0.13387   0.00000  Uiso   1.00
C158   C     0.64924   0.17684   0.08762   0.00000  Uiso   1.00
C159   C     0.64295   0.10143   0.29731   0.00000  Uiso   1.00
C160   C     0.64520   0.02519   0.32117   0.00000  Uiso   1.00
C161   C     0.68028   0.00794   0.36057   0.00000  Uiso   1.00
H162   H     0.69037   0.28232   0.29259   0.00000  Uiso   1.00
H163   H     0.63292   0.37615   0.34277   0.00000  Uiso   1.00
H164   H     0.71289   0.30131   0.17595   0.00000  Uiso   1.00
H165   H     0.73417   0.18544   0.36321   0.00000  Uiso   1.00
H166   H     0.55527   0.45505   0.39178   0.00000  Uiso   1.00
H167   H     0.72389   0.29723   0.04003   0.00000  Uiso   1.00
H168   H     0.76878   0.05289   0.43491   0.00000  Uiso   1.00
H169   H     0.58280   0.08859   0.24175   0.00000  Uiso   1.00
H170   H     0.51945   0.17179   0.28914   0.00000  Uiso   1.00
H171   H     0.59942   0.09696   0.12231   0.00000  Uiso   1.00
H172   H     0.62070   0.98108   0.30958   0.00000  Uiso   1.00
H173   H     0.46317   0.28919   0.34825   0.00000  Uiso   1.00
H174   H     0.63179   0.13136   0.99649   0.00000  Uiso   1.00
H175   H     0.67668   0.88703   0.39138   0.00000  Uiso   1.00
O176   O     0.46948   0.43035   0.40208   0.00000  Uiso   1.00
O177   O     0.69071   0.22329   0.94060   0.00000  Uiso   1.00
O178   O     0.74960   0.90273   0.45869   0.00000  Uiso   1.00
N179   N     0.54229   0.40459   0.37504   0.00000  Uiso   1.00
N180   N     0.69993   0.25704   0.04617   0.00000  Uiso   1.00
N181   N     0.74191   0.02860   0.41535   0.00000  Uiso   1.00
N182   N     0.49273   0.31534   0.35162   0.00000  Uiso   1.00
N183   N     0.65037   0.16780   0.02275   0.00000  Uiso   1.00
N184   N     0.69235   0.93935   0.39192   0.00000  Uiso   1.00
C185   C     0.66573   0.76206   0.71905   0.00000  Uiso   1.00
C186   C     0.61960   0.73795   0.69884   0.00000  Uiso   1.00
C187   C     0.60842   0.66796   0.66880   0.00000  Uiso   1.00
C188   C     0.56441   0.65697   0.65423   0.00000  Uiso   1.00
C189   C     0.49759   0.61084   0.62060   0.00000  Uiso   1.00
C190   C     0.66304   0.77861   0.78948   0.00000  Uiso   1.00
C191   C     0.68839   0.74280   0.83565   0.00000  Uiso   1.00
C192   C     0.68095   0.76605   0.89739   0.00000  Uiso   1.00
C193   C     0.68161   0.78308   0.00447   0.00000  Uiso   1.00
C194   C     0.67460   0.84156   0.68773   0.00000  Uiso   1.00
C195   C     0.70968   0.85869   0.64836   0.00000  Uiso   1.00
C196   C     0.71199   0.93495   0.62444   0.00000  Uiso   1.00
C197   C     0.73059   0.04972   0.57353   0.00000  Uiso   1.00
C198   C     0.60745   0.86702   0.74660   0.00000  Uiso   1.00
C199   C     0.58794   0.79496   0.71380   0.00000  Uiso   1.00
C200   C     0.54394   0.78408   0.69928   0.00000  Uiso   1.00
C201   C     0.53270   0.71408   0.66922   0.00000  Uiso   1.00
C202   C     0.63139   0.83561   0.80444   0.00000  Uiso   1.00
C203   C     0.62391   0.85892   0.86613   0.00000  Uiso   1.00
C204   C     0.64924   0.82316   0.91238   0.00000  Uiso   1.00
C205   C     0.64295   0.89857   0.70269   0.00000  Uiso   1.00
C206   C     0.64520   0.97481   0.67883   0.00000  Uiso   1.00
C207   C     0.68028   0.99206   0.63943   0.00000  Uiso   1.00
H208   H     0.69037   0.71768   0.70741   0.00000  Uiso   1.00
H209   H     0.63292   0.62385   0.65723   0.00000  Uiso   1.00
H210   H     0.71289   0.69869   0.82405   0.00000  Uiso   1.00
H211   H     0.73417   0.81456   0.63679   0.00000  Uiso   1.00
H212   H     0.55527   0.54495   0.60822   0.00000  Uiso   1.00
H213   H     0.72389   0.70277   0.95997   0.00000  Uiso   1.00
H214   H     0.76878   0.94711   0.56509   0.00000  Uiso   1.00
H215   H     0.58280   0.91141   0.75825   0.00000  Uiso   1.00
H216   H     0.51945   0.82821   0.71086   0.00000  Uiso   1.00
H217   H     0.59942   0.90304   0.87769   0.00000  Uiso   1.00
H218   H     0.62070   0.01892   0.69042   0.00000  Uiso   1.00
H219   H     0.46317   0.71081   0.65175   0.00000  Uiso   1.00
H220   H     0.63179   0.86864   0.00351   0.00000  Uiso   1.00
H221   H     0.67668   0.11297   0.60862   0.00000  Uiso   1.00
O222   O     0.46948   0.56965   0.59792   0.00000  Uiso   1.00
O223   O     0.69071   0.77671   0.05940   0.00000  Uiso   1.00
O224   O     0.74960   0.09727   0.54131   0.00000  Uiso   1.00
N225   N     0.54229   0.59541   0.62496   0.00000  Uiso   1.00
N226   N     0.69993   0.74296   0.95383   0.00000  Uiso   1.00
N227   N     0.74191   0.97140   0.58465   0.00000  Uiso   1.00
N228   N     0.49273   0.68466   0.64838   0.00000  Uiso   1.00
N229   N     0.65037   0.83220   0.97725   0.00000  Uiso   1.00
N230   N     0.69235   0.06065   0.60808   0.00000  Uiso   1.00
C231   C     0.16573   0.26206   0.71905   0.00000  Uiso   1.00
C232   C     0.11960   0.23795   0.69884   0.00000  Uiso   1.00
C233   C     0.10842   0.16796   0.66880   0.00000  Uiso   1.00
C234   C     0.06441   0.15697   0.65423   0.00000  Uiso   1.00
C235   C     0.99759   0.11084   0.62060   0.00000  Uiso   1.00
C236   C     0.16304   0.27861   0.78948   0.00000  Uiso   1.00
C237   C     0.18839   0.24280   0.83565   0.00000  Uiso   1.00
C238   C     0.18095   0.26605   0.89739   0.00000  Uiso   1.00
C239   C     0.18161   0.28308   0.00447   0.00000  Uiso   1.00
C240   C     0.17460   0.34156   0.68773   0.00000  Uiso   1.00
C241   C     0.20968   0.35869   0.64836   0.00000  Uiso   1.00
C242   C     0.21199   0.43495   0.62444   0.00000  Uiso   1.00
C243   C     0.23059   0.54972   0.57353   0.00000  Uiso   1.00
C244   C     0.10745   0.36702   0.74660   0.00000  Uiso   1.00
C245   C     0.08794   0.29496   0.71380   0.00000  Uiso   1.00
C246   C     0.04394   0.28408   0.69928   0.00000  Uiso   1.00
C247   C     0.03270   0.21408   0.66922   0.00000  Uiso   1.00
C248   C     0.13139   0.33561   0.80444   0.00000  Uiso   1.00
C249   C     0.12391   0.35892   0.86613   0.00000  Uiso   1.00
C250   C     0.14924   0.32316   0.91238   0.00000  Uiso   1.00
C251   C     0.14295   0.39857   0.70269   0.00000  Uiso   1.00
C252   C     0.14520   0.47481   0.67883   0.00000  Uiso   1.00
C253   C     0.18028   0.49206   0.63943   0.00000  Uiso   1.00
H254   H     0.19037   0.21768   0.70741   0.00000  Uiso   1.00
H255   H     0.13292   0.12385   0.65723   0.00000  Uiso   1.00
H256   H     0.21289   0.19869   0.82405   0.00000  Uiso   1.00
H257   H     0.23417   0.31456   0.63679   0.00000  Uiso   1.00
H258   H     0.05527   0.04495   0.60822   0.00000  Uiso   1.00
H259   H     0.22389   0.20277   0.95997   0.00000  Uiso   1.00
H260   H     0.26878   0.44711   0.56509   0.00000  Uiso   1.00
H261   H     0.08280   0.41141   0.75825   0.00000  Uiso   1.00
H262   H     0.01945   0.32821   0.71086   0.00000  Uiso   1.00
H263   H     0.09942   0.40304   0.87769   0.00000  Uiso   1.00
H264   H     0.12070   0.51892   0.69042   0.00000  Uiso   1.00
H265   H     0.96317   0.21081   0.65175   0.00000  Uiso   1.00
H266   H     0.13179   0.36864   0.00351   0.00000  Uiso   1.00
H267   H     0.17668   0.61297   0.60862   0.00000  Uiso   1.00
O268   O     0.96948   0.06965   0.59792   0.00000  Uiso   1.00
O269   O     0.19071   0.27671   0.05940   0.00000  Uiso   1.00
O270   O     0.24960   0.59727   0.54131   0.00000  Uiso   1.00
N271   N     0.04229   0.09541   0.62496   0.00000  Uiso   1.00
N272   N     0.19993   0.24296   0.95383   0.00000  Uiso   1.00
N273   N     0.24191   0.47140   0.58465   0.00000  Uiso   1.00
N274   N     0.99273   0.18466   0.64838   0.00000  Uiso   1.00
N275   N     0.15037   0.33220   0.97725   0.00000  Uiso   1.00
N276   N     0.19235   0.56065   0.60808   0.00000  Uiso   1.00
C277   C     0.83427   0.73794   0.71905   0.00000  Uiso   1.00
C278   C     0.88040   0.76205   0.69884   0.00000  Uiso   1.00
C279   C     0.89158   0.83204   0.66880   0.00000  Uiso   1.00
C280   C     0.93559   0.84303   0.65423   0.00000  Uiso   1.00
C281   C     0.00241   0.88916   0.62060   0.00000  Uiso   1.00
C282   C     0.83696   0.72139   0.78948   0.00000  Uiso   1.00
C283   C     0.81161   0.75720   0.83565   0.00000  Uiso   1.00
C284   C     0.81905   0.73395   0.89739   0.00000  Uiso   1.00
C285   C     0.81839   0.71692   0.00447   0.00000  Uiso   1.00
C286   C     0.82540   0.65844   0.68773   0.00000  Uiso   1.00
C287   C     0.79032   0.64131   0.64836   0.00000  Uiso   1.00
C288   C     0.78801   0.56505   0.62444   0.00000  Uiso   1.00
C289   C     0.76941   0.45028   0.57353   0.00000  Uiso   1.00
C290   C     0.89255   0.63298   0.74660   0.00000  Uiso   1.00
C291   C     0.91206   0.70504   0.71380   0.00000  Uiso   1.00
C292   C     0.95606   0.71592   0.69928   0.00000  Uiso   1.00
C293   C     0.96730   0.78592   0.66922   0.00000  Uiso   1.00
C294   C     0.86861   0.66439   0.80444   0.00000  Uiso   1.00
C295   C     0.87609   0.64108   0.86613   0.00000  Uiso   1.00
C296   C     0.85076   0.67684   0.91238   0.00000  Uiso   1.00
C297   C     0.85705   0.60143   0.70269   0.00000  Uiso   1.00
C298   C     0.85480   0.52519   0.67883   0.00000  Uiso   1.00
C299   C     0.81972   0.50794   0.63943   0.00000  Uiso   1.00
H300   H     0.80963   0.78232   0.70741   0.00000  Uiso   1.00
H301   H     0.86708   0.87615   0.65723   0.00000  Uiso   1.00
H302   H     0.78711   0.80131   0.82405   0.00000  Uiso   1.00
H303   H     0.76583   0.68544   0.63679   0.00000  Uiso   1.00
H304   H     0.94473   0.95505   0.60822   0.00000  Uiso   1.00
H305   H     0.77611   0.79723   0.95997   0.00000  Uiso   1.00
H306   H     0.73122   0.55289   0.56509   0.00000  Uiso   1.00
H307   H     0.91720   0.58859   0.75825   0.00000  Uiso   1.00
H308   H     0.98055   0.67179   0.71086   0.00000  Uiso   1.00
H309   H     0.90058   0.59696   0.87769   0.00000  Uiso   1.00
H310   H     0.87930   0.48108   0.69042   0.00000  Uiso   1.00
H311   H     0.03683   0.78919   0.65175   0.00000  Uiso   1.00
H312   H     0.86821   0.63136   0.00351   0.00000  Uiso   1.00
H313   H     0.82332   0.38703   0.60862   0.00000  Uiso   1.00
O314   O     0.03052   0.93035   0.59792   0.00000  Uiso   1.00
O315   O     0.80929   0.72329   0.05940   0.00000  Uiso   1.00
O316   O     0.75040   0.40273   0.54131   0.00000  Uiso   1.00
N317   N     0.95771   0.90459   0.62496   0.00000  Uiso   1.00
N318   N     0.80007   0.75704   0.95383   0.00000  Uiso   1.00
N319   N     0.75809   0.52860   0.58465   0.00000  Uiso   1.00
N320   N     0.00727   0.81534   0.64838   0.00000  Uiso   1.00
N321   N     0.84963   0.66780   0.97725   0.00000  Uiso   1.00
N322   N     0.80765   0.43935   0.60808   0.00000  Uiso   1.00
C323   C     0.33427   0.23794   0.71905   0.00000  Uiso   1.00
C324   C     0.38040   0.26205   0.69884   0.00000  Uiso   1.00
C325   C     0.39158   0.33204   0.66880   0.00000  Uiso   1.00
C326   C     0.43559   0.34303   0.65423   0.00000  Uiso   1.00
C327   C     0.50241   0.38916   0.62060   0.00000  Uiso   1.00
C328   C     0.33696   0.22139   0.78948   0.00000  Uiso   1.00
C329   C     0.31161   0.25720   0.83565   0.00000  Uiso   1.00
C330   C     0.31905   0.23395   0.89739   0.00000  Uiso   1.00
C331   C     0.31839   0.21692   0.00447   0.00000  Uiso   1.00
C332   C     0.32540   0.15844   0.68773   0.00000  Uiso   1.00
C333   C     0.29032   0.14131   0.64836   0.00000  Uiso   1.00
C334   C     0.28801   0.06505   0.62444   0.00000  Uiso   1.00
C335   C     0.26941   0.95028   0.57353   0.00000  Uiso   1.00
C336   C     0.39255   0.13298   0.74660   0.00000  Uiso   1.00
C337   C     0.41206   0.20504   0.71380   0.00000  Uiso   1.00
C338   C     0.45606   0.21592   0.69928   0.00000  Uiso   1.00
C339   C     0.46730   0.28592   0.66922   0.00000  Uiso   1.00
C340   C     0.36861   0.16439   0.80444   0.00000  Uiso   1.00
C341   C     0.37609   0.14108   0.86613   0.00000  Uiso   1.00
C342   C     0.35076   0.17684   0.91238   0.00000  Uiso   1.00
C343   C     0.35705   0.10143   0.70269   0.00000  Uiso   1.00
C344   C     0.35480   0.02519   0.67883   0.00000  Uiso   1.00
C345   C     0.31972   0.00794   0.63943   0.00000  Uiso   1.00
H346   H     0.30963   0.28232   0.70741   0.00000  Uiso   1.00
H347   H     0.36708   0.37615   0.65723   0.00000  Uiso   1.00
H348   H     0.28711   0.30131   0.82405   0.00000  Uiso   1.00
H349   H     0.26583   0.18544   0.63679   0.00000  Uiso   1.00
H350   H     0.44473   0.45505   0.60822   0.00000  Uiso   1.00
H351   H     0.27611   0.29723   0.95997   0.00000  Uiso   1.00
H352   H     0.23122   0.05289   0.56509   0.00000  Uiso   1.00
H353   H     0.41720   0.08859   0.75825   0.00000  Uiso   1.00
H354   H     0.48055   0.17179   0.71086   0.00000  Uiso   1.00
H355   H     0.40058   0.09696   0.87769   0.00000  Uiso   1.00
H356   H     0.37930   0.98108   0.69042   0.00000  Uiso   1.00
H357   H     0.53683   0.28919   0.65175   0.00000  Uiso   1.00
H358   H     0.36821   0.13136   0.00351   0.00000  Uiso   1.00
H359   H     0.32332   0.88703   0.60862   0.00000  Uiso   1.00
O360   O     0.53052   0.43035   0.59792   0.00000  Uiso   1.00
O361   O     0.30929   0.22329   0.05940   0.00000  Uiso   1.00
O362   O     0.25040   0.90273   0.54131   0.00000  Uiso   1.00
N363   N     0.45771   0.40459   0.62496   0.00000  Uiso   1.00
N364   N     0.30007   0.25704   0.95383   0.00000  Uiso   1.00
N365   N     0.25809   0.02860   0.58465   0.00000  Uiso   1.00
N366   N     0.50727   0.31534   0.64838   0.00000  Uiso   1.00
N367   N     0.34963   0.16780   0.97725   0.00000  Uiso   1.00
N368   N     0.30765   0.93935   0.60808   0.00000  Uiso   1.00
C369   C     0.66573   0.73794   0.21905   0.00000  Uiso   1.00
C370   C     0.61960   0.76205   0.19884   0.00000  Uiso   1.00
C371   C     0.60842   0.83204   0.16880   0.00000  Uiso   1.00
C372   C     0.56441   0.84303   0.15423   0.00000  Uiso   1.00
C373   C     0.49759   0.88916   0.12060   0.00000  Uiso   1.00
C374   C     0.66304   0.72139   0.28948   0.00000  Uiso   1.00
C375   C     0.68839   0.75720   0.33565   0.00000  Uiso   1.00
C376   C     0.68095   0.73395   0.39739   0.00000  Uiso   1.00
C377   C     0.68161   0.71692   0.50447   0.00000  Uiso   1.00
C378   C     0.67460   0.65844   0.18773   0.00000  Uiso   1.00
C379   C     0.70968   0.64131   0.14836   0.00000  Uiso   1.00
C380   C     0.71199   0.56505   0.12444   0.00000  Uiso   1.00
C381   C     0.73059   0.45028   0.07353   0.00000  Uiso   1.00
C382   C     0.60745   0.63298   0.24660   0.00000  Uiso   1.00
C383   C     0.58794   0.70504   0.21380   0.00000  Uiso   1.00
C384   C     0.54394   0.71592   0.19928   0.00000  Uiso   1.00
C385   C     0.53270   0.78592   0.16922   0.00000  Uiso   1.00
C386   C     0.63139   0.66439   0.30444   0.00000  Uiso   1.00
C387   C     0.62391   0.64108   0.36613   0.00000  Uiso   1.00
C388   C     0.64924   0.67684   0.41238   0.00000  Uiso   1.00
C389   C     0.64295   0.60143   0.20269   0.00000  Uiso   1.00
C390   C     0.64520   0.52519   0.17883   0.00000  Uiso   1.00
C391   C     0.68028   0.50794   0.13943   0.00000  Uiso   1.00
H392   H     0.69037   0.78232   0.20741   0.00000  Uiso   1.00
H393   H     0.63292   0.87615   0.15723   0.00000  Uiso   1.00
H394   H     0.71289   0.80131   0.32405   0.00000  Uiso   1.00
H395   H     0.73417   0.68544   0.13679   0.00000  Uiso   1.00
H396   H     0.55527   0.95505   0.10822   0.00000  Uiso   1.00
H397   H     0.72389   0.79723   0.45997   0.00000  Uiso   1.00
H398   H     0.76878   0.55289   0.06509   0.00000  Uiso   1.00
H399   H     0.58280   0.58859   0.25825   0.00000  Uiso   1.00
H400   H     0.51945   0.67179   0.21086   0.00000  Uiso   1.00
H401   H     0.59942   0.59696   0.37769   0.00000  Uiso   1.00
H402   H     0.62070   0.48108   0.19042   0.00000  Uiso   1.00
H403   H     0.46317   0.78919   0.15175   0.00000  Uiso   1.00
H404   H     0.63179   0.63136   0.50351   0.00000  Uiso   1.00
H405   H     0.67668   0.38703   0.10862   0.00000  Uiso   1.00
O406   O     0.46948   0.93035   0.09792   0.00000  Uiso   1.00
O407   O     0.69071   0.72329   0.55940   0.00000  Uiso   1.00
O408   O     0.74960   0.40273   0.04131   0.00000  Uiso   1.00
N409   N     0.54229   0.90459   0.12496   0.00000  Uiso   1.00
N410   N     0.69993   0.75704   0.45383   0.00000  Uiso   1.00
N411   N     0.74191   0.52860   0.08465   0.00000  Uiso   1.00
N412   N     0.49273   0.81534   0.14838   0.00000  Uiso   1.00
N413   N     0.65037   0.66780   0.47725   0.00000  Uiso   1.00
N414   N     0.69235   0.43935   0.10808   0.00000  Uiso   1.00
C415   C     0.16573   0.23794   0.21905   0.00000  Uiso   1.00
C416   C     0.11960   0.26205   0.19884   0.00000  Uiso   1.00
C417   C     0.10842   0.33204   0.16880   0.00000  Uiso   1.00
C418   C     0.06441   0.34303   0.15423   0.00000  Uiso   1.00
C419   C     0.99759   0.38916   0.12060   0.00000  Uiso   1.00
C420   C     0.16304   0.22139   0.28948   0.00000  Uiso   1.00
C421   C     0.18839   0.25720   0.33565   0.00000  Uiso   1.00
C422   C     0.18095   0.23395   0.39739   0.00000  Uiso   1.00
C423   C     0.18161   0.21692   0.50447   0.00000  Uiso   1.00
C424   C     0.17460   0.15844   0.18773   0.00000  Uiso   1.00
C425   C     0.20968   0.14131   0.14836   0.00000  Uiso   1.00
C426   C     0.21199   0.06505   0.12444   0.00000  Uiso   1.00
C427   C     0.23059   0.95028   0.07353   0.00000  Uiso   1.00
C428   C     0.10745   0.13298   0.24660   0.00000  Uiso   1.00
C429   C     0.08794   0.20504   0.21380   0.00000  Uiso   1.00
C430   C     0.04394   0.21592   0.19928   0.00000  Uiso   1.00
C431   C     0.03270   0.28592   0.16922   0.00000  Uiso   1.00
C432   C     0.13139   0.16439   0.30444   0.00000  Uiso   1.00
C433   C     0.12391   0.14108   0.36613   0.00000  Uiso   1.00
C434   C     0.14924   0.17684   0.41238   0.00000  Uiso   1.00
C435   C     0.14295   0.10143   0.20269   0.00000  Uiso   1.00
C436   C     0.14520   0.02519   0.17883   0.00000  Uiso   1.00
C437   C     0.18028   0.00794   0.13943   0.00000  Uiso   1.00
H438   H     0.19037   0.28232   0.20741   0.00000  Uiso   1.00
H439   H     0.13292   0.37615   0.15723   0.00000  Uiso   1.00
H440   H     0.21289   0.30131   0.32405   0.00000  Uiso   1.00
H441   H     0.23417   0.18544   0.13679   0.00000  Uiso   1.00
H442   H     0.05527   0.45505   0.10822   0.00000  Uiso   1.00
H443   H     0.22389   0.29723   0.45997   0.00000  Uiso   1.00
H444   H     0.26878   0.05289   0.06509   0.00000  Uiso   1.00
H445   H     0.08280   0.08859   0.25825   0.00000  Uiso   1.00
H446   H     0.01945   0.17179   0.21086   0.00000  Uiso   1.00
H447   H     0.09942   0.09696   0.37769   0.00000  Uiso   1.00
H448   H     0.12070   0.98108   0.19042   0.00000  Uiso   1.00
H449   H     0.96317   0.28919   0.15175   0.00000  Uiso   1.00
H450   H     0.13179   0.13136   0.50351   0.00000  Uiso   1.00
H451   H     0.17668   0.88703   0.10862   0.00000  Uiso   1.00
O452   O     0.96948   0.43035   0.09792   0.00000  Uiso   1.00
O453   O     0.19071   0.22329   0.55940   0.00000  Uiso   1.00
O454   O     0.24960   0.90273   0.04131   0.00000  Uiso   1.00
N455   N     0.04229   0.40459   0.12496   0.00000  Uiso   1.00
N456   N     0.19993   0.25704   0.45383   0.00000  Uiso   1.00
N457   N     0.24191   0.02860   0.08465   0.00000  Uiso   1.00
N458   N     0.99273   0.31534   0.14838   0.00000  Uiso   1.00
N459   N     0.15037   0.16780   0.47725   0.00000  Uiso   1.00
N460   N     0.19235   0.93935   0.10808   0.00000  Uiso   1.00
C461   C     0.83427   0.76206   0.21905   0.00000  Uiso   1.00
C462   C     0.88040   0.73795   0.19884   0.00000  Uiso   1.00
C463   C     0.89158   0.66796   0.16880   0.00000  Uiso   1.00
C464   C     0.93559   0.65697   0.15423   0.00000  Uiso   1.00
C465   C     0.00241   0.61084   0.12060   0.00000  Uiso   1.00
C466   C     0.83696   0.77861   0.28948   0.00000  Uiso   1.00
C467   C     0.81161   0.74280   0.33565   0.00000  Uiso   1.00
C468   C     0.81905   0.76605   0.39739   0.00000  Uiso   1.00
C469   C     0.81839   0.78308   0.50447   0.00000  Uiso   1.00
C470   C     0.82540   0.84156   0.18773   0.00000  Uiso   1.00
C471   C     0.79032   0.85869   0.14836   0.00000  Uiso   1.00
C472   C     0.78801   0.93495   0.12444   0.00000  Uiso   1.00
C473   C     0.76941   0.04972   0.07353   0.00000  Uiso   1.00
C474   C     0.89255   0.86702   0.24660   0.00000  Uiso   1.00
C475   C     0.91206   0.79496   0.21380   0.00000  Uiso   1.00
C476   C     0.95606   0.78408   0.19928   0.00000  Uiso   1.00
C477   C     0.96730   0.71408   0.16922   0.00000  Uiso   1.00
C478   C     0.86861   0.83561   0.30444   0.00000  Uiso   1.00
C479   C     0.87609   0.85892   0.36613   0.00000  Uiso   1.00
C480   C     0.85076   0.82316   0.41238   0.00000  Uiso   1.00
C481   C     0.85705   0.89857   0.20269   0.00000  Uiso   1.00
C482   C     0.85480   0.97481   0.17883   0.00000  Uiso   1.00
C483   C     0.81972   0.99206   0.13943   0.00000  Uiso   1.00
H484   H     0.80963   0.71768   0.20741   0.00000  Uiso   1.00
H485   H     0.86708   0.62385   0.15723   0.00000  Uiso   1.00
H486   H     0.78711   0.69869   0.32405   0.00000  Uiso   1.00
H487   H     0.76583   0.81456   0.13679   0.00000  Uiso   1.00
H488   H     0.94473   0.54495   0.10822   0.00000  Uiso   1.00
H489   H     0.77611   0.70277   0.45997   0.00000  Uiso   1.00
H490   H     0.73122   0.94711   0.06509   0.00000  Uiso   1.00
H491   H     0.91720   0.91141   0.25825   0.00000  Uiso   1.00
H492   H     0.98055   0.82821   0.21086   0.00000  Uiso   1.00
H493   H     0.90058   0.90304   0.37769   0.00000  Uiso   1.00
H494   H     0.87930   0.01892   0.19042   0.00000  Uiso   1.00
H495   H     0.03683   0.71081   0.15175   0.00000  Uiso   1.00
H496   H     0.86821   0.86864   0.50351   0.00000  Uiso   1.00
H497   H     0.82332   0.11297   0.10862   0.00000  Uiso   1.00
O498   O     0.03052   0.56965   0.09792   0.00000  Uiso   1.00
O499   O     0.80929   0.77671   0.55940   0.00000  Uiso   1.00
O500   O     0.75040   0.09727   0.04131   0.00000  Uiso   1.00
N501   N     0.95771   0.59541   0.12496   0.00000  Uiso   1.00
N502   N     0.80007   0.74296   0.45383   0.00000  Uiso   1.00
N503   N     0.75809   0.97140   0.08465   0.00000  Uiso   1.00
N504   N     0.00727   0.68466   0.14838   0.00000  Uiso   1.00
N505   N     0.84963   0.83220   0.47725   0.00000  Uiso   1.00
N506   N     0.80765   0.06065   0.10808   0.00000  Uiso   1.00
C507   C     0.33427   0.26206   0.21905   0.00000  Uiso   1.00
C508   C     0.38040   0.23795   0.19884   0.00000  Uiso   1.00
C509   C     0.39158   0.16796   0.16880   0.00000  Uiso   1.00
C510   C     0.43559   0.15697   0.15423   0.00000  Uiso   1.00
C511   C     0.50241   0.11084   0.12060   0.00000  Uiso   1.00
C512   C     0.33696   0.27861   0.28948   0.00000  Uiso   1.00
C513   C     0.31161   0.24280   0.33565   0.00000  Uiso   1.00
C514   C     0.31905   0.26605   0.39739   0.00000  Uiso   1.00
C515   C     0.31839   0.28308   0.50447   0.00000  Uiso   1.00
C516   C     0.32540   0.34156   0.18773   0.00000  Uiso   1.00
C517   C     0.29032   0.35869   0.14836   0.00000  Uiso   1.00
C518   C     0.28801   0.43495   0.12444   0.00000  Uiso   1.00
C519   C     0.26941   0.54972   0.07353   0.00000  Uiso   1.00
C520   C     0.39255   0.36702   0.24660   0.00000  Uiso   1.00
C521   C     0.41206   0.29496   0.21380   0.00000  Uiso   1.00
C522   C     0.45606   0.28408   0.19928   0.00000  Uiso   1.00
C523   C     0.46730   0.21408   0.16922   0.00000  Uiso   1.00
C524   C     0.36861   0.33561   0.30444   0.00000  Uiso   1.00
C525   C     0.37609   0.35892   0.36613   0.00000  Uiso   1.00
C526   C     0.35076   0.32316   0.41238   0.00000  Uiso   1.00
C527   C     0.35705   0.39857   0.20269   0.00000  Uiso   1.00
C528   C     0.35480   0.47481   0.17883   0.00000  Uiso   1.00
C529   C     0.31972   0.49206   0.13943   0.00000  Uiso   1.00
H530   H     0.30963   0.21768   0.20741   0.00000  Uiso   1.00
H531   H     0.36708   0.12385   0.15723   0.00000  Uiso   1.00
H532   H     0.28711   0.19869   0.32405   0.00000  Uiso   1.00
H533   H     0.26583   0.31456   0.13679   0.00000  Uiso   1.00
H534   H     0.44473   0.04495   0.10822   0.00000  Uiso   1.00
H535   H     0.27611   0.20277   0.45997   0.00000  Uiso   1.00
H536   H     0.23122   0.44711   0.06509   0.00000  Uiso   1.00
H537   H     0.41720   0.41141   0.25825   0.00000  Uiso   1.00
H538   H     0.48055   0.32821   0.21086   0.00000  Uiso   1.00
H539   H     0.40058   0.40304   0.37769   0.00000  Uiso   1.00
H540   H     0.37930   0.51892   0.19042   0.00000  Uiso   1.00
H541   H     0.53683   0.21081   0.15175   0.00000  Uiso   1.00
H542   H     0.36821   0.36864   0.50351   0.00000  Uiso   1.00
H543   H     0.32332   0.61297   0.10862   0.00000  Uiso   1.00
O544   O     0.53052   0.06965   0.09792   0.00000  Uiso   1.00
O545   O     0.30929   0.27671   0.55940   0.00000  Uiso   1.00
O546   O     0.25040   0.59727   0.04131   0.00000  Uiso   1.00
N547   N     0.45771   0.09541   0.12496   0.00000  Uiso   1.00
N548   N     0.30007   0.24296   0.45383   0.00000  Uiso   1.00
N549   N     0.25809   0.47140   0.08465   0.00000  Uiso   1.00
N550   N     0.50727   0.18466   0.14838   0.00000  Uiso   1.00
N551   N     0.34963   0.33220   0.47725   0.00000  Uiso   1.00
N552   N     0.30765   0.56065   0.10808   0.00000  Uiso   1.00
C553   C     0.33427   0.73794   0.78095   0.00000  Uiso   1.00
C554   C     0.38040   0.76205   0.80116   0.00000  Uiso   1.00
C555   C     0.39158   0.83204   0.83120   0.00000  Uiso   1.00
C556   C     0.43559   0.84303   0.84577   0.00000  Uiso   1.00
C557   C     0.50241   0.88916   0.87940   0.00000  Uiso   1.00
C558   C     0.33696   0.72139   0.71052   0.00000  Uiso   1.00
C559   C     0.31161   0.75720   0.66435   0.00000  Uiso   1.00
C560   C     0.31905   0.73395   0.60261   0.00000  Uiso   1.00
C561   C     0.31839   0.71692   0.49553   0.00000  Uiso   1.00
C562   C     0.32540   0.65844   0.81227   0.00000  Uiso   1.00
C563   C     0.29032   0.64131   0.85164   0.00000  Uiso   1.00
C564   C     0.28801   0.56505   0.87556   0.00000  Uiso   1.00
C565   C     0.26941   0.45028   0.92647   0.00000  Uiso   1.00
C566   C     0.39255   0.63298   0.75340   0.00000  Uiso   1.00
C567   C     0.41206   0.70504   0.78620   0.00000  Uiso   1.00
C568   C     0.45606   0.71592   0.80072   0.00000  Uiso   1.00
C569   C     0.46730   0.78592   0.83078   0.00000  Uiso   1.00
C570   C     0.36861   0.66439   0.69556   0.00000  Uiso   1.00
C571   C     0.37609   0.64108   0.63387   0.00000  Uiso   1.00
C572   C     0.35076   0.67684   0.58762   0.00000  Uiso   1.00
C573   C     0.35705   0.60143   0.79731   0.00000  Uiso   1.00
C574   C     0.35480   0.52519   0.82117   0.00000  Uiso   1.00
C575   C     0.31972   0.50794   0.86057   0.00000  Uiso   1.00
H576   H     0.30963   0.78232   0.79259   0.00000  Uiso   1.00
H577   H     0.36708   0.87615   0.84277   0.00000  Uiso   1.00
H578   H     0.28711   0.80131   0.67595   0.00000  Uiso   1.00
H579   H     0.26583   0.68544   0.86321   0.00000  Uiso   1.00
H580   H     0.44473   0.95505   0.89178   0.00000  Uiso   1.00
H581   H     0.27611   0.79723   0.54003   0.00000  Uiso   1.00
H582   H     0.23122   0.55289   0.93491   0.00000  Uiso   1.00
H583   H     0.41720   0.58859   0.74175   0.00000  Uiso   1.00
H584   H     0.48055   0.67179   0.78914   0.00000  Uiso   1.00
H585   H     0.40058   0.59696   0.62231   0.00000  Uiso   1.00
H586   H     0.37930   0.48108   0.80958   0.00000  Uiso   1.00
H587   H     0.53683   0.78919   0.84825   0.00000  Uiso   1.00
H588   H     0.36821   0.63136   0.49649   0.00000  Uiso   1.00
H589   H     0.32332   0.38703   0.89138   0.00000  Uiso   1.00
O590   O     0.53052   0.93035   0.90208   0.00000  Uiso   1.00
O591   O     0.30929   0.72329   0.44060   0.00000  Uiso   1.00
O592   O     0.25040   0.40273   0.95869   0.00000  Uiso   1.00
N593   N     0.45771   0.90459   0.87504   0.00000  Uiso   1.00
N594   N     0.30007   0.75704   0.54617   0.00000  Uiso   1.00
N595   N     0.25809   0.52860   0.91535   0.00000  Uiso   1.00
N596   N     0.50727   0.81534   0.85162   0.00000  Uiso   1.00
N597   N     0.34963   0.66780   0.52275   0.00000  Uiso   1.00
N598   N     0.30765   0.43935   0.89192   0.00000  Uiso   1.00
C599   C     0.83427   0.23794   0.78095   0.00000  Uiso   1.00
C600   C     0.88040   0.26205   0.80116   0.00000  Uiso   1.00
C601   C     0.89158   0.33204   0.83120   0.00000  Uiso   1.00
C602   C     0.93559   0.34303   0.84577   0.00000  Uiso   1.00
C603   C     0.00241   0.38916   0.87940   0.00000  Uiso   1.00
C604   C     0.83696   0.22139   0.71052   0.00000  Uiso   1.00
C605   C     0.81161   0.25720   0.66435   0.00000  Uiso   1.00
C606   C     0.81905   0.23395   0.60261   0.00000  Uiso   1.00
C607   C     0.81839   0.21692   0.49553   0.00000  Uiso   1.00
C608   C     0.82540   0.15844   0.81227   0.00000  Uiso   1.00
C609   C     0.79032   0.14131   0.85164   0.00000  Uiso   1.00
C610   C     0.78801   0.06505   0.87556   0.00000  Uiso   1.00
C611   C     0.76941   0.95028   0.92647   0.00000  Uiso   1.00
C612   C     0.89255   0.13298   0.75340   0.00000  Uiso   1.00
C613   C     0.91206   0.20504   0.78620   0.00000  Uiso   1.00
C614   C     0.95606   0.21592   0.80072   0.00000  Uiso   1.00
C615   C     0.96730   0.28592   0.83078   0.00000  Uiso   1.00
C616   C     0.86861   0.16439   0.69556   0.00000  Uiso   1.00
C617   C     0.87609   0.14108   0.63387   0.00000  Uiso   1.00
C618   C     0.85076   0.17684   0.58762   0.00000  Uiso   1.00
C619   C     0.85705   0.10143   0.79731   0.00000  Uiso   1.00
C620   C     0.85480   0.02519   0.82117   0.00000  Uiso   1.00
C621   C     0.81972   0.00794   0.86057   0.00000  Uiso   1.00
H622   H     0.80963   0.28232   0.79259   0.00000  Uiso   1.00
H623   H     0.86708   0.37615   0.84277   0.00000  Uiso   1.00
H624   H     0.78711   0.30131   0.67595   0.00000  Uiso   1.00
H625   H     0.76583   0.18544   0.86321   0.00000  Uiso   1.00
H626   H     0.94473   0.45505   0.89178   0.00000  Uiso   1.00
H627   H     0.77611   0.29723   0.54003   0.00000  Uiso   1.00
H628   H     0.73122   0.05289   0.93491   0.00000  Uiso   1.00
H629   H     0.91720   0.08859   0.74175   0.00000  Uiso   1.00
H630   H     0.98055   0.17179   0.78914   0.00000  Uiso   1.00
H631   H     0.90058   0.09696   0.62231   0.00000  Uiso   1.00
H632   H     0.87930   0.98108   0.80958   0.00000  Uiso   1.00
H633   H     0.03683   0.28919   0.84825   0.00000  Uiso   1.00
H634   H     0.86821   0.13136   0.49649   0.00000  Uiso   1.00
H635   H     0.82332   0.88703   0.89138   0.00000  Uiso   1.00
O636   O     0.03052   0.43035   0.90208   0.00000  Uiso   1.00
O637   O     0.80929   0.22329   0.44060   0.00000  Uiso   1.00
O638   O     0.75040   0.90273   0.95869   0.00000  Uiso   1.00
N639   N     0.95771   0.40459   0.87504   0.00000  Uiso   1.00
N640   N     0.80007   0.25704   0.54617   0.00000  Uiso   1.00
N641   N     0.75809   0.02860   0.91535   0.00000  Uiso   1.00
N642   N     0.00727   0.31534   0.85162   0.00000  Uiso   1.00
N643   N     0.84963   0.16780   0.52275   0.00000  Uiso   1.00
N644   N     0.80765   0.93935   0.89192   0.00000  Uiso   1.00
C645   C     0.16573   0.76206   0.78095   0.00000  Uiso   1.00
C646   C     0.11960   0.73795   0.80116   0.00000  Uiso   1.00
C647   C     0.10842   0.66796   0.83120   0.00000  Uiso   1.00
C648   C     0.06441   0.65697   0.84577   0.00000  Uiso   1.00
C649   C     0.99759   0.61084   0.87940   0.00000  Uiso   1.00
C650   C     0.16304   0.77861   0.71052   0.00000  Uiso   1.00
C651   C     0.18839   0.74280   0.66435   0.00000  Uiso   1.00
C652   C     0.18095   0.76605   0.60261   0.00000  Uiso   1.00
C653   C     0.18161   0.78308   0.49553   0.00000  Uiso   1.00
C654   C     0.17460   0.84156   0.81227   0.00000  Uiso   1.00
C655   C     0.20968   0.85869   0.85164   0.00000  Uiso   1.00
C656   C     0.21199   0.93495   0.87556   0.00000  Uiso   1.00
C657   C     0.23059   0.04972   0.92647   0.00000  Uiso   1.00
C658   C     0.10745   0.86702   0.75340   0.00000  Uiso   1.00
C659   C     0.08794   0.79496   0.78620   0.00000  Uiso   1.00
C660   C     0.04394   0.78408   0.80072   0.00000  Uiso   1.00
C661   C     0.03270   0.71408   0.83078   0.00000  Uiso   1.00
C662   C     0.13139   0.83561   0.69556   0.00000  Uiso   1.00
C663   C     0.12391   0.85892   0.63387   0.00000  Uiso   1.00
C664   C     0.14924   0.82316   0.58762   0.00000  Uiso   1.00
C665   C     0.14295   0.89857   0.79731   0.00000  Uiso   1.00
C666   C     0.14520   0.97481   0.82117   0.00000  Uiso   1.00
C667   C     0.18028   0.99206   0.86057   0.00000  Uiso   1.00
H668   H     0.19037   0.71768   0.79259   0.00000  Uiso   1.00
H669   H     0.13292   0.62385   0.84277   0.00000  Uiso   1.00
H670   H     0.21289   0.69869   0.67595   0.00000  Uiso   1.00
H671   H     0.23417   0.81456   0.86321   0.00000  Uiso   1.00
H672   H     0.05527   0.54495   0.89178   0.00000  Uiso   1.00
H673   H     0.22389   0.70277   0.54003   0.00000  Uiso   1.00
H674   H     0.26878   0.94711   0.93491   0.00000  Uiso   1.00
H675   H     0.08280   0.91141   0.74175   0.00000  Uiso   1.00
H676   H     0.01945   0.82821   0.78914   0.00000  Uiso   1.00
H677   H     0.09942   0.90304   0.62231   0.00000  Uiso   1.00
H678   H     0.12070   0.01892   0.80958   0.00000  Uiso   1.00
H679   H     0.96317   0.71081   0.84825   0.00000  Uiso   1.00
H680   H     0.13179   0.86864   0.49649   0.00000  Uiso   1.00
H681   H     0.17668   0.11297   0.89138   0.00000  Uiso   1.00
O682   O     0.96948   0.56965   0.90208   0.00000  Uiso   1.00
O683   O     0.19071   0.77671   0.44060   0.00000  Uiso   1.00
O684   O     0.24960   0.09727   0.95869   0.00000  Uiso   1.00
N685   N     0.04229   0.59541   0.87504   0.00000  Uiso   1.00
N686   N     0.19993   0.74296   0.54617   0.00000  Uiso   1.00
N687   N     0.24191   0.97140   0.91535   0.00000  Uiso   1.00
N688   N     0.99273   0.68466   0.85162   0.00000  Uiso   1.00
N689   N     0.15037   0.83220   0.52275   0.00000  Uiso   1.00
N690   N     0.19235   0.06065   0.89192   0.00000  Uiso   1.00
C691   C     0.66573   0.26206   0.78095   0.00000  Uiso   1.00
C692   C     0.61960   0.23795   0.80116   0.00000  Uiso   1.00
C693   C     0.60842   0.16796   0.83120   0.00000  Uiso   1.00
C694   C     0.56441   0.15697   0.84577   0.00000  Uiso   1.00
C695   C     0.49759   0.11084   0.87940   0.00000  Uiso   1.00
C696   C     0.66304   0.27861   0.71052   0.00000  Uiso   1.00
C697   C     0.68839   0.24280   0.66435   0.00000  Uiso   1.00
C698   C     0.68095   0.26605   0.60261   0.00000  Uiso   1.00
C699   C     0.68161   0.28308   0.49553   0.00000  Uiso   1.00
C700   C     0.67460   0.34156   0.81227   0.00000  Uiso   1.00
C701   C     0.70968   0.35869   0.85164   0.00000  Uiso   1.00
C702   C     0.71199   0.43495   0.87556   0.00000  Uiso   1.00
C703   C     0.73059   0.54972   0.92647   0.00000  Uiso   1.00
C704   C     0.60745   0.36702   0.75340   0.00000  Uiso   1.00
C705   C     0.58794   0.29496   0.78620   0.00000  Uiso   1.00
C706   C     0.54394   0.28408   0.80072   0.00000  Uiso   1.00
C707   C     0.53270   0.21408   0.83078   0.00000  Uiso   1.00
C708   C     0.63139   0.33561   0.69556   0.00000  Uiso   1.00
C709   C     0.62391   0.35892   0.63387   0.00000  Uiso   1.00
C710   C     0.64924   0.32316   0.58762   0.00000  Uiso   1.00
C711   C     0.64295   0.39857   0.79731   0.00000  Uiso   1.00
C712   C     0.64520   0.47481   0.82117   0.00000  Uiso   1.00
C713   C     0.68028   0.49206   0.86057   0.00000  Uiso   1.00
H714   H     0.69037   0.21768   0.79259   0.00000  Uiso   1.00
H715   H     0.63292   0.12385   0.84277   0.00000  Uiso   1.00
H716   H     0.71289   0.19869   0.67595   0.00000  Uiso   1.00
H717   H     0.73417   0.31456   0.86321   0.00000  Uiso   1.00
H718   H     0.55527   0.04495   0.89178   0.00000  Uiso   1.00
H719   H     0.72389   0.20277   0.54003   0.00000  Uiso   1.00
H720   H     0.76878   0.44711   0.93491   0.00000  Uiso   1.00
H721   H     0.58280   0.41141   0.74175   0.00000  Uiso   1.00
H722   H     0.51945   0.32821   0.78914   0.00000  Uiso   1.00
H723   H     0.59942   0.40304   0.62231   0.00000  Uiso   1.00
H724   H     0.62070   0.51892   0.80958   0.00000  Uiso   1.00
H725   H     0.46317   0.21081   0.84825   0.00000  Uiso   1.00
H726   H     0.63179   0.36864   0.49649   0.00000  Uiso   1.00
H727   H     0.67668   0.61297   0.89138   0.00000  Uiso   1.00
O728   O     0.46948   0.06965   0.90208   0.00000  Uiso   1.00
O729   O     0.69071   0.27671   0.44060   0.00000  Uiso   1.00
O730   O     0.74960   0.59727   0.95869   0.00000  Uiso   1.00
N731   N     0.54229   0.09541   0.87504   0.00000  Uiso   1.00
N732   N     0.69993   0.24296   0.54617   0.00000  Uiso   1.00
N733   N     0.74191   0.47140   0.91535   0.00000  Uiso   1.00
N734   N     0.49273   0.18466   0.85162   0.00000  Uiso   1.00
N735   N     0.65037   0.33220   0.52275   0.00000  Uiso   1.00
N736   N     0.69235   0.56065   0.89192   0.00000  Uiso   1.00
