data_job_00313
_audit_creation_date              2018-12-19
_audit_creation_method            'Materials Studio'
_symmetry_space_group_name_H-M    'P1'
_symmetry_Int_Tables_number       1
_symmetry_cell_setting            triclinic
loop_
_symmetry_equiv_pos_as_xyz
  x,y,z
_cell_length_a                    45.5172
_cell_length_b                    45.5172
_cell_length_c                    7.1508
_cell_angle_alpha                 90.0000
_cell_angle_beta                  90.0000
_cell_angle_gamma                 90.0000
loop_
_atom_site_label
_atom_site_type_symbol
_atom_site_fract_x
_atom_site_fract_y
_atom_site_fract_z
_atom_site_U_iso_or_equiv
_atom_site_adp_type
_atom_site_occupancy
C1     C     0.88286   0.40374   0.34926   0.00000  Uiso   1.00
C2     C     0.89213   0.37671   0.46056   0.00000  Uiso   1.00
C3     C     0.90259   0.35061   0.38557   0.00000  Uiso   1.00
C4     C     0.90989   0.32848   0.51087   0.00000  Uiso   1.00
C5     C     0.92473   0.28591   0.65429   0.00000  Uiso   1.00
C6     C     0.85128   0.41026   0.40709   0.00000  Uiso   1.00
C7     C     0.82740   0.41237   0.28712   0.00000  Uiso   1.00
C8     C     0.80031   0.41849   0.36742   0.00000  Uiso   1.00
C9     C     0.75174   0.42803   0.42780   0.00000  Uiso   1.00
C10    C     0.90129   0.42913   0.42401   0.00000  Uiso   1.00
C11    C     0.91946   0.44712   0.31828   0.00000  Uiso   1.00
C12    C     0.93448   0.46913   0.41282   0.00000  Uiso   1.00
C13    C     0.96356   0.50797   0.49948   0.00000  Uiso   1.00
C14    C     0.87720   0.41086   0.70515   0.00000  Uiso   1.00
C15    C     0.88905   0.38057   0.65387   0.00000  Uiso   1.00
C16    C     0.89633   0.35848   0.77932   0.00000  Uiso   1.00
C17    C     0.90681   0.33235   0.70453   0.00000  Uiso   1.00
C18    C     0.84820   0.41412   0.60038   0.00000  Uiso   1.00
C19    C     0.82114   0.42024   0.68088   0.00000  Uiso   1.00
C20    C     0.79723   0.42236   0.56107   0.00000  Uiso   1.00
C21    C     0.89822   0.43299   0.61732   0.00000  Uiso   1.00
C22    C     0.91321   0.45499   0.71204   0.00000  Uiso   1.00
C23    C     0.93140   0.47300   0.60647   0.00000  Uiso   1.00
H24    H     0.88525   0.40073   0.19876   0.00000  Uiso   1.00
H25    H     0.90497   0.34763   0.23596   0.00000  Uiso   1.00
H26    H     0.82979   0.40938   0.13754   0.00000  Uiso   1.00
H27    H     0.92184   0.44412   0.16870   0.00000  Uiso   1.00
H28    H     0.92546   0.29045   0.36245   0.00000  Uiso   1.00
H29    H     0.76694   0.42068   0.15491   0.00000  Uiso   1.00
H30    H     0.96105   0.49393   0.22060   0.00000  Uiso   1.00
H31    H     0.87481   0.41386   0.85565   0.00000  Uiso   1.00
H32    H     0.89395   0.36148   0.92890   0.00000  Uiso   1.00
H33    H     0.81877   0.42323   0.83047   0.00000  Uiso   1.00
H34    H     0.91082   0.45797   0.86163   0.00000  Uiso   1.00
H35    H     0.91652   0.30169   0.92487   0.00000  Uiso   1.00
H36    H     0.75800   0.43192   0.71732   0.00000  Uiso   1.00
H37    H     0.95211   0.50517   0.78302   0.00000  Uiso   1.00
O38    O     0.93376   0.26136   0.67999   0.00000  Uiso   1.00
O39    O     0.72580   0.43222   0.40769   0.00000  Uiso   1.00
O40    O     0.98046   0.52832   0.49388   0.00000  Uiso   1.00
N41    N     0.92074   0.30028   0.48477   0.00000  Uiso   1.00
N42    N     0.77253   0.42204   0.29073   0.00000  Uiso   1.00
N43    N     0.95399   0.49052   0.35214   0.00000  Uiso   1.00
N44    N     0.91593   0.30633   0.78740   0.00000  Uiso   1.00
N45    N     0.76772   0.42808   0.59336   0.00000  Uiso   1.00
N46    N     0.94918   0.49657   0.65477   0.00000  Uiso   1.00
C47    C     0.38286   0.90374   0.84926   0.00000  Uiso   1.00
C48    C     0.39213   0.87671   0.96056   0.00000  Uiso   1.00
C49    C     0.40259   0.85061   0.88557   0.00000  Uiso   1.00
C50    C     0.40989   0.82848   0.01087   0.00000  Uiso   1.00
C51    C     0.42473   0.78591   0.15429   0.00000  Uiso   1.00
C52    C     0.35128   0.91026   0.90709   0.00000  Uiso   1.00
C53    C     0.32740   0.91237   0.78712   0.00000  Uiso   1.00
C54    C     0.30031   0.91849   0.86742   0.00000  Uiso   1.00
C55    C     0.25174   0.92803   0.92780   0.00000  Uiso   1.00
C56    C     0.40129   0.92913   0.92401   0.00000  Uiso   1.00
C57    C     0.41946   0.94712   0.81828   0.00000  Uiso   1.00
C58    C     0.43448   0.96913   0.91282   0.00000  Uiso   1.00
C59    C     0.46356   0.00797   0.99948   0.00000  Uiso   1.00
C60    C     0.37720   0.91086   0.20515   0.00000  Uiso   1.00
C61    C     0.38905   0.88057   0.15387   0.00000  Uiso   1.00
C62    C     0.39633   0.85848   0.27932   0.00000  Uiso   1.00
C63    C     0.40681   0.83235   0.20453   0.00000  Uiso   1.00
C64    C     0.34820   0.91412   0.10038   0.00000  Uiso   1.00
C65    C     0.32114   0.92024   0.18088   0.00000  Uiso   1.00
C66    C     0.29723   0.92236   0.06107   0.00000  Uiso   1.00
C67    C     0.39822   0.93299   0.11732   0.00000  Uiso   1.00
C68    C     0.41321   0.95499   0.21204   0.00000  Uiso   1.00
C69    C     0.43140   0.97300   0.10647   0.00000  Uiso   1.00
H70    H     0.38525   0.90073   0.69876   0.00000  Uiso   1.00
H71    H     0.40497   0.84763   0.73596   0.00000  Uiso   1.00
H72    H     0.32979   0.90938   0.63754   0.00000  Uiso   1.00
H73    H     0.42184   0.94412   0.66870   0.00000  Uiso   1.00
H74    H     0.42546   0.79045   0.86245   0.00000  Uiso   1.00
H75    H     0.26694   0.92068   0.65491   0.00000  Uiso   1.00
H76    H     0.46105   0.99393   0.72060   0.00000  Uiso   1.00
H77    H     0.37481   0.91386   0.35565   0.00000  Uiso   1.00
H78    H     0.39395   0.86148   0.42890   0.00000  Uiso   1.00
H79    H     0.31877   0.92323   0.33047   0.00000  Uiso   1.00
H80    H     0.41082   0.95797   0.36163   0.00000  Uiso   1.00
H81    H     0.41652   0.80169   0.42487   0.00000  Uiso   1.00
H82    H     0.25800   0.93192   0.21732   0.00000  Uiso   1.00
H83    H     0.45211   0.00517   0.28302   0.00000  Uiso   1.00
O84    O     0.43376   0.76136   0.17999   0.00000  Uiso   1.00
O85    O     0.22580   0.93222   0.90769   0.00000  Uiso   1.00
O86    O     0.48046   0.02832   0.99388   0.00000  Uiso   1.00
N87    N     0.42074   0.80028   0.98477   0.00000  Uiso   1.00
N88    N     0.27253   0.92204   0.79073   0.00000  Uiso   1.00
N89    N     0.45399   0.99052   0.85214   0.00000  Uiso   1.00
N90    N     0.41593   0.80633   0.28740   0.00000  Uiso   1.00
N91    N     0.26772   0.92808   0.09336   0.00000  Uiso   1.00
N92    N     0.44918   0.99657   0.15477   0.00000  Uiso   1.00
C93    C     0.61714   0.09626   0.84926   0.00000  Uiso   1.00
C94    C     0.60787   0.12329   0.96056   0.00000  Uiso   1.00
C95    C     0.59741   0.14939   0.88557   0.00000  Uiso   1.00
C96    C     0.59011   0.17152   0.01087   0.00000  Uiso   1.00
C97    C     0.57527   0.21409   0.15429   0.00000  Uiso   1.00
C98    C     0.64872   0.08974   0.90709   0.00000  Uiso   1.00
C99    C     0.67260   0.08763   0.78712   0.00000  Uiso   1.00
C100   C     0.69969   0.08151   0.86742   0.00000  Uiso   1.00
C101   C     0.74826   0.07197   0.92780   0.00000  Uiso   1.00
C102   C     0.59871   0.07087   0.92401   0.00000  Uiso   1.00
C103   C     0.58054   0.05288   0.81828   0.00000  Uiso   1.00
C104   C     0.56552   0.03087   0.91282   0.00000  Uiso   1.00
C105   C     0.53644   0.99203   0.99948   0.00000  Uiso   1.00
C106   C     0.62280   0.08914   0.20515   0.00000  Uiso   1.00
C107   C     0.61095   0.11943   0.15387   0.00000  Uiso   1.00
C108   C     0.60367   0.14152   0.27932   0.00000  Uiso   1.00
C109   C     0.59319   0.16765   0.20453   0.00000  Uiso   1.00
C110   C     0.65180   0.08588   0.10038   0.00000  Uiso   1.00
C111   C     0.67886   0.07976   0.18088   0.00000  Uiso   1.00
C112   C     0.70277   0.07764   0.06107   0.00000  Uiso   1.00
C113   C     0.60178   0.06701   0.11732   0.00000  Uiso   1.00
C114   C     0.58679   0.04501   0.21204   0.00000  Uiso   1.00
C115   C     0.56860   0.02700   0.10647   0.00000  Uiso   1.00
H116   H     0.61475   0.09927   0.69876   0.00000  Uiso   1.00
H117   H     0.59503   0.15237   0.73596   0.00000  Uiso   1.00
H118   H     0.67021   0.09062   0.63754   0.00000  Uiso   1.00
H119   H     0.57816   0.05588   0.66870   0.00000  Uiso   1.00
H120   H     0.57454   0.20955   0.86245   0.00000  Uiso   1.00
H121   H     0.73306   0.07932   0.65491   0.00000  Uiso   1.00
H122   H     0.53895   0.00607   0.72060   0.00000  Uiso   1.00
H123   H     0.62519   0.08614   0.35565   0.00000  Uiso   1.00
H124   H     0.60605   0.13852   0.42890   0.00000  Uiso   1.00
H125   H     0.68123   0.07677   0.33047   0.00000  Uiso   1.00
H126   H     0.58918   0.04203   0.36163   0.00000  Uiso   1.00
H127   H     0.58348   0.19831   0.42487   0.00000  Uiso   1.00
H128   H     0.74200   0.06808   0.21732   0.00000  Uiso   1.00
H129   H     0.54789   0.99483   0.28302   0.00000  Uiso   1.00
O130   O     0.56624   0.23864   0.17999   0.00000  Uiso   1.00
O131   O     0.77420   0.06778   0.90769   0.00000  Uiso   1.00
O132   O     0.51954   0.97168   0.99388   0.00000  Uiso   1.00
N133   N     0.57926   0.19972   0.98477   0.00000  Uiso   1.00
N134   N     0.72747   0.07796   0.79073   0.00000  Uiso   1.00
N135   N     0.54601   0.00948   0.85214   0.00000  Uiso   1.00
N136   N     0.58407   0.19367   0.28740   0.00000  Uiso   1.00
N137   N     0.73228   0.07192   0.09336   0.00000  Uiso   1.00
N138   N     0.55082   0.00343   0.15477   0.00000  Uiso   1.00
C139   C     0.11714   0.59626   0.34926   0.00000  Uiso   1.00
C140   C     0.10787   0.62329   0.46056   0.00000  Uiso   1.00
C141   C     0.09741   0.64939   0.38557   0.00000  Uiso   1.00
C142   C     0.09011   0.67152   0.51087   0.00000  Uiso   1.00
C143   C     0.07527   0.71409   0.65429   0.00000  Uiso   1.00
C144   C     0.14872   0.58974   0.40709   0.00000  Uiso   1.00
C145   C     0.17260   0.58763   0.28712   0.00000  Uiso   1.00
C146   C     0.19969   0.58151   0.36742   0.00000  Uiso   1.00
C147   C     0.24826   0.57197   0.42780   0.00000  Uiso   1.00
C148   C     0.09871   0.57087   0.42401   0.00000  Uiso   1.00
C149   C     0.08054   0.55288   0.31828   0.00000  Uiso   1.00
C150   C     0.06552   0.53087   0.41282   0.00000  Uiso   1.00
C151   C     0.03644   0.49203   0.49948   0.00000  Uiso   1.00
C152   C     0.12280   0.58914   0.70515   0.00000  Uiso   1.00
C153   C     0.11095   0.61943   0.65387   0.00000  Uiso   1.00
C154   C     0.10367   0.64152   0.77932   0.00000  Uiso   1.00
C155   C     0.09319   0.66765   0.70453   0.00000  Uiso   1.00
C156   C     0.15180   0.58588   0.60038   0.00000  Uiso   1.00
C157   C     0.17886   0.57976   0.68088   0.00000  Uiso   1.00
C158   C     0.20277   0.57764   0.56107   0.00000  Uiso   1.00
C159   C     0.10178   0.56701   0.61732   0.00000  Uiso   1.00
C160   C     0.08679   0.54501   0.71204   0.00000  Uiso   1.00
C161   C     0.06860   0.52700   0.60647   0.00000  Uiso   1.00
H162   H     0.11475   0.59927   0.19876   0.00000  Uiso   1.00
H163   H     0.09503   0.65237   0.23596   0.00000  Uiso   1.00
H164   H     0.17021   0.59062   0.13754   0.00000  Uiso   1.00
H165   H     0.07816   0.55588   0.16870   0.00000  Uiso   1.00
H166   H     0.07454   0.70955   0.36245   0.00000  Uiso   1.00
H167   H     0.23306   0.57932   0.15491   0.00000  Uiso   1.00
H168   H     0.03895   0.50607   0.22060   0.00000  Uiso   1.00
H169   H     0.12519   0.58614   0.85565   0.00000  Uiso   1.00
H170   H     0.10605   0.63852   0.92890   0.00000  Uiso   1.00
H171   H     0.18123   0.57677   0.83047   0.00000  Uiso   1.00
H172   H     0.08918   0.54203   0.86163   0.00000  Uiso   1.00
H173   H     0.08348   0.69831   0.92487   0.00000  Uiso   1.00
H174   H     0.24200   0.56808   0.71732   0.00000  Uiso   1.00
H175   H     0.04789   0.49483   0.78302   0.00000  Uiso   1.00
O176   O     0.06624   0.73864   0.67999   0.00000  Uiso   1.00
O177   O     0.27420   0.56778   0.40769   0.00000  Uiso   1.00
O178   O     0.01954   0.47168   0.49388   0.00000  Uiso   1.00
N179   N     0.07926   0.69972   0.48477   0.00000  Uiso   1.00
N180   N     0.22747   0.57796   0.29073   0.00000  Uiso   1.00
N181   N     0.04601   0.50948   0.35214   0.00000  Uiso   1.00
N182   N     0.08407   0.69367   0.78740   0.00000  Uiso   1.00
N183   N     0.23228   0.57192   0.59336   0.00000  Uiso   1.00
N184   N     0.05082   0.50343   0.65477   0.00000  Uiso   1.00
C185   C     0.59626   0.38286   0.59926   0.00000  Uiso   1.00
C186   C     0.62329   0.39213   0.71056   0.00000  Uiso   1.00
C187   C     0.64939   0.40259   0.63557   0.00000  Uiso   1.00
C188   C     0.67152   0.40989   0.76087   0.00000  Uiso   1.00
C189   C     0.71409   0.42473   0.90429   0.00000  Uiso   1.00
C190   C     0.58974   0.35128   0.65709   0.00000  Uiso   1.00
C191   C     0.58763   0.32740   0.53712   0.00000  Uiso   1.00
C192   C     0.58151   0.30031   0.61742   0.00000  Uiso   1.00
C193   C     0.57197   0.25174   0.67780   0.00000  Uiso   1.00
C194   C     0.57087   0.40129   0.67401   0.00000  Uiso   1.00
C195   C     0.55288   0.41946   0.56828   0.00000  Uiso   1.00
C196   C     0.53087   0.43448   0.66282   0.00000  Uiso   1.00
C197   C     0.49203   0.46356   0.74948   0.00000  Uiso   1.00
C198   C     0.58914   0.37720   0.95515   0.00000  Uiso   1.00
C199   C     0.61943   0.38905   0.90387   0.00000  Uiso   1.00
C200   C     0.64152   0.39633   0.02932   0.00000  Uiso   1.00
C201   C     0.66765   0.40681   0.95453   0.00000  Uiso   1.00
C202   C     0.58588   0.34820   0.85038   0.00000  Uiso   1.00
C203   C     0.57976   0.32114   0.93088   0.00000  Uiso   1.00
C204   C     0.57764   0.29723   0.81107   0.00000  Uiso   1.00
C205   C     0.56701   0.39822   0.86732   0.00000  Uiso   1.00
C206   C     0.54501   0.41321   0.96204   0.00000  Uiso   1.00
C207   C     0.52700   0.43140   0.85647   0.00000  Uiso   1.00
H208   H     0.59927   0.38525   0.44876   0.00000  Uiso   1.00
H209   H     0.65237   0.40497   0.48596   0.00000  Uiso   1.00
H210   H     0.59062   0.32979   0.38754   0.00000  Uiso   1.00
H211   H     0.55588   0.42184   0.41870   0.00000  Uiso   1.00
H212   H     0.70955   0.42546   0.61245   0.00000  Uiso   1.00
H213   H     0.57932   0.26694   0.40491   0.00000  Uiso   1.00
H214   H     0.50607   0.46105   0.47060   0.00000  Uiso   1.00
H215   H     0.58614   0.37481   0.10565   0.00000  Uiso   1.00
H216   H     0.63852   0.39395   0.17890   0.00000  Uiso   1.00
H217   H     0.57677   0.31877   0.08047   0.00000  Uiso   1.00
H218   H     0.54203   0.41082   0.11163   0.00000  Uiso   1.00
H219   H     0.69831   0.41652   0.17487   0.00000  Uiso   1.00
H220   H     0.56808   0.25800   0.96732   0.00000  Uiso   1.00
H221   H     0.49483   0.45211   0.03302   0.00000  Uiso   1.00
O222   O     0.73864   0.43376   0.92999   0.00000  Uiso   1.00
O223   O     0.56778   0.22580   0.65769   0.00000  Uiso   1.00
O224   O     0.47168   0.48046   0.74388   0.00000  Uiso   1.00
N225   N     0.69972   0.42074   0.73477   0.00000  Uiso   1.00
N226   N     0.57796   0.27253   0.54073   0.00000  Uiso   1.00
N227   N     0.50948   0.45399   0.60214   0.00000  Uiso   1.00
N228   N     0.69367   0.41593   0.03740   0.00000  Uiso   1.00
N229   N     0.57192   0.26772   0.84336   0.00000  Uiso   1.00
N230   N     0.50343   0.44918   0.90477   0.00000  Uiso   1.00
C231   C     0.09626   0.88286   0.09926   0.00000  Uiso   1.00
C232   C     0.12329   0.89213   0.21056   0.00000  Uiso   1.00
C233   C     0.14939   0.90259   0.13557   0.00000  Uiso   1.00
C234   C     0.17152   0.90989   0.26087   0.00000  Uiso   1.00
C235   C     0.21409   0.92473   0.40429   0.00000  Uiso   1.00
C236   C     0.08974   0.85128   0.15709   0.00000  Uiso   1.00
C237   C     0.08763   0.82740   0.03712   0.00000  Uiso   1.00
C238   C     0.08151   0.80031   0.11742   0.00000  Uiso   1.00
C239   C     0.07197   0.75174   0.17780   0.00000  Uiso   1.00
C240   C     0.07087   0.90129   0.17401   0.00000  Uiso   1.00
C241   C     0.05288   0.91946   0.06828   0.00000  Uiso   1.00
C242   C     0.03087   0.93448   0.16282   0.00000  Uiso   1.00
C243   C     0.99203   0.96356   0.24948   0.00000  Uiso   1.00
C244   C     0.08914   0.87720   0.45515   0.00000  Uiso   1.00
C245   C     0.11943   0.88905   0.40387   0.00000  Uiso   1.00
C246   C     0.14152   0.89633   0.52932   0.00000  Uiso   1.00
C247   C     0.16765   0.90681   0.45453   0.00000  Uiso   1.00
C248   C     0.08588   0.84820   0.35038   0.00000  Uiso   1.00
C249   C     0.07976   0.82114   0.43088   0.00000  Uiso   1.00
C250   C     0.07764   0.79723   0.31107   0.00000  Uiso   1.00
C251   C     0.06701   0.89822   0.36732   0.00000  Uiso   1.00
C252   C     0.04501   0.91321   0.46204   0.00000  Uiso   1.00
C253   C     0.02700   0.93140   0.35647   0.00000  Uiso   1.00
H254   H     0.09927   0.88525   0.94876   0.00000  Uiso   1.00
H255   H     0.15237   0.90497   0.98596   0.00000  Uiso   1.00
H256   H     0.09062   0.82979   0.88754   0.00000  Uiso   1.00
H257   H     0.05588   0.92184   0.91870   0.00000  Uiso   1.00
H258   H     0.20955   0.92546   0.11245   0.00000  Uiso   1.00
H259   H     0.07932   0.76694   0.90491   0.00000  Uiso   1.00
H260   H     0.00607   0.96105   0.97060   0.00000  Uiso   1.00
H261   H     0.08614   0.87481   0.60565   0.00000  Uiso   1.00
H262   H     0.13852   0.89395   0.67890   0.00000  Uiso   1.00
H263   H     0.07677   0.81877   0.58047   0.00000  Uiso   1.00
H264   H     0.04203   0.91082   0.61163   0.00000  Uiso   1.00
H265   H     0.19831   0.91652   0.67487   0.00000  Uiso   1.00
H266   H     0.06808   0.75800   0.46732   0.00000  Uiso   1.00
H267   H     0.99483   0.95211   0.53302   0.00000  Uiso   1.00
O268   O     0.23864   0.93376   0.42999   0.00000  Uiso   1.00
O269   O     0.06778   0.72580   0.15769   0.00000  Uiso   1.00
O270   O     0.97168   0.98046   0.24388   0.00000  Uiso   1.00
N271   N     0.19972   0.92074   0.23477   0.00000  Uiso   1.00
N272   N     0.07796   0.77253   0.04073   0.00000  Uiso   1.00
N273   N     0.00948   0.95399   0.10214   0.00000  Uiso   1.00
N274   N     0.19367   0.91593   0.53740   0.00000  Uiso   1.00
N275   N     0.07192   0.76772   0.34336   0.00000  Uiso   1.00
N276   N     0.00343   0.94918   0.40477   0.00000  Uiso   1.00
C277   C     0.90374   0.11714   0.09926   0.00000  Uiso   1.00
C278   C     0.87671   0.10787   0.21056   0.00000  Uiso   1.00
C279   C     0.85061   0.09741   0.13557   0.00000  Uiso   1.00
C280   C     0.82848   0.09011   0.26087   0.00000  Uiso   1.00
C281   C     0.78591   0.07527   0.40429   0.00000  Uiso   1.00
C282   C     0.91026   0.14872   0.15709   0.00000  Uiso   1.00
C283   C     0.91237   0.17260   0.03712   0.00000  Uiso   1.00
C284   C     0.91849   0.19969   0.11742   0.00000  Uiso   1.00
C285   C     0.92803   0.24826   0.17780   0.00000  Uiso   1.00
C286   C     0.92913   0.09871   0.17401   0.00000  Uiso   1.00
C287   C     0.94712   0.08054   0.06828   0.00000  Uiso   1.00
C288   C     0.96913   0.06552   0.16282   0.00000  Uiso   1.00
C289   C     0.00797   0.03644   0.24948   0.00000  Uiso   1.00
C290   C     0.91086   0.12280   0.45515   0.00000  Uiso   1.00
C291   C     0.88057   0.11095   0.40387   0.00000  Uiso   1.00
C292   C     0.85848   0.10367   0.52932   0.00000  Uiso   1.00
C293   C     0.83235   0.09319   0.45453   0.00000  Uiso   1.00
C294   C     0.91412   0.15180   0.35038   0.00000  Uiso   1.00
C295   C     0.92024   0.17886   0.43088   0.00000  Uiso   1.00
C296   C     0.92236   0.20277   0.31107   0.00000  Uiso   1.00
C297   C     0.93299   0.10178   0.36732   0.00000  Uiso   1.00
C298   C     0.95499   0.08679   0.46204   0.00000  Uiso   1.00
C299   C     0.97300   0.06860   0.35647   0.00000  Uiso   1.00
H300   H     0.90073   0.11475   0.94876   0.00000  Uiso   1.00
H301   H     0.84763   0.09503   0.98596   0.00000  Uiso   1.00
H302   H     0.90938   0.17021   0.88754   0.00000  Uiso   1.00
H303   H     0.94412   0.07816   0.91870   0.00000  Uiso   1.00
H304   H     0.79045   0.07454   0.11245   0.00000  Uiso   1.00
H305   H     0.92068   0.23306   0.90491   0.00000  Uiso   1.00
H306   H     0.99393   0.03895   0.97060   0.00000  Uiso   1.00
H307   H     0.91386   0.12519   0.60565   0.00000  Uiso   1.00
H308   H     0.86148   0.10605   0.67890   0.00000  Uiso   1.00
H309   H     0.92323   0.18123   0.58047   0.00000  Uiso   1.00
H310   H     0.95797   0.08918   0.61163   0.00000  Uiso   1.00
H311   H     0.80169   0.08348   0.67487   0.00000  Uiso   1.00
H312   H     0.93192   0.24200   0.46732   0.00000  Uiso   1.00
H313   H     0.00517   0.04789   0.53302   0.00000  Uiso   1.00
O314   O     0.76136   0.06624   0.42999   0.00000  Uiso   1.00
O315   O     0.93222   0.27420   0.15769   0.00000  Uiso   1.00
O316   O     0.02832   0.01954   0.24388   0.00000  Uiso   1.00
N317   N     0.80028   0.07926   0.23477   0.00000  Uiso   1.00
N318   N     0.92204   0.22747   0.04073   0.00000  Uiso   1.00
N319   N     0.99052   0.04601   0.10214   0.00000  Uiso   1.00
N320   N     0.80633   0.08407   0.53740   0.00000  Uiso   1.00
N321   N     0.92808   0.23228   0.34336   0.00000  Uiso   1.00
N322   N     0.99657   0.05082   0.40477   0.00000  Uiso   1.00
C323   C     0.40374   0.61714   0.59926   0.00000  Uiso   1.00
C324   C     0.37671   0.60787   0.71056   0.00000  Uiso   1.00
C325   C     0.35061   0.59741   0.63557   0.00000  Uiso   1.00
C326   C     0.32848   0.59011   0.76087   0.00000  Uiso   1.00
C327   C     0.28591   0.57527   0.90429   0.00000  Uiso   1.00
C328   C     0.41026   0.64872   0.65709   0.00000  Uiso   1.00
C329   C     0.41237   0.67260   0.53712   0.00000  Uiso   1.00
C330   C     0.41849   0.69969   0.61742   0.00000  Uiso   1.00
C331   C     0.42803   0.74826   0.67780   0.00000  Uiso   1.00
C332   C     0.42913   0.59871   0.67401   0.00000  Uiso   1.00
C333   C     0.44712   0.58054   0.56828   0.00000  Uiso   1.00
C334   C     0.46913   0.56552   0.66282   0.00000  Uiso   1.00
C335   C     0.50797   0.53644   0.74948   0.00000  Uiso   1.00
C336   C     0.41086   0.62280   0.95515   0.00000  Uiso   1.00
C337   C     0.38057   0.61095   0.90387   0.00000  Uiso   1.00
C338   C     0.35848   0.60367   0.02932   0.00000  Uiso   1.00
C339   C     0.33235   0.59319   0.95453   0.00000  Uiso   1.00
C340   C     0.41412   0.65180   0.85038   0.00000  Uiso   1.00
C341   C     0.42024   0.67886   0.93088   0.00000  Uiso   1.00
C342   C     0.42236   0.70277   0.81107   0.00000  Uiso   1.00
C343   C     0.43299   0.60178   0.86732   0.00000  Uiso   1.00
C344   C     0.45499   0.58679   0.96204   0.00000  Uiso   1.00
C345   C     0.47300   0.56860   0.85647   0.00000  Uiso   1.00
H346   H     0.40073   0.61475   0.44876   0.00000  Uiso   1.00
H347   H     0.34763   0.59503   0.48596   0.00000  Uiso   1.00
H348   H     0.40938   0.67021   0.38754   0.00000  Uiso   1.00
H349   H     0.44412   0.57816   0.41870   0.00000  Uiso   1.00
H350   H     0.29045   0.57454   0.61245   0.00000  Uiso   1.00
H351   H     0.42068   0.73306   0.40491   0.00000  Uiso   1.00
H352   H     0.49393   0.53895   0.47060   0.00000  Uiso   1.00
H353   H     0.41386   0.62519   0.10565   0.00000  Uiso   1.00
H354   H     0.36148   0.60605   0.17890   0.00000  Uiso   1.00
H355   H     0.42323   0.68123   0.08047   0.00000  Uiso   1.00
H356   H     0.45797   0.58918   0.11163   0.00000  Uiso   1.00
H357   H     0.30169   0.58348   0.17487   0.00000  Uiso   1.00
H358   H     0.43192   0.74200   0.96732   0.00000  Uiso   1.00
H359   H     0.50517   0.54789   0.03302   0.00000  Uiso   1.00
O360   O     0.26136   0.56624   0.92999   0.00000  Uiso   1.00
O361   O     0.43222   0.77420   0.65769   0.00000  Uiso   1.00
O362   O     0.52832   0.51954   0.74388   0.00000  Uiso   1.00
N363   N     0.30028   0.57926   0.73477   0.00000  Uiso   1.00
N364   N     0.42204   0.72747   0.54073   0.00000  Uiso   1.00
N365   N     0.49052   0.54601   0.60214   0.00000  Uiso   1.00
N366   N     0.30633   0.58407   0.03740   0.00000  Uiso   1.00
N367   N     0.42808   0.73228   0.84336   0.00000  Uiso   1.00
N368   N     0.49657   0.55082   0.90477   0.00000  Uiso   1.00
C369   C     0.11714   0.09626   0.90074   0.00000  Uiso   1.00
C370   C     0.10787   0.12329   0.78944   0.00000  Uiso   1.00
C371   C     0.09741   0.14939   0.86443   0.00000  Uiso   1.00
C372   C     0.09011   0.17152   0.73913   0.00000  Uiso   1.00
C373   C     0.07527   0.21409   0.59571   0.00000  Uiso   1.00
C374   C     0.14872   0.08974   0.84291   0.00000  Uiso   1.00
C375   C     0.17260   0.08763   0.96288   0.00000  Uiso   1.00
C376   C     0.19969   0.08151   0.88258   0.00000  Uiso   1.00
C377   C     0.24826   0.07197   0.82220   0.00000  Uiso   1.00
C378   C     0.09871   0.07087   0.82599   0.00000  Uiso   1.00
C379   C     0.08054   0.05288   0.93172   0.00000  Uiso   1.00
C380   C     0.06552   0.03087   0.83718   0.00000  Uiso   1.00
C381   C     0.03644   0.99203   0.75052   0.00000  Uiso   1.00
C382   C     0.12280   0.08914   0.54485   0.00000  Uiso   1.00
C383   C     0.11095   0.11943   0.59613   0.00000  Uiso   1.00
C384   C     0.10367   0.14152   0.47068   0.00000  Uiso   1.00
C385   C     0.09319   0.16765   0.54547   0.00000  Uiso   1.00
C386   C     0.15180   0.08588   0.64962   0.00000  Uiso   1.00
C387   C     0.17886   0.07976   0.56912   0.00000  Uiso   1.00
C388   C     0.20277   0.07764   0.68893   0.00000  Uiso   1.00
C389   C     0.10178   0.06701   0.63268   0.00000  Uiso   1.00
C390   C     0.08679   0.04501   0.53796   0.00000  Uiso   1.00
C391   C     0.06860   0.02700   0.64353   0.00000  Uiso   1.00
H392   H     0.11475   0.09927   0.05124   0.00000  Uiso   1.00
H393   H     0.09503   0.15237   0.01404   0.00000  Uiso   1.00
H394   H     0.17021   0.09062   0.11246   0.00000  Uiso   1.00
H395   H     0.07816   0.05588   0.08130   0.00000  Uiso   1.00
H396   H     0.07454   0.20955   0.88755   0.00000  Uiso   1.00
H397   H     0.23306   0.07932   0.09509   0.00000  Uiso   1.00
H398   H     0.03895   0.00607   0.02940   0.00000  Uiso   1.00
H399   H     0.12519   0.08614   0.39435   0.00000  Uiso   1.00
H400   H     0.10605   0.13852   0.32110   0.00000  Uiso   1.00
H401   H     0.18123   0.07677   0.41953   0.00000  Uiso   1.00
H402   H     0.08918   0.04203   0.38837   0.00000  Uiso   1.00
H403   H     0.08348   0.19831   0.32513   0.00000  Uiso   1.00
H404   H     0.24200   0.06808   0.53268   0.00000  Uiso   1.00
H405   H     0.04789   0.99483   0.46698   0.00000  Uiso   1.00
O406   O     0.06624   0.23864   0.57001   0.00000  Uiso   1.00
O407   O     0.27420   0.06778   0.84231   0.00000  Uiso   1.00
O408   O     0.01954   0.97168   0.75612   0.00000  Uiso   1.00
N409   N     0.07926   0.19972   0.76523   0.00000  Uiso   1.00
N410   N     0.22747   0.07796   0.95927   0.00000  Uiso   1.00
N411   N     0.04601   0.00948   0.89786   0.00000  Uiso   1.00
N412   N     0.08407   0.19367   0.46260   0.00000  Uiso   1.00
N413   N     0.23228   0.07192   0.65664   0.00000  Uiso   1.00
N414   N     0.05082   0.00343   0.59523   0.00000  Uiso   1.00
C415   C     0.61714   0.59626   0.40074   0.00000  Uiso   1.00
C416   C     0.60787   0.62329   0.28944   0.00000  Uiso   1.00
C417   C     0.59741   0.64939   0.36443   0.00000  Uiso   1.00
C418   C     0.59011   0.67152   0.23913   0.00000  Uiso   1.00
C419   C     0.57527   0.71409   0.09571   0.00000  Uiso   1.00
C420   C     0.64872   0.58974   0.34291   0.00000  Uiso   1.00
C421   C     0.67260   0.58763   0.46288   0.00000  Uiso   1.00
C422   C     0.69969   0.58151   0.38258   0.00000  Uiso   1.00
C423   C     0.74826   0.57197   0.32220   0.00000  Uiso   1.00
C424   C     0.59871   0.57087   0.32599   0.00000  Uiso   1.00
C425   C     0.58054   0.55288   0.43172   0.00000  Uiso   1.00
C426   C     0.56552   0.53087   0.33718   0.00000  Uiso   1.00
C427   C     0.53644   0.49203   0.25052   0.00000  Uiso   1.00
C428   C     0.62280   0.58914   0.04485   0.00000  Uiso   1.00
C429   C     0.61095   0.61943   0.09613   0.00000  Uiso   1.00
C430   C     0.60367   0.64152   0.97068   0.00000  Uiso   1.00
C431   C     0.59319   0.66765   0.04547   0.00000  Uiso   1.00
C432   C     0.65180   0.58588   0.14962   0.00000  Uiso   1.00
C433   C     0.67886   0.57976   0.06912   0.00000  Uiso   1.00
C434   C     0.70277   0.57764   0.18893   0.00000  Uiso   1.00
C435   C     0.60178   0.56701   0.13268   0.00000  Uiso   1.00
C436   C     0.58679   0.54501   0.03796   0.00000  Uiso   1.00
C437   C     0.56860   0.52700   0.14353   0.00000  Uiso   1.00
H438   H     0.61475   0.59927   0.55124   0.00000  Uiso   1.00
H439   H     0.59503   0.65237   0.51404   0.00000  Uiso   1.00
H440   H     0.67021   0.59062   0.61246   0.00000  Uiso   1.00
H441   H     0.57816   0.55588   0.58130   0.00000  Uiso   1.00
H442   H     0.57454   0.70955   0.38755   0.00000  Uiso   1.00
H443   H     0.73306   0.57932   0.59509   0.00000  Uiso   1.00
H444   H     0.53895   0.50607   0.52940   0.00000  Uiso   1.00
H445   H     0.62519   0.58614   0.89435   0.00000  Uiso   1.00
H446   H     0.60605   0.63852   0.82110   0.00000  Uiso   1.00
H447   H     0.68123   0.57677   0.91953   0.00000  Uiso   1.00
H448   H     0.58918   0.54203   0.88837   0.00000  Uiso   1.00
H449   H     0.58348   0.69831   0.82513   0.00000  Uiso   1.00
H450   H     0.74200   0.56808   0.03268   0.00000  Uiso   1.00
H451   H     0.54789   0.49483   0.96698   0.00000  Uiso   1.00
O452   O     0.56624   0.73864   0.07001   0.00000  Uiso   1.00
O453   O     0.77420   0.56778   0.34231   0.00000  Uiso   1.00
O454   O     0.51954   0.47168   0.25612   0.00000  Uiso   1.00
N455   N     0.57926   0.69972   0.26523   0.00000  Uiso   1.00
N456   N     0.72747   0.57796   0.45927   0.00000  Uiso   1.00
N457   N     0.54601   0.50948   0.39786   0.00000  Uiso   1.00
N458   N     0.58407   0.69367   0.96260   0.00000  Uiso   1.00
N459   N     0.73228   0.57192   0.15664   0.00000  Uiso   1.00
N460   N     0.55082   0.50343   0.09523   0.00000  Uiso   1.00
C461   C     0.38286   0.40374   0.40074   0.00000  Uiso   1.00
C462   C     0.39213   0.37671   0.28944   0.00000  Uiso   1.00
C463   C     0.40259   0.35061   0.36443   0.00000  Uiso   1.00
C464   C     0.40989   0.32848   0.23913   0.00000  Uiso   1.00
C465   C     0.42473   0.28591   0.09571   0.00000  Uiso   1.00
C466   C     0.35128   0.41026   0.34291   0.00000  Uiso   1.00
C467   C     0.32740   0.41237   0.46288   0.00000  Uiso   1.00
C468   C     0.30031   0.41849   0.38258   0.00000  Uiso   1.00
C469   C     0.25174   0.42803   0.32220   0.00000  Uiso   1.00
C470   C     0.40129   0.42913   0.32599   0.00000  Uiso   1.00
C471   C     0.41946   0.44712   0.43172   0.00000  Uiso   1.00
C472   C     0.43448   0.46913   0.33718   0.00000  Uiso   1.00
C473   C     0.46356   0.50797   0.25052   0.00000  Uiso   1.00
C474   C     0.37720   0.41086   0.04485   0.00000  Uiso   1.00
C475   C     0.38905   0.38057   0.09613   0.00000  Uiso   1.00
C476   C     0.39633   0.35848   0.97068   0.00000  Uiso   1.00
C477   C     0.40681   0.33235   0.04547   0.00000  Uiso   1.00
C478   C     0.34820   0.41412   0.14962   0.00000  Uiso   1.00
C479   C     0.32114   0.42024   0.06912   0.00000  Uiso   1.00
C480   C     0.29723   0.42236   0.18893   0.00000  Uiso   1.00
C481   C     0.39822   0.43299   0.13268   0.00000  Uiso   1.00
C482   C     0.41321   0.45499   0.03796   0.00000  Uiso   1.00
C483   C     0.43140   0.47300   0.14353   0.00000  Uiso   1.00
H484   H     0.38525   0.40073   0.55124   0.00000  Uiso   1.00
H485   H     0.40497   0.34763   0.51404   0.00000  Uiso   1.00
H486   H     0.32979   0.40938   0.61246   0.00000  Uiso   1.00
H487   H     0.42184   0.44412   0.58130   0.00000  Uiso   1.00
H488   H     0.42546   0.29045   0.38755   0.00000  Uiso   1.00
H489   H     0.26694   0.42068   0.59509   0.00000  Uiso   1.00
H490   H     0.46105   0.49393   0.52940   0.00000  Uiso   1.00
H491   H     0.37481   0.41386   0.89435   0.00000  Uiso   1.00
H492   H     0.39395   0.36148   0.82110   0.00000  Uiso   1.00
H493   H     0.31877   0.42323   0.91953   0.00000  Uiso   1.00
H494   H     0.41082   0.45797   0.88837   0.00000  Uiso   1.00
H495   H     0.41652   0.30169   0.82513   0.00000  Uiso   1.00
H496   H     0.25800   0.43192   0.03268   0.00000  Uiso   1.00
H497   H     0.45211   0.50517   0.96698   0.00000  Uiso   1.00
O498   O     0.43376   0.26136   0.07001   0.00000  Uiso   1.00
O499   O     0.22580   0.43222   0.34231   0.00000  Uiso   1.00
O500   O     0.48046   0.52832   0.25612   0.00000  Uiso   1.00
N501   N     0.42074   0.30028   0.26523   0.00000  Uiso   1.00
N502   N     0.27253   0.42204   0.45927   0.00000  Uiso   1.00
N503   N     0.45399   0.49052   0.39786   0.00000  Uiso   1.00
N504   N     0.41593   0.30633   0.96260   0.00000  Uiso   1.00
N505   N     0.26772   0.42808   0.15664   0.00000  Uiso   1.00
N506   N     0.44918   0.49657   0.09523   0.00000  Uiso   1.00
C507   C     0.88286   0.90374   0.90074   0.00000  Uiso   1.00
C508   C     0.89213   0.87671   0.78944   0.00000  Uiso   1.00
C509   C     0.90259   0.85061   0.86443   0.00000  Uiso   1.00
C510   C     0.90989   0.82848   0.73913   0.00000  Uiso   1.00
C511   C     0.92473   0.78591   0.59571   0.00000  Uiso   1.00
C512   C     0.85128   0.91026   0.84291   0.00000  Uiso   1.00
C513   C     0.82740   0.91237   0.96288   0.00000  Uiso   1.00
C514   C     0.80031   0.91849   0.88258   0.00000  Uiso   1.00
C515   C     0.75174   0.92803   0.82220   0.00000  Uiso   1.00
C516   C     0.90129   0.92913   0.82599   0.00000  Uiso   1.00
C517   C     0.91946   0.94712   0.93172   0.00000  Uiso   1.00
C518   C     0.93448   0.96913   0.83718   0.00000  Uiso   1.00
C519   C     0.96356   0.00797   0.75052   0.00000  Uiso   1.00
C520   C     0.87720   0.91086   0.54485   0.00000  Uiso   1.00
C521   C     0.88905   0.88057   0.59613   0.00000  Uiso   1.00
C522   C     0.89633   0.85848   0.47068   0.00000  Uiso   1.00
C523   C     0.90681   0.83235   0.54547   0.00000  Uiso   1.00
C524   C     0.84820   0.91412   0.64962   0.00000  Uiso   1.00
C525   C     0.82114   0.92024   0.56912   0.00000  Uiso   1.00
C526   C     0.79723   0.92236   0.68893   0.00000  Uiso   1.00
C527   C     0.89822   0.93299   0.63268   0.00000  Uiso   1.00
C528   C     0.91321   0.95499   0.53796   0.00000  Uiso   1.00
C529   C     0.93140   0.97300   0.64353   0.00000  Uiso   1.00
H530   H     0.88525   0.90073   0.05124   0.00000  Uiso   1.00
H531   H     0.90497   0.84763   0.01404   0.00000  Uiso   1.00
H532   H     0.82979   0.90938   0.11246   0.00000  Uiso   1.00
H533   H     0.92184   0.94412   0.08130   0.00000  Uiso   1.00
H534   H     0.92546   0.79045   0.88755   0.00000  Uiso   1.00
H535   H     0.76694   0.92068   0.09509   0.00000  Uiso   1.00
H536   H     0.96105   0.99393   0.02940   0.00000  Uiso   1.00
H537   H     0.87481   0.91386   0.39435   0.00000  Uiso   1.00
H538   H     0.89395   0.86148   0.32110   0.00000  Uiso   1.00
H539   H     0.81877   0.92323   0.41953   0.00000  Uiso   1.00
H540   H     0.91082   0.95797   0.38837   0.00000  Uiso   1.00
H541   H     0.91652   0.80169   0.32513   0.00000  Uiso   1.00
H542   H     0.75800   0.93192   0.53268   0.00000  Uiso   1.00
H543   H     0.95211   0.00517   0.46698   0.00000  Uiso   1.00
O544   O     0.93376   0.76136   0.57001   0.00000  Uiso   1.00
O545   O     0.72580   0.93222   0.84231   0.00000  Uiso   1.00
O546   O     0.98046   0.02832   0.75612   0.00000  Uiso   1.00
N547   N     0.92074   0.80028   0.76523   0.00000  Uiso   1.00
N548   N     0.77253   0.92204   0.95927   0.00000  Uiso   1.00
N549   N     0.95399   0.99052   0.89786   0.00000  Uiso   1.00
N550   N     0.91593   0.80633   0.46260   0.00000  Uiso   1.00
N551   N     0.76772   0.92808   0.65664   0.00000  Uiso   1.00
N552   N     0.94918   0.99657   0.59523   0.00000  Uiso   1.00
C553   C     0.40374   0.11714   0.65074   0.00000  Uiso   1.00
C554   C     0.37671   0.10787   0.53944   0.00000  Uiso   1.00
C555   C     0.35061   0.09741   0.61443   0.00000  Uiso   1.00
C556   C     0.32848   0.09011   0.48913   0.00000  Uiso   1.00
C557   C     0.28591   0.07527   0.34571   0.00000  Uiso   1.00
C558   C     0.41026   0.14872   0.59291   0.00000  Uiso   1.00
C559   C     0.41237   0.17260   0.71288   0.00000  Uiso   1.00
C560   C     0.41849   0.19969   0.63258   0.00000  Uiso   1.00
C561   C     0.42803   0.24826   0.57220   0.00000  Uiso   1.00
C562   C     0.42913   0.09871   0.57599   0.00000  Uiso   1.00
C563   C     0.44712   0.08054   0.68172   0.00000  Uiso   1.00
C564   C     0.46913   0.06552   0.58718   0.00000  Uiso   1.00
C565   C     0.50797   0.03644   0.50052   0.00000  Uiso   1.00
C566   C     0.41086   0.12280   0.29485   0.00000  Uiso   1.00
C567   C     0.38057   0.11095   0.34613   0.00000  Uiso   1.00
C568   C     0.35848   0.10367   0.22068   0.00000  Uiso   1.00
C569   C     0.33235   0.09319   0.29547   0.00000  Uiso   1.00
C570   C     0.41412   0.15180   0.39962   0.00000  Uiso   1.00
C571   C     0.42024   0.17886   0.31912   0.00000  Uiso   1.00
C572   C     0.42236   0.20277   0.43893   0.00000  Uiso   1.00
C573   C     0.43299   0.10178   0.38268   0.00000  Uiso   1.00
C574   C     0.45499   0.08679   0.28796   0.00000  Uiso   1.00
C575   C     0.47300   0.06860   0.39353   0.00000  Uiso   1.00
H576   H     0.40073   0.11475   0.80124   0.00000  Uiso   1.00
H577   H     0.34763   0.09503   0.76404   0.00000  Uiso   1.00
H578   H     0.40938   0.17021   0.86246   0.00000  Uiso   1.00
H579   H     0.44412   0.07816   0.83130   0.00000  Uiso   1.00
H580   H     0.29045   0.07454   0.63755   0.00000  Uiso   1.00
H581   H     0.42068   0.23306   0.84509   0.00000  Uiso   1.00
H582   H     0.49393   0.03895   0.77940   0.00000  Uiso   1.00
H583   H     0.41386   0.12519   0.14435   0.00000  Uiso   1.00
H584   H     0.36148   0.10605   0.07110   0.00000  Uiso   1.00
H585   H     0.42323   0.18123   0.16953   0.00000  Uiso   1.00
H586   H     0.45797   0.08918   0.13837   0.00000  Uiso   1.00
H587   H     0.30169   0.08348   0.07513   0.00000  Uiso   1.00
H588   H     0.43192   0.24200   0.28268   0.00000  Uiso   1.00
H589   H     0.50517   0.04789   0.21698   0.00000  Uiso   1.00
O590   O     0.26136   0.06624   0.32001   0.00000  Uiso   1.00
O591   O     0.43222   0.27420   0.59231   0.00000  Uiso   1.00
O592   O     0.52832   0.01954   0.50612   0.00000  Uiso   1.00
N593   N     0.30028   0.07926   0.51523   0.00000  Uiso   1.00
N594   N     0.42204   0.22747   0.70927   0.00000  Uiso   1.00
N595   N     0.49052   0.04601   0.64786   0.00000  Uiso   1.00
N596   N     0.30633   0.08407   0.21260   0.00000  Uiso   1.00
N597   N     0.42808   0.23228   0.40664   0.00000  Uiso   1.00
N598   N     0.49657   0.05082   0.34523   0.00000  Uiso   1.00
C599   C     0.90374   0.61714   0.15074   0.00000  Uiso   1.00
C600   C     0.87671   0.60787   0.03944   0.00000  Uiso   1.00
C601   C     0.85061   0.59741   0.11443   0.00000  Uiso   1.00
C602   C     0.82848   0.59011   0.98913   0.00000  Uiso   1.00
C603   C     0.78591   0.57527   0.84571   0.00000  Uiso   1.00
C604   C     0.91026   0.64872   0.09291   0.00000  Uiso   1.00
C605   C     0.91237   0.67260   0.21288   0.00000  Uiso   1.00
C606   C     0.91849   0.69969   0.13258   0.00000  Uiso   1.00
C607   C     0.92803   0.74826   0.07220   0.00000  Uiso   1.00
C608   C     0.92913   0.59871   0.07599   0.00000  Uiso   1.00
C609   C     0.94712   0.58054   0.18172   0.00000  Uiso   1.00
C610   C     0.96913   0.56552   0.08718   0.00000  Uiso   1.00
C611   C     0.00797   0.53644   0.00052   0.00000  Uiso   1.00
C612   C     0.91086   0.62280   0.79485   0.00000  Uiso   1.00
C613   C     0.88057   0.61095   0.84613   0.00000  Uiso   1.00
C614   C     0.85848   0.60367   0.72068   0.00000  Uiso   1.00
C615   C     0.83235   0.59319   0.79547   0.00000  Uiso   1.00
C616   C     0.91412   0.65180   0.89962   0.00000  Uiso   1.00
C617   C     0.92024   0.67886   0.81912   0.00000  Uiso   1.00
C618   C     0.92236   0.70277   0.93893   0.00000  Uiso   1.00
C619   C     0.93299   0.60178   0.88268   0.00000  Uiso   1.00
C620   C     0.95499   0.58679   0.78796   0.00000  Uiso   1.00
C621   C     0.97300   0.56860   0.89353   0.00000  Uiso   1.00
H622   H     0.90073   0.61475   0.30124   0.00000  Uiso   1.00
H623   H     0.84763   0.59503   0.26404   0.00000  Uiso   1.00
H624   H     0.90938   0.67021   0.36246   0.00000  Uiso   1.00
H625   H     0.94412   0.57816   0.33130   0.00000  Uiso   1.00
H626   H     0.79045   0.57454   0.13755   0.00000  Uiso   1.00
H627   H     0.92068   0.73306   0.34509   0.00000  Uiso   1.00
H628   H     0.99393   0.53895   0.27940   0.00000  Uiso   1.00
H629   H     0.91386   0.62519   0.64435   0.00000  Uiso   1.00
H630   H     0.86148   0.60605   0.57110   0.00000  Uiso   1.00
H631   H     0.92323   0.68123   0.66953   0.00000  Uiso   1.00
H632   H     0.95797   0.58918   0.63837   0.00000  Uiso   1.00
H633   H     0.80169   0.58348   0.57513   0.00000  Uiso   1.00
H634   H     0.93192   0.74200   0.78268   0.00000  Uiso   1.00
H635   H     0.00517   0.54789   0.71698   0.00000  Uiso   1.00
O636   O     0.76136   0.56624   0.82001   0.00000  Uiso   1.00
O637   O     0.93222   0.77420   0.09231   0.00000  Uiso   1.00
O638   O     0.02832   0.51954   0.00612   0.00000  Uiso   1.00
N639   N     0.80028   0.57926   0.01523   0.00000  Uiso   1.00
N640   N     0.92204   0.72747   0.20927   0.00000  Uiso   1.00
N641   N     0.99052   0.54601   0.14786   0.00000  Uiso   1.00
N642   N     0.80633   0.58407   0.71260   0.00000  Uiso   1.00
N643   N     0.92808   0.73228   0.90664   0.00000  Uiso   1.00
N644   N     0.99657   0.55082   0.84523   0.00000  Uiso   1.00
C645   C     0.09626   0.38286   0.15074   0.00000  Uiso   1.00
C646   C     0.12329   0.39213   0.03944   0.00000  Uiso   1.00
C647   C     0.14939   0.40259   0.11443   0.00000  Uiso   1.00
C648   C     0.17152   0.40989   0.98913   0.00000  Uiso   1.00
C649   C     0.21409   0.42473   0.84571   0.00000  Uiso   1.00
C650   C     0.08974   0.35128   0.09291   0.00000  Uiso   1.00
C651   C     0.08763   0.32740   0.21288   0.00000  Uiso   1.00
C652   C     0.08151   0.30031   0.13258   0.00000  Uiso   1.00
C653   C     0.07197   0.25174   0.07220   0.00000  Uiso   1.00
C654   C     0.07087   0.40129   0.07599   0.00000  Uiso   1.00
C655   C     0.05288   0.41946   0.18172   0.00000  Uiso   1.00
C656   C     0.03087   0.43448   0.08718   0.00000  Uiso   1.00
C657   C     0.99203   0.46356   0.00052   0.00000  Uiso   1.00
C658   C     0.08914   0.37720   0.79485   0.00000  Uiso   1.00
C659   C     0.11943   0.38905   0.84613   0.00000  Uiso   1.00
C660   C     0.14152   0.39633   0.72068   0.00000  Uiso   1.00
C661   C     0.16765   0.40681   0.79547   0.00000  Uiso   1.00
C662   C     0.08588   0.34820   0.89962   0.00000  Uiso   1.00
C663   C     0.07976   0.32114   0.81912   0.00000  Uiso   1.00
C664   C     0.07764   0.29723   0.93893   0.00000  Uiso   1.00
C665   C     0.06701   0.39822   0.88268   0.00000  Uiso   1.00
C666   C     0.04501   0.41321   0.78796   0.00000  Uiso   1.00
C667   C     0.02700   0.43140   0.89353   0.00000  Uiso   1.00
H668   H     0.09927   0.38525   0.30124   0.00000  Uiso   1.00
H669   H     0.15237   0.40497   0.26404   0.00000  Uiso   1.00
H670   H     0.09062   0.32979   0.36246   0.00000  Uiso   1.00
H671   H     0.05588   0.42184   0.33130   0.00000  Uiso   1.00
H672   H     0.20955   0.42546   0.13755   0.00000  Uiso   1.00
H673   H     0.07932   0.26694   0.34509   0.00000  Uiso   1.00
H674   H     0.00607   0.46105   0.27940   0.00000  Uiso   1.00
H675   H     0.08614   0.37481   0.64435   0.00000  Uiso   1.00
H676   H     0.13852   0.39395   0.57110   0.00000  Uiso   1.00
H677   H     0.07677   0.31877   0.66953   0.00000  Uiso   1.00
H678   H     0.04203   0.41082   0.63837   0.00000  Uiso   1.00
H679   H     0.19831   0.41652   0.57513   0.00000  Uiso   1.00
H680   H     0.06808   0.25800   0.78268   0.00000  Uiso   1.00
H681   H     0.99483   0.45211   0.71698   0.00000  Uiso   1.00
O682   O     0.23864   0.43376   0.82001   0.00000  Uiso   1.00
O683   O     0.06778   0.22580   0.09231   0.00000  Uiso   1.00
O684   O     0.97168   0.48046   0.00612   0.00000  Uiso   1.00
N685   N     0.19972   0.42074   0.01523   0.00000  Uiso   1.00
N686   N     0.07796   0.27253   0.20927   0.00000  Uiso   1.00
N687   N     0.00948   0.45399   0.14786   0.00000  Uiso   1.00
N688   N     0.19367   0.41593   0.71260   0.00000  Uiso   1.00
N689   N     0.07192   0.26772   0.90664   0.00000  Uiso   1.00
N690   N     0.00343   0.44918   0.84523   0.00000  Uiso   1.00
C691   C     0.59626   0.88286   0.65074   0.00000  Uiso   1.00
C692   C     0.62329   0.89213   0.53944   0.00000  Uiso   1.00
C693   C     0.64939   0.90259   0.61443   0.00000  Uiso   1.00
C694   C     0.67152   0.90989   0.48913   0.00000  Uiso   1.00
C695   C     0.71409   0.92473   0.34571   0.00000  Uiso   1.00
C696   C     0.58974   0.85128   0.59291   0.00000  Uiso   1.00
C697   C     0.58763   0.82740   0.71288   0.00000  Uiso   1.00
C698   C     0.58151   0.80031   0.63258   0.00000  Uiso   1.00
C699   C     0.57197   0.75174   0.57220   0.00000  Uiso   1.00
C700   C     0.57087   0.90129   0.57599   0.00000  Uiso   1.00
C701   C     0.55288   0.91946   0.68172   0.00000  Uiso   1.00
C702   C     0.53087   0.93448   0.58718   0.00000  Uiso   1.00
C703   C     0.49203   0.96356   0.50052   0.00000  Uiso   1.00
C704   C     0.58914   0.87720   0.29485   0.00000  Uiso   1.00
C705   C     0.61943   0.88905   0.34613   0.00000  Uiso   1.00
C706   C     0.64152   0.89633   0.22068   0.00000  Uiso   1.00
C707   C     0.66765   0.90681   0.29547   0.00000  Uiso   1.00
C708   C     0.58588   0.84820   0.39962   0.00000  Uiso   1.00
C709   C     0.57976   0.82114   0.31912   0.00000  Uiso   1.00
C710   C     0.57764   0.79723   0.43893   0.00000  Uiso   1.00
C711   C     0.56701   0.89822   0.38268   0.00000  Uiso   1.00
C712   C     0.54501   0.91321   0.28796   0.00000  Uiso   1.00
C713   C     0.52700   0.93140   0.39353   0.00000  Uiso   1.00
H714   H     0.59927   0.88525   0.80124   0.00000  Uiso   1.00
H715   H     0.65237   0.90497   0.76404   0.00000  Uiso   1.00
H716   H     0.59062   0.82979   0.86246   0.00000  Uiso   1.00
H717   H     0.55588   0.92184   0.83130   0.00000  Uiso   1.00
H718   H     0.70955   0.92546   0.63755   0.00000  Uiso   1.00
H719   H     0.57932   0.76694   0.84509   0.00000  Uiso   1.00
H720   H     0.50607   0.96105   0.77940   0.00000  Uiso   1.00
H721   H     0.58614   0.87481   0.14435   0.00000  Uiso   1.00
H722   H     0.63852   0.89395   0.07110   0.00000  Uiso   1.00
H723   H     0.57677   0.81877   0.16953   0.00000  Uiso   1.00
H724   H     0.54203   0.91082   0.13837   0.00000  Uiso   1.00
H725   H     0.69831   0.91652   0.07513   0.00000  Uiso   1.00
H726   H     0.56808   0.75800   0.28268   0.00000  Uiso   1.00
H727   H     0.49483   0.95211   0.21698   0.00000  Uiso   1.00
O728   O     0.73864   0.93376   0.32001   0.00000  Uiso   1.00
O729   O     0.56778   0.72580   0.59231   0.00000  Uiso   1.00
O730   O     0.47168   0.98046   0.50612   0.00000  Uiso   1.00
N731   N     0.69972   0.92074   0.51523   0.00000  Uiso   1.00
N732   N     0.57796   0.77253   0.70927   0.00000  Uiso   1.00
N733   N     0.50948   0.95399   0.64786   0.00000  Uiso   1.00
N734   N     0.69367   0.91593   0.21260   0.00000  Uiso   1.00
N735   N     0.57192   0.76772   0.40664   0.00000  Uiso   1.00
N736   N     0.50343   0.94918   0.34523   0.00000  Uiso   1.00
