data_job_04205
_audit_creation_date              2018-12-19
_audit_creation_method            'Materials Studio'
_symmetry_space_group_name_H-M    'P1'
_symmetry_Int_Tables_number       1
_symmetry_cell_setting            triclinic
loop_
_symmetry_equiv_pos_as_xyz
  x,y,z
_cell_length_a                    40.6147
_cell_length_b                    19.4939
_cell_length_c                    14.9157
_cell_angle_alpha                 90.0000
_cell_angle_beta                  90.0000
_cell_angle_gamma                 90.0000
loop_
_atom_site_label
_atom_site_type_symbol
_atom_site_fract_x
_atom_site_fract_y
_atom_site_fract_z
_atom_site_U_iso_or_equiv
_atom_site_adp_type
_atom_site_occupancy
C1     C     0.89939   0.23630   0.38737   0.00000  Uiso   1.00
C2     C     0.92941   0.19108   0.40397   0.00000  Uiso   1.00
C3     C     0.95427   0.17763   0.34262   0.00000  Uiso   1.00
C4     C     0.97962   0.13494   0.37071   0.00000  Uiso   1.00
C5     C     0.02616   0.06898   0.38334   0.00000  Uiso   1.00
C6     C     0.86943   0.19145   0.40639   0.00000  Uiso   1.00
C7     C     0.84386   0.17832   0.34709   0.00000  Uiso   1.00
C8     C     0.81872   0.13594   0.37723   0.00000  Uiso   1.00
C9     C     0.77213   0.07059   0.39365   0.00000  Uiso   1.00
C10    C     0.89986   0.29081   0.46068   0.00000  Uiso   1.00
C11    C     0.89987   0.36124   0.44702   0.00000  Uiso   1.00
C12    C     0.90033   0.40252   0.52286   0.00000  Uiso   1.00
C13    C     0.90099   0.49145   0.62356   0.00000  Uiso   1.00
C14    C     0.90018   0.18440   0.54634   0.00000  Uiso   1.00
C15    C     0.92984   0.16289   0.49032   0.00000  Uiso   1.00
C16    C     0.95515   0.12021   0.51851   0.00000  Uiso   1.00
C17    C     0.98005   0.10670   0.45722   0.00000  Uiso   1.00
C18    C     0.86986   0.16326   0.49274   0.00000  Uiso   1.00
C19    C     0.84474   0.12089   0.52298   0.00000  Uiso   1.00
C20    C     0.81915   0.10770   0.46374   0.00000  Uiso   1.00
C21    C     0.90029   0.26263   0.54703   0.00000  Uiso   1.00
C22    C     0.90075   0.30381   0.62291   0.00000  Uiso   1.00
C23    C     0.90076   0.37428   0.60937   0.00000  Uiso   1.00
H24    H     0.89905   0.25825   0.32014   0.00000  Uiso   1.00
H25    H     0.95393   0.19945   0.27580   0.00000  Uiso   1.00
H26    H     0.84354   0.20014   0.28027   0.00000  Uiso   1.00
H27    H     0.89954   0.38303   0.38018   0.00000  Uiso   1.00
H28    H     0.01496   0.12181   0.26471   0.00000  Uiso   1.00
H29    H     0.78219   0.12329   0.27415   0.00000  Uiso   1.00
H30    H     0.90027   0.50895   0.48484   0.00000  Uiso   1.00
H31    H     0.90051   0.16246   0.61357   0.00000  Uiso   1.00
H32    H     0.95548   0.09840   0.58534   0.00000  Uiso   1.00
H33    H     0.84508   0.09909   0.58981   0.00000  Uiso   1.00
H34    H     0.90108   0.28198   0.68972   0.00000  Uiso   1.00
H35    H     0.01621   0.03979   0.51594   0.00000  Uiso   1.00
H36    H     0.78344   0.04127   0.52539   0.00000  Uiso   1.00
H37    H     0.90152   0.42693   0.73607   0.00000  Uiso   1.00
O38    O     0.05171   0.04037   0.36645   0.00000  Uiso   1.00
O39    O     0.74632   0.04232   0.37884   0.00000  Uiso   1.00
O40    O     0.90124   0.54829   0.65525   0.00000  Uiso   1.00
N41    N     0.00772   0.11131   0.32772   0.00000  Uiso   1.00
N42    N     0.79009   0.11268   0.33654   0.00000  Uiso   1.00
N43    N     0.90048   0.47324   0.53351   0.00000  Uiso   1.00
N44    N     0.00839   0.06718   0.46290   0.00000  Uiso   1.00
N45    N     0.79076   0.06855   0.47173   0.00000  Uiso   1.00
N46    N     0.90115   0.42911   0.66870   0.00000  Uiso   1.00
C47    C     0.39939   0.73630   0.88737   0.00000  Uiso   1.00
C48    C     0.42941   0.69108   0.90397   0.00000  Uiso   1.00
C49    C     0.45427   0.67763   0.84262   0.00000  Uiso   1.00
C50    C     0.47962   0.63494   0.87071   0.00000  Uiso   1.00
C51    C     0.52616   0.56898   0.88334   0.00000  Uiso   1.00
C52    C     0.36943   0.69145   0.90639   0.00000  Uiso   1.00
C53    C     0.34386   0.67832   0.84709   0.00000  Uiso   1.00
C54    C     0.31872   0.63594   0.87723   0.00000  Uiso   1.00
C55    C     0.27213   0.57059   0.89365   0.00000  Uiso   1.00
C56    C     0.39986   0.79081   0.96068   0.00000  Uiso   1.00
C57    C     0.39987   0.86124   0.94702   0.00000  Uiso   1.00
C58    C     0.40033   0.90252   0.02286   0.00000  Uiso   1.00
C59    C     0.40099   0.99145   0.12356   0.00000  Uiso   1.00
C60    C     0.40018   0.68440   0.04634   0.00000  Uiso   1.00
C61    C     0.42984   0.66289   0.99032   0.00000  Uiso   1.00
C62    C     0.45515   0.62021   0.01851   0.00000  Uiso   1.00
C63    C     0.48005   0.60670   0.95722   0.00000  Uiso   1.00
C64    C     0.36986   0.66326   0.99274   0.00000  Uiso   1.00
C65    C     0.34474   0.62089   0.02298   0.00000  Uiso   1.00
C66    C     0.31915   0.60770   0.96374   0.00000  Uiso   1.00
C67    C     0.40029   0.76263   0.04703   0.00000  Uiso   1.00
C68    C     0.40075   0.80381   0.12291   0.00000  Uiso   1.00
C69    C     0.40076   0.87428   0.10937   0.00000  Uiso   1.00
H70    H     0.39905   0.75825   0.82014   0.00000  Uiso   1.00
H71    H     0.45393   0.69945   0.77580   0.00000  Uiso   1.00
H72    H     0.34354   0.70014   0.78027   0.00000  Uiso   1.00
H73    H     0.39954   0.88303   0.88018   0.00000  Uiso   1.00
H74    H     0.51496   0.62181   0.76471   0.00000  Uiso   1.00
H75    H     0.28219   0.62329   0.77415   0.00000  Uiso   1.00
H76    H     0.40027   0.00895   0.98484   0.00000  Uiso   1.00
H77    H     0.40051   0.66246   0.11357   0.00000  Uiso   1.00
H78    H     0.45548   0.59840   0.08534   0.00000  Uiso   1.00
H79    H     0.34508   0.59909   0.08981   0.00000  Uiso   1.00
H80    H     0.40108   0.78198   0.18972   0.00000  Uiso   1.00
H81    H     0.51621   0.53979   0.01594   0.00000  Uiso   1.00
H82    H     0.28344   0.54127   0.02539   0.00000  Uiso   1.00
H83    H     0.40152   0.92693   0.23607   0.00000  Uiso   1.00
O84    O     0.55171   0.54037   0.86645   0.00000  Uiso   1.00
O85    O     0.24632   0.54232   0.87884   0.00000  Uiso   1.00
O86    O     0.40124   0.04829   0.15525   0.00000  Uiso   1.00
N87    N     0.50772   0.61131   0.82772   0.00000  Uiso   1.00
N88    N     0.29009   0.61268   0.83654   0.00000  Uiso   1.00
N89    N     0.40048   0.97324   0.03351   0.00000  Uiso   1.00
N90    N     0.50839   0.56718   0.96290   0.00000  Uiso   1.00
N91    N     0.29076   0.56855   0.97173   0.00000  Uiso   1.00
N92    N     0.40115   0.92911   0.16870   0.00000  Uiso   1.00
C93    C     0.60061   0.76370   0.88737   0.00000  Uiso   1.00
C94    C     0.57059   0.80892   0.90397   0.00000  Uiso   1.00
C95    C     0.54573   0.82237   0.84262   0.00000  Uiso   1.00
C96    C     0.52038   0.86506   0.87071   0.00000  Uiso   1.00
C97    C     0.47384   0.93102   0.88334   0.00000  Uiso   1.00
C98    C     0.63057   0.80855   0.90639   0.00000  Uiso   1.00
C99    C     0.65614   0.82168   0.84709   0.00000  Uiso   1.00
C100   C     0.68128   0.86406   0.87723   0.00000  Uiso   1.00
C101   C     0.72787   0.92941   0.89365   0.00000  Uiso   1.00
C102   C     0.60014   0.70919   0.96068   0.00000  Uiso   1.00
C103   C     0.60013   0.63876   0.94702   0.00000  Uiso   1.00
C104   C     0.59967   0.59748   0.02286   0.00000  Uiso   1.00
C105   C     0.59901   0.50855   0.12356   0.00000  Uiso   1.00
C106   C     0.59982   0.81560   0.04634   0.00000  Uiso   1.00
C107   C     0.57016   0.83711   0.99032   0.00000  Uiso   1.00
C108   C     0.54485   0.87979   0.01851   0.00000  Uiso   1.00
C109   C     0.51995   0.89330   0.95722   0.00000  Uiso   1.00
C110   C     0.63014   0.83674   0.99274   0.00000  Uiso   1.00
C111   C     0.65526   0.87911   0.02298   0.00000  Uiso   1.00
C112   C     0.68085   0.89230   0.96374   0.00000  Uiso   1.00
C113   C     0.59971   0.73737   0.04703   0.00000  Uiso   1.00
C114   C     0.59925   0.69619   0.12291   0.00000  Uiso   1.00
C115   C     0.59924   0.62572   0.10937   0.00000  Uiso   1.00
H116   H     0.60095   0.74175   0.82014   0.00000  Uiso   1.00
H117   H     0.54607   0.80055   0.77580   0.00000  Uiso   1.00
H118   H     0.65646   0.79986   0.78027   0.00000  Uiso   1.00
H119   H     0.60046   0.61697   0.88018   0.00000  Uiso   1.00
H120   H     0.48504   0.87819   0.76471   0.00000  Uiso   1.00
H121   H     0.71781   0.87671   0.77415   0.00000  Uiso   1.00
H122   H     0.59973   0.49105   0.98484   0.00000  Uiso   1.00
H123   H     0.59949   0.83754   0.11357   0.00000  Uiso   1.00
H124   H     0.54452   0.90160   0.08534   0.00000  Uiso   1.00
H125   H     0.65492   0.90091   0.08981   0.00000  Uiso   1.00
H126   H     0.59892   0.71802   0.18972   0.00000  Uiso   1.00
H127   H     0.48379   0.96021   0.01594   0.00000  Uiso   1.00
H128   H     0.71656   0.95873   0.02539   0.00000  Uiso   1.00
H129   H     0.59848   0.57307   0.23607   0.00000  Uiso   1.00
O130   O     0.44829   0.95963   0.86645   0.00000  Uiso   1.00
O131   O     0.75368   0.95768   0.87884   0.00000  Uiso   1.00
O132   O     0.59876   0.45171   0.15525   0.00000  Uiso   1.00
N133   N     0.49228   0.88869   0.82772   0.00000  Uiso   1.00
N134   N     0.70991   0.88732   0.83654   0.00000  Uiso   1.00
N135   N     0.59952   0.52676   0.03351   0.00000  Uiso   1.00
N136   N     0.49161   0.93282   0.96290   0.00000  Uiso   1.00
N137   N     0.70924   0.93145   0.97173   0.00000  Uiso   1.00
N138   N     0.59885   0.57089   0.16870   0.00000  Uiso   1.00
C139   C     0.10061   0.26370   0.38737   0.00000  Uiso   1.00
C140   C     0.07059   0.30892   0.40397   0.00000  Uiso   1.00
C141   C     0.04573   0.32237   0.34262   0.00000  Uiso   1.00
C142   C     0.02038   0.36506   0.37071   0.00000  Uiso   1.00
C143   C     0.97384   0.43102   0.38334   0.00000  Uiso   1.00
C144   C     0.13057   0.30855   0.40639   0.00000  Uiso   1.00
C145   C     0.15614   0.32168   0.34709   0.00000  Uiso   1.00
C146   C     0.18128   0.36406   0.37723   0.00000  Uiso   1.00
C147   C     0.22787   0.42941   0.39365   0.00000  Uiso   1.00
C148   C     0.10014   0.20919   0.46068   0.00000  Uiso   1.00
C149   C     0.10013   0.13876   0.44702   0.00000  Uiso   1.00
C150   C     0.09967   0.09748   0.52286   0.00000  Uiso   1.00
C151   C     0.09901   0.00855   0.62356   0.00000  Uiso   1.00
C152   C     0.09982   0.31560   0.54634   0.00000  Uiso   1.00
C153   C     0.07016   0.33711   0.49032   0.00000  Uiso   1.00
C154   C     0.04485   0.37979   0.51851   0.00000  Uiso   1.00
C155   C     0.01995   0.39330   0.45722   0.00000  Uiso   1.00
C156   C     0.13014   0.33674   0.49274   0.00000  Uiso   1.00
C157   C     0.15526   0.37911   0.52298   0.00000  Uiso   1.00
C158   C     0.18085   0.39230   0.46374   0.00000  Uiso   1.00
C159   C     0.09971   0.23737   0.54703   0.00000  Uiso   1.00
C160   C     0.09925   0.19619   0.62291   0.00000  Uiso   1.00
C161   C     0.09924   0.12572   0.60937   0.00000  Uiso   1.00
H162   H     0.10095   0.24175   0.32014   0.00000  Uiso   1.00
H163   H     0.04607   0.30055   0.27580   0.00000  Uiso   1.00
H164   H     0.15646   0.29986   0.28027   0.00000  Uiso   1.00
H165   H     0.10046   0.11697   0.38018   0.00000  Uiso   1.00
H166   H     0.98504   0.37819   0.26471   0.00000  Uiso   1.00
H167   H     0.21781   0.37671   0.27415   0.00000  Uiso   1.00
H168   H     0.09973   0.99105   0.48484   0.00000  Uiso   1.00
H169   H     0.09949   0.33754   0.61357   0.00000  Uiso   1.00
H170   H     0.04452   0.40160   0.58534   0.00000  Uiso   1.00
H171   H     0.15492   0.40091   0.58981   0.00000  Uiso   1.00
H172   H     0.09892   0.21802   0.68972   0.00000  Uiso   1.00
H173   H     0.98379   0.46021   0.51594   0.00000  Uiso   1.00
H174   H     0.21656   0.45873   0.52539   0.00000  Uiso   1.00
H175   H     0.09848   0.07307   0.73607   0.00000  Uiso   1.00
O176   O     0.94829   0.45963   0.36645   0.00000  Uiso   1.00
O177   O     0.25368   0.45768   0.37884   0.00000  Uiso   1.00
O178   O     0.09876   0.95171   0.65525   0.00000  Uiso   1.00
N179   N     0.99228   0.38869   0.32772   0.00000  Uiso   1.00
N180   N     0.20991   0.38732   0.33654   0.00000  Uiso   1.00
N181   N     0.09952   0.02676   0.53351   0.00000  Uiso   1.00
N182   N     0.99161   0.43282   0.46290   0.00000  Uiso   1.00
N183   N     0.20924   0.43145   0.47173   0.00000  Uiso   1.00
N184   N     0.09885   0.07089   0.66870   0.00000  Uiso   1.00
C185   C     0.10061   0.73630   0.11263   0.00000  Uiso   1.00
C186   C     0.07059   0.69108   0.09603   0.00000  Uiso   1.00
C187   C     0.04573   0.67763   0.15738   0.00000  Uiso   1.00
C188   C     0.02038   0.63494   0.12929   0.00000  Uiso   1.00
C189   C     0.97384   0.56898   0.11666   0.00000  Uiso   1.00
C190   C     0.13057   0.69145   0.09361   0.00000  Uiso   1.00
C191   C     0.15614   0.67832   0.15291   0.00000  Uiso   1.00
C192   C     0.18128   0.63594   0.12277   0.00000  Uiso   1.00
C193   C     0.22787   0.57059   0.10635   0.00000  Uiso   1.00
C194   C     0.10014   0.79081   0.03932   0.00000  Uiso   1.00
C195   C     0.10013   0.86124   0.05298   0.00000  Uiso   1.00
C196   C     0.09967   0.90252   0.97714   0.00000  Uiso   1.00
C197   C     0.09901   0.99145   0.87644   0.00000  Uiso   1.00
C198   C     0.09982   0.68440   0.95366   0.00000  Uiso   1.00
C199   C     0.07016   0.66289   0.00968   0.00000  Uiso   1.00
C200   C     0.04485   0.62021   0.98149   0.00000  Uiso   1.00
C201   C     0.01995   0.60670   0.04278   0.00000  Uiso   1.00
C202   C     0.13014   0.66326   0.00726   0.00000  Uiso   1.00
C203   C     0.15526   0.62089   0.97702   0.00000  Uiso   1.00
C204   C     0.18085   0.60770   0.03626   0.00000  Uiso   1.00
C205   C     0.09971   0.76263   0.95297   0.00000  Uiso   1.00
C206   C     0.09925   0.80381   0.87709   0.00000  Uiso   1.00
C207   C     0.09924   0.87428   0.89063   0.00000  Uiso   1.00
H208   H     0.10095   0.75825   0.17986   0.00000  Uiso   1.00
H209   H     0.04607   0.69945   0.22420   0.00000  Uiso   1.00
H210   H     0.15646   0.70014   0.21973   0.00000  Uiso   1.00
H211   H     0.10046   0.88303   0.11982   0.00000  Uiso   1.00
H212   H     0.98504   0.62181   0.23529   0.00000  Uiso   1.00
H213   H     0.21781   0.62329   0.22585   0.00000  Uiso   1.00
H214   H     0.09973   0.00895   0.01516   0.00000  Uiso   1.00
H215   H     0.09949   0.66246   0.88643   0.00000  Uiso   1.00
H216   H     0.04452   0.59840   0.91466   0.00000  Uiso   1.00
H217   H     0.15492   0.59909   0.91019   0.00000  Uiso   1.00
H218   H     0.09892   0.78198   0.81028   0.00000  Uiso   1.00
H219   H     0.98379   0.53979   0.98406   0.00000  Uiso   1.00
H220   H     0.21656   0.54127   0.97461   0.00000  Uiso   1.00
H221   H     0.09848   0.92693   0.76393   0.00000  Uiso   1.00
O222   O     0.94829   0.54037   0.13355   0.00000  Uiso   1.00
O223   O     0.25368   0.54232   0.12116   0.00000  Uiso   1.00
O224   O     0.09876   0.04829   0.84475   0.00000  Uiso   1.00
N225   N     0.99228   0.61131   0.17228   0.00000  Uiso   1.00
N226   N     0.20991   0.61268   0.16346   0.00000  Uiso   1.00
N227   N     0.09952   0.97324   0.96649   0.00000  Uiso   1.00
N228   N     0.99161   0.56718   0.03710   0.00000  Uiso   1.00
N229   N     0.20924   0.56855   0.02827   0.00000  Uiso   1.00
N230   N     0.09885   0.92911   0.83130   0.00000  Uiso   1.00
C231   C     0.60061   0.23630   0.61263   0.00000  Uiso   1.00
C232   C     0.57059   0.19108   0.59603   0.00000  Uiso   1.00
C233   C     0.54573   0.17763   0.65738   0.00000  Uiso   1.00
C234   C     0.52038   0.13494   0.62929   0.00000  Uiso   1.00
C235   C     0.47384   0.06898   0.61666   0.00000  Uiso   1.00
C236   C     0.63057   0.19145   0.59361   0.00000  Uiso   1.00
C237   C     0.65614   0.17832   0.65291   0.00000  Uiso   1.00
C238   C     0.68128   0.13594   0.62277   0.00000  Uiso   1.00
C239   C     0.72787   0.07059   0.60635   0.00000  Uiso   1.00
C240   C     0.60014   0.29081   0.53932   0.00000  Uiso   1.00
C241   C     0.60013   0.36124   0.55298   0.00000  Uiso   1.00
C242   C     0.59967   0.40252   0.47714   0.00000  Uiso   1.00
C243   C     0.59901   0.49145   0.37644   0.00000  Uiso   1.00
C244   C     0.59982   0.18440   0.45366   0.00000  Uiso   1.00
C245   C     0.57016   0.16289   0.50968   0.00000  Uiso   1.00
C246   C     0.54485   0.12021   0.48149   0.00000  Uiso   1.00
C247   C     0.51995   0.10670   0.54278   0.00000  Uiso   1.00
C248   C     0.63014   0.16326   0.50726   0.00000  Uiso   1.00
C249   C     0.65526   0.12089   0.47702   0.00000  Uiso   1.00
C250   C     0.68085   0.10770   0.53626   0.00000  Uiso   1.00
C251   C     0.59971   0.26263   0.45297   0.00000  Uiso   1.00
C252   C     0.59925   0.30381   0.37709   0.00000  Uiso   1.00
C253   C     0.59924   0.37428   0.39063   0.00000  Uiso   1.00
H254   H     0.60095   0.25825   0.67986   0.00000  Uiso   1.00
H255   H     0.54607   0.19945   0.72420   0.00000  Uiso   1.00
H256   H     0.65646   0.20014   0.71973   0.00000  Uiso   1.00
H257   H     0.60046   0.38303   0.61982   0.00000  Uiso   1.00
H258   H     0.48504   0.12181   0.73529   0.00000  Uiso   1.00
H259   H     0.71781   0.12329   0.72585   0.00000  Uiso   1.00
H260   H     0.59973   0.50895   0.51516   0.00000  Uiso   1.00
H261   H     0.59949   0.16246   0.38643   0.00000  Uiso   1.00
H262   H     0.54452   0.09840   0.41466   0.00000  Uiso   1.00
H263   H     0.65492   0.09909   0.41019   0.00000  Uiso   1.00
H264   H     0.59892   0.28198   0.31028   0.00000  Uiso   1.00
H265   H     0.48379   0.03979   0.48406   0.00000  Uiso   1.00
H266   H     0.71656   0.04127   0.47461   0.00000  Uiso   1.00
H267   H     0.59848   0.42693   0.26393   0.00000  Uiso   1.00
O268   O     0.44829   0.04037   0.63355   0.00000  Uiso   1.00
O269   O     0.75368   0.04232   0.62116   0.00000  Uiso   1.00
O270   O     0.59876   0.54829   0.34475   0.00000  Uiso   1.00
N271   N     0.49228   0.11131   0.67228   0.00000  Uiso   1.00
N272   N     0.70991   0.11268   0.66346   0.00000  Uiso   1.00
N273   N     0.59952   0.47324   0.46649   0.00000  Uiso   1.00
N274   N     0.49161   0.06718   0.53710   0.00000  Uiso   1.00
N275   N     0.70924   0.06855   0.52827   0.00000  Uiso   1.00
N276   N     0.59885   0.42911   0.33130   0.00000  Uiso   1.00
C277   C     0.39939   0.26370   0.61263   0.00000  Uiso   1.00
C278   C     0.42941   0.30892   0.59603   0.00000  Uiso   1.00
C279   C     0.45427   0.32237   0.65738   0.00000  Uiso   1.00
C280   C     0.47962   0.36506   0.62929   0.00000  Uiso   1.00
C281   C     0.52616   0.43102   0.61666   0.00000  Uiso   1.00
C282   C     0.36943   0.30855   0.59361   0.00000  Uiso   1.00
C283   C     0.34386   0.32168   0.65291   0.00000  Uiso   1.00
C284   C     0.31872   0.36406   0.62277   0.00000  Uiso   1.00
C285   C     0.27213   0.42941   0.60635   0.00000  Uiso   1.00
C286   C     0.39986   0.20919   0.53932   0.00000  Uiso   1.00
C287   C     0.39987   0.13876   0.55298   0.00000  Uiso   1.00
C288   C     0.40033   0.09748   0.47714   0.00000  Uiso   1.00
C289   C     0.40099   0.00855   0.37644   0.00000  Uiso   1.00
C290   C     0.40018   0.31560   0.45366   0.00000  Uiso   1.00
C291   C     0.42984   0.33711   0.50968   0.00000  Uiso   1.00
C292   C     0.45515   0.37979   0.48149   0.00000  Uiso   1.00
C293   C     0.48005   0.39330   0.54278   0.00000  Uiso   1.00
C294   C     0.36986   0.33674   0.50726   0.00000  Uiso   1.00
C295   C     0.34474   0.37911   0.47702   0.00000  Uiso   1.00
C296   C     0.31915   0.39230   0.53626   0.00000  Uiso   1.00
C297   C     0.40029   0.23737   0.45297   0.00000  Uiso   1.00
C298   C     0.40075   0.19619   0.37709   0.00000  Uiso   1.00
C299   C     0.40076   0.12572   0.39063   0.00000  Uiso   1.00
H300   H     0.39905   0.24175   0.67986   0.00000  Uiso   1.00
H301   H     0.45393   0.30055   0.72420   0.00000  Uiso   1.00
H302   H     0.34354   0.29986   0.71973   0.00000  Uiso   1.00
H303   H     0.39954   0.11697   0.61982   0.00000  Uiso   1.00
H304   H     0.51496   0.37819   0.73529   0.00000  Uiso   1.00
H305   H     0.28219   0.37671   0.72585   0.00000  Uiso   1.00
H306   H     0.40027   0.99105   0.51516   0.00000  Uiso   1.00
H307   H     0.40051   0.33754   0.38643   0.00000  Uiso   1.00
H308   H     0.45548   0.40160   0.41466   0.00000  Uiso   1.00
H309   H     0.34508   0.40091   0.41019   0.00000  Uiso   1.00
H310   H     0.40108   0.21802   0.31028   0.00000  Uiso   1.00
H311   H     0.51621   0.46021   0.48406   0.00000  Uiso   1.00
H312   H     0.28344   0.45873   0.47461   0.00000  Uiso   1.00
H313   H     0.40152   0.07307   0.26393   0.00000  Uiso   1.00
O314   O     0.55171   0.45963   0.63355   0.00000  Uiso   1.00
O315   O     0.24632   0.45768   0.62116   0.00000  Uiso   1.00
O316   O     0.40124   0.95171   0.34475   0.00000  Uiso   1.00
N317   N     0.50772   0.38869   0.67228   0.00000  Uiso   1.00
N318   N     0.29009   0.38732   0.66346   0.00000  Uiso   1.00
N319   N     0.40048   0.02676   0.46649   0.00000  Uiso   1.00
N320   N     0.50839   0.43282   0.53710   0.00000  Uiso   1.00
N321   N     0.29076   0.43145   0.52827   0.00000  Uiso   1.00
N322   N     0.40115   0.07089   0.33130   0.00000  Uiso   1.00
C323   C     0.89939   0.76370   0.11263   0.00000  Uiso   1.00
C324   C     0.92941   0.80892   0.09603   0.00000  Uiso   1.00
C325   C     0.95427   0.82237   0.15738   0.00000  Uiso   1.00
C326   C     0.97962   0.86506   0.12929   0.00000  Uiso   1.00
C327   C     0.02616   0.93102   0.11666   0.00000  Uiso   1.00
C328   C     0.86943   0.80855   0.09361   0.00000  Uiso   1.00
C329   C     0.84386   0.82168   0.15291   0.00000  Uiso   1.00
C330   C     0.81872   0.86406   0.12277   0.00000  Uiso   1.00
C331   C     0.77213   0.92941   0.10635   0.00000  Uiso   1.00
C332   C     0.89986   0.70919   0.03932   0.00000  Uiso   1.00
C333   C     0.89987   0.63876   0.05298   0.00000  Uiso   1.00
C334   C     0.90033   0.59748   0.97714   0.00000  Uiso   1.00
C335   C     0.90099   0.50855   0.87644   0.00000  Uiso   1.00
C336   C     0.90018   0.81560   0.95366   0.00000  Uiso   1.00
C337   C     0.92984   0.83711   0.00968   0.00000  Uiso   1.00
C338   C     0.95515   0.87979   0.98149   0.00000  Uiso   1.00
C339   C     0.98005   0.89330   0.04278   0.00000  Uiso   1.00
C340   C     0.86986   0.83674   0.00726   0.00000  Uiso   1.00
C341   C     0.84474   0.87911   0.97702   0.00000  Uiso   1.00
C342   C     0.81915   0.89230   0.03626   0.00000  Uiso   1.00
C343   C     0.90029   0.73737   0.95297   0.00000  Uiso   1.00
C344   C     0.90075   0.69619   0.87709   0.00000  Uiso   1.00
C345   C     0.90076   0.62572   0.89063   0.00000  Uiso   1.00
H346   H     0.89905   0.74175   0.17986   0.00000  Uiso   1.00
H347   H     0.95393   0.80055   0.22420   0.00000  Uiso   1.00
H348   H     0.84354   0.79986   0.21973   0.00000  Uiso   1.00
H349   H     0.89954   0.61697   0.11982   0.00000  Uiso   1.00
H350   H     0.01496   0.87819   0.23529   0.00000  Uiso   1.00
H351   H     0.78219   0.87671   0.22585   0.00000  Uiso   1.00
H352   H     0.90027   0.49105   0.01516   0.00000  Uiso   1.00
H353   H     0.90051   0.83754   0.88643   0.00000  Uiso   1.00
H354   H     0.95548   0.90160   0.91466   0.00000  Uiso   1.00
H355   H     0.84508   0.90091   0.91019   0.00000  Uiso   1.00
H356   H     0.90108   0.71802   0.81028   0.00000  Uiso   1.00
H357   H     0.01621   0.96021   0.98406   0.00000  Uiso   1.00
H358   H     0.78344   0.95873   0.97461   0.00000  Uiso   1.00
H359   H     0.90152   0.57307   0.76393   0.00000  Uiso   1.00
O360   O     0.05171   0.95963   0.13355   0.00000  Uiso   1.00
O361   O     0.74632   0.95768   0.12116   0.00000  Uiso   1.00
O362   O     0.90124   0.45171   0.84475   0.00000  Uiso   1.00
N363   N     0.00772   0.88869   0.17228   0.00000  Uiso   1.00
N364   N     0.79009   0.88732   0.16346   0.00000  Uiso   1.00
N365   N     0.90048   0.52676   0.96649   0.00000  Uiso   1.00
N366   N     0.00839   0.93282   0.03710   0.00000  Uiso   1.00
N367   N     0.79076   0.93145   0.02827   0.00000  Uiso   1.00
N368   N     0.90115   0.57089   0.83130   0.00000  Uiso   1.00
C369   C     0.10061   0.76370   0.61263   0.00000  Uiso   1.00
C370   C     0.07059   0.80892   0.59603   0.00000  Uiso   1.00
C371   C     0.04573   0.82237   0.65738   0.00000  Uiso   1.00
C372   C     0.02038   0.86506   0.62929   0.00000  Uiso   1.00
C373   C     0.97384   0.93102   0.61666   0.00000  Uiso   1.00
C374   C     0.13057   0.80855   0.59361   0.00000  Uiso   1.00
C375   C     0.15614   0.82168   0.65291   0.00000  Uiso   1.00
C376   C     0.18128   0.86406   0.62277   0.00000  Uiso   1.00
C377   C     0.22787   0.92941   0.60635   0.00000  Uiso   1.00
C378   C     0.10014   0.70919   0.53932   0.00000  Uiso   1.00
C379   C     0.10013   0.63876   0.55298   0.00000  Uiso   1.00
C380   C     0.09967   0.59748   0.47714   0.00000  Uiso   1.00
C381   C     0.09901   0.50855   0.37644   0.00000  Uiso   1.00
C382   C     0.09982   0.81560   0.45366   0.00000  Uiso   1.00
C383   C     0.07016   0.83711   0.50968   0.00000  Uiso   1.00
C384   C     0.04485   0.87979   0.48149   0.00000  Uiso   1.00
C385   C     0.01995   0.89330   0.54278   0.00000  Uiso   1.00
C386   C     0.13014   0.83674   0.50726   0.00000  Uiso   1.00
C387   C     0.15526   0.87911   0.47702   0.00000  Uiso   1.00
C388   C     0.18085   0.89230   0.53626   0.00000  Uiso   1.00
C389   C     0.09971   0.73737   0.45297   0.00000  Uiso   1.00
C390   C     0.09925   0.69619   0.37709   0.00000  Uiso   1.00
C391   C     0.09924   0.62572   0.39063   0.00000  Uiso   1.00
H392   H     0.10095   0.74175   0.67986   0.00000  Uiso   1.00
H393   H     0.04607   0.80055   0.72420   0.00000  Uiso   1.00
H394   H     0.15646   0.79986   0.71973   0.00000  Uiso   1.00
H395   H     0.10046   0.61697   0.61982   0.00000  Uiso   1.00
H396   H     0.98504   0.87819   0.73529   0.00000  Uiso   1.00
H397   H     0.21781   0.87671   0.72585   0.00000  Uiso   1.00
H398   H     0.09973   0.49105   0.51516   0.00000  Uiso   1.00
H399   H     0.09949   0.83754   0.38643   0.00000  Uiso   1.00
H400   H     0.04452   0.90160   0.41466   0.00000  Uiso   1.00
H401   H     0.15492   0.90091   0.41019   0.00000  Uiso   1.00
H402   H     0.09892   0.71802   0.31028   0.00000  Uiso   1.00
H403   H     0.98379   0.96021   0.48406   0.00000  Uiso   1.00
H404   H     0.21656   0.95873   0.47461   0.00000  Uiso   1.00
H405   H     0.09848   0.57307   0.26393   0.00000  Uiso   1.00
O406   O     0.94829   0.95963   0.63355   0.00000  Uiso   1.00
O407   O     0.25368   0.95768   0.62116   0.00000  Uiso   1.00
O408   O     0.09876   0.45171   0.34475   0.00000  Uiso   1.00
N409   N     0.99228   0.88869   0.67228   0.00000  Uiso   1.00
N410   N     0.20991   0.88732   0.66346   0.00000  Uiso   1.00
N411   N     0.09952   0.52676   0.46649   0.00000  Uiso   1.00
N412   N     0.99161   0.93282   0.53710   0.00000  Uiso   1.00
N413   N     0.20924   0.93145   0.52827   0.00000  Uiso   1.00
N414   N     0.09885   0.57089   0.33130   0.00000  Uiso   1.00
C415   C     0.60061   0.26370   0.11263   0.00000  Uiso   1.00
C416   C     0.57059   0.30892   0.09603   0.00000  Uiso   1.00
C417   C     0.54573   0.32237   0.15738   0.00000  Uiso   1.00
C418   C     0.52038   0.36506   0.12929   0.00000  Uiso   1.00
C419   C     0.47384   0.43102   0.11666   0.00000  Uiso   1.00
C420   C     0.63057   0.30855   0.09361   0.00000  Uiso   1.00
C421   C     0.65614   0.32168   0.15291   0.00000  Uiso   1.00
C422   C     0.68128   0.36406   0.12277   0.00000  Uiso   1.00
C423   C     0.72787   0.42941   0.10635   0.00000  Uiso   1.00
C424   C     0.60014   0.20919   0.03932   0.00000  Uiso   1.00
C425   C     0.60013   0.13876   0.05298   0.00000  Uiso   1.00
C426   C     0.59967   0.09748   0.97714   0.00000  Uiso   1.00
C427   C     0.59901   0.00855   0.87644   0.00000  Uiso   1.00
C428   C     0.59982   0.31560   0.95366   0.00000  Uiso   1.00
C429   C     0.57016   0.33711   0.00968   0.00000  Uiso   1.00
C430   C     0.54485   0.37979   0.98149   0.00000  Uiso   1.00
C431   C     0.51995   0.39330   0.04278   0.00000  Uiso   1.00
C432   C     0.63014   0.33674   0.00726   0.00000  Uiso   1.00
C433   C     0.65526   0.37911   0.97702   0.00000  Uiso   1.00
C434   C     0.68085   0.39230   0.03626   0.00000  Uiso   1.00
C435   C     0.59971   0.23737   0.95297   0.00000  Uiso   1.00
C436   C     0.59925   0.19619   0.87709   0.00000  Uiso   1.00
C437   C     0.59924   0.12572   0.89063   0.00000  Uiso   1.00
H438   H     0.60095   0.24175   0.17986   0.00000  Uiso   1.00
H439   H     0.54607   0.30055   0.22420   0.00000  Uiso   1.00
H440   H     0.65646   0.29986   0.21973   0.00000  Uiso   1.00
H441   H     0.60046   0.11697   0.11982   0.00000  Uiso   1.00
H442   H     0.48504   0.37819   0.23529   0.00000  Uiso   1.00
H443   H     0.71781   0.37671   0.22585   0.00000  Uiso   1.00
H444   H     0.59973   0.99105   0.01516   0.00000  Uiso   1.00
H445   H     0.59949   0.33754   0.88643   0.00000  Uiso   1.00
H446   H     0.54452   0.40160   0.91466   0.00000  Uiso   1.00
H447   H     0.65492   0.40091   0.91019   0.00000  Uiso   1.00
H448   H     0.59892   0.21802   0.81028   0.00000  Uiso   1.00
H449   H     0.48379   0.46021   0.98406   0.00000  Uiso   1.00
H450   H     0.71656   0.45873   0.97461   0.00000  Uiso   1.00
H451   H     0.59848   0.07307   0.76393   0.00000  Uiso   1.00
O452   O     0.44829   0.45963   0.13355   0.00000  Uiso   1.00
O453   O     0.75368   0.45768   0.12116   0.00000  Uiso   1.00
O454   O     0.59876   0.95171   0.84475   0.00000  Uiso   1.00
N455   N     0.49228   0.38869   0.17228   0.00000  Uiso   1.00
N456   N     0.70991   0.38732   0.16346   0.00000  Uiso   1.00
N457   N     0.59952   0.02676   0.96649   0.00000  Uiso   1.00
N458   N     0.49161   0.43282   0.03710   0.00000  Uiso   1.00
N459   N     0.70924   0.43145   0.02827   0.00000  Uiso   1.00
N460   N     0.59885   0.07089   0.83130   0.00000  Uiso   1.00
C461   C     0.39939   0.23630   0.11263   0.00000  Uiso   1.00
C462   C     0.42941   0.19108   0.09603   0.00000  Uiso   1.00
C463   C     0.45427   0.17763   0.15738   0.00000  Uiso   1.00
C464   C     0.47962   0.13494   0.12929   0.00000  Uiso   1.00
C465   C     0.52616   0.06898   0.11666   0.00000  Uiso   1.00
C466   C     0.36943   0.19145   0.09361   0.00000  Uiso   1.00
C467   C     0.34386   0.17832   0.15291   0.00000  Uiso   1.00
C468   C     0.31872   0.13594   0.12277   0.00000  Uiso   1.00
C469   C     0.27213   0.07059   0.10635   0.00000  Uiso   1.00
C470   C     0.39986   0.29081   0.03932   0.00000  Uiso   1.00
C471   C     0.39987   0.36124   0.05298   0.00000  Uiso   1.00
C472   C     0.40033   0.40252   0.97714   0.00000  Uiso   1.00
C473   C     0.40099   0.49145   0.87644   0.00000  Uiso   1.00
C474   C     0.40018   0.18440   0.95366   0.00000  Uiso   1.00
C475   C     0.42984   0.16289   0.00968   0.00000  Uiso   1.00
C476   C     0.45515   0.12021   0.98149   0.00000  Uiso   1.00
C477   C     0.48005   0.10670   0.04278   0.00000  Uiso   1.00
C478   C     0.36986   0.16326   0.00726   0.00000  Uiso   1.00
C479   C     0.34474   0.12089   0.97702   0.00000  Uiso   1.00
C480   C     0.31915   0.10770   0.03626   0.00000  Uiso   1.00
C481   C     0.40029   0.26263   0.95297   0.00000  Uiso   1.00
C482   C     0.40075   0.30381   0.87709   0.00000  Uiso   1.00
C483   C     0.40076   0.37428   0.89063   0.00000  Uiso   1.00
H484   H     0.39905   0.25825   0.17986   0.00000  Uiso   1.00
H485   H     0.45393   0.19945   0.22420   0.00000  Uiso   1.00
H486   H     0.34354   0.20014   0.21973   0.00000  Uiso   1.00
H487   H     0.39954   0.38303   0.11982   0.00000  Uiso   1.00
H488   H     0.51496   0.12181   0.23529   0.00000  Uiso   1.00
H489   H     0.28219   0.12329   0.22585   0.00000  Uiso   1.00
H490   H     0.40027   0.50895   0.01516   0.00000  Uiso   1.00
H491   H     0.40051   0.16246   0.88643   0.00000  Uiso   1.00
H492   H     0.45548   0.09840   0.91466   0.00000  Uiso   1.00
H493   H     0.34508   0.09909   0.91019   0.00000  Uiso   1.00
H494   H     0.40108   0.28198   0.81028   0.00000  Uiso   1.00
H495   H     0.51621   0.03979   0.98406   0.00000  Uiso   1.00
H496   H     0.28344   0.04127   0.97461   0.00000  Uiso   1.00
H497   H     0.40152   0.42693   0.76393   0.00000  Uiso   1.00
O498   O     0.55171   0.04037   0.13355   0.00000  Uiso   1.00
O499   O     0.24632   0.04232   0.12116   0.00000  Uiso   1.00
O500   O     0.40124   0.54829   0.84475   0.00000  Uiso   1.00
N501   N     0.50772   0.11131   0.17228   0.00000  Uiso   1.00
N502   N     0.29009   0.11268   0.16346   0.00000  Uiso   1.00
N503   N     0.40048   0.47324   0.96649   0.00000  Uiso   1.00
N504   N     0.50839   0.06718   0.03710   0.00000  Uiso   1.00
N505   N     0.29076   0.06855   0.02827   0.00000  Uiso   1.00
N506   N     0.40115   0.42911   0.83130   0.00000  Uiso   1.00
C507   C     0.89939   0.73630   0.61263   0.00000  Uiso   1.00
C508   C     0.92941   0.69108   0.59603   0.00000  Uiso   1.00
C509   C     0.95427   0.67763   0.65738   0.00000  Uiso   1.00
C510   C     0.97962   0.63494   0.62929   0.00000  Uiso   1.00
C511   C     0.02616   0.56898   0.61666   0.00000  Uiso   1.00
C512   C     0.86943   0.69145   0.59361   0.00000  Uiso   1.00
C513   C     0.84386   0.67832   0.65291   0.00000  Uiso   1.00
C514   C     0.81872   0.63594   0.62277   0.00000  Uiso   1.00
C515   C     0.77213   0.57059   0.60635   0.00000  Uiso   1.00
C516   C     0.89986   0.79081   0.53932   0.00000  Uiso   1.00
C517   C     0.89987   0.86124   0.55298   0.00000  Uiso   1.00
C518   C     0.90033   0.90252   0.47714   0.00000  Uiso   1.00
C519   C     0.90099   0.99145   0.37644   0.00000  Uiso   1.00
C520   C     0.90018   0.68440   0.45366   0.00000  Uiso   1.00
C521   C     0.92984   0.66289   0.50968   0.00000  Uiso   1.00
C522   C     0.95515   0.62021   0.48149   0.00000  Uiso   1.00
C523   C     0.98005   0.60670   0.54278   0.00000  Uiso   1.00
C524   C     0.86986   0.66326   0.50726   0.00000  Uiso   1.00
C525   C     0.84474   0.62089   0.47702   0.00000  Uiso   1.00
C526   C     0.81915   0.60770   0.53626   0.00000  Uiso   1.00
C527   C     0.90029   0.76263   0.45297   0.00000  Uiso   1.00
C528   C     0.90075   0.80381   0.37709   0.00000  Uiso   1.00
C529   C     0.90076   0.87428   0.39063   0.00000  Uiso   1.00
H530   H     0.89905   0.75825   0.67986   0.00000  Uiso   1.00
H531   H     0.95393   0.69945   0.72420   0.00000  Uiso   1.00
H532   H     0.84354   0.70014   0.71973   0.00000  Uiso   1.00
H533   H     0.89954   0.88303   0.61982   0.00000  Uiso   1.00
H534   H     0.01496   0.62181   0.73529   0.00000  Uiso   1.00
H535   H     0.78219   0.62329   0.72585   0.00000  Uiso   1.00
H536   H     0.90027   0.00895   0.51516   0.00000  Uiso   1.00
H537   H     0.90051   0.66246   0.38643   0.00000  Uiso   1.00
H538   H     0.95548   0.59840   0.41466   0.00000  Uiso   1.00
H539   H     0.84508   0.59909   0.41019   0.00000  Uiso   1.00
H540   H     0.90108   0.78198   0.31028   0.00000  Uiso   1.00
H541   H     0.01621   0.53979   0.48406   0.00000  Uiso   1.00
H542   H     0.78344   0.54127   0.47461   0.00000  Uiso   1.00
H543   H     0.90152   0.92693   0.26393   0.00000  Uiso   1.00
O544   O     0.05171   0.54037   0.63355   0.00000  Uiso   1.00
O545   O     0.74632   0.54232   0.62116   0.00000  Uiso   1.00
O546   O     0.90124   0.04829   0.34475   0.00000  Uiso   1.00
N547   N     0.00772   0.61131   0.67228   0.00000  Uiso   1.00
N548   N     0.79009   0.61268   0.66346   0.00000  Uiso   1.00
N549   N     0.90048   0.97324   0.46649   0.00000  Uiso   1.00
N550   N     0.00839   0.56718   0.53710   0.00000  Uiso   1.00
N551   N     0.79076   0.56855   0.52827   0.00000  Uiso   1.00
N552   N     0.90115   0.92911   0.33130   0.00000  Uiso   1.00
C553   C     0.89939   0.26370   0.88737   0.00000  Uiso   1.00
C554   C     0.92941   0.30892   0.90397   0.00000  Uiso   1.00
C555   C     0.95427   0.32237   0.84262   0.00000  Uiso   1.00
C556   C     0.97962   0.36506   0.87071   0.00000  Uiso   1.00
C557   C     0.02616   0.43102   0.88334   0.00000  Uiso   1.00
C558   C     0.86943   0.30855   0.90639   0.00000  Uiso   1.00
C559   C     0.84386   0.32168   0.84709   0.00000  Uiso   1.00
C560   C     0.81872   0.36406   0.87723   0.00000  Uiso   1.00
C561   C     0.77213   0.42941   0.89365   0.00000  Uiso   1.00
C562   C     0.89986   0.20919   0.96068   0.00000  Uiso   1.00
C563   C     0.89987   0.13876   0.94702   0.00000  Uiso   1.00
C564   C     0.90033   0.09748   0.02286   0.00000  Uiso   1.00
C565   C     0.90099   0.00855   0.12356   0.00000  Uiso   1.00
C566   C     0.90018   0.31560   0.04634   0.00000  Uiso   1.00
C567   C     0.92984   0.33711   0.99032   0.00000  Uiso   1.00
C568   C     0.95515   0.37979   0.01851   0.00000  Uiso   1.00
C569   C     0.98005   0.39330   0.95722   0.00000  Uiso   1.00
C570   C     0.86986   0.33674   0.99274   0.00000  Uiso   1.00
C571   C     0.84474   0.37911   0.02298   0.00000  Uiso   1.00
C572   C     0.81915   0.39230   0.96374   0.00000  Uiso   1.00
C573   C     0.90029   0.23737   0.04703   0.00000  Uiso   1.00
C574   C     0.90075   0.19619   0.12291   0.00000  Uiso   1.00
C575   C     0.90076   0.12572   0.10937   0.00000  Uiso   1.00
H576   H     0.89905   0.24175   0.82014   0.00000  Uiso   1.00
H577   H     0.95393   0.30055   0.77580   0.00000  Uiso   1.00
H578   H     0.84354   0.29986   0.78027   0.00000  Uiso   1.00
H579   H     0.89954   0.11697   0.88018   0.00000  Uiso   1.00
H580   H     0.01496   0.37819   0.76471   0.00000  Uiso   1.00
H581   H     0.78219   0.37671   0.77415   0.00000  Uiso   1.00
H582   H     0.90027   0.99105   0.98484   0.00000  Uiso   1.00
H583   H     0.90051   0.33754   0.11357   0.00000  Uiso   1.00
H584   H     0.95548   0.40160   0.08534   0.00000  Uiso   1.00
H585   H     0.84508   0.40091   0.08981   0.00000  Uiso   1.00
H586   H     0.90108   0.21802   0.18972   0.00000  Uiso   1.00
H587   H     0.01621   0.46021   0.01594   0.00000  Uiso   1.00
H588   H     0.78344   0.45873   0.02539   0.00000  Uiso   1.00
H589   H     0.90152   0.07307   0.23607   0.00000  Uiso   1.00
O590   O     0.05171   0.45963   0.86645   0.00000  Uiso   1.00
O591   O     0.74632   0.45768   0.87884   0.00000  Uiso   1.00
O592   O     0.90124   0.95171   0.15525   0.00000  Uiso   1.00
N593   N     0.00772   0.38869   0.82772   0.00000  Uiso   1.00
N594   N     0.79009   0.38732   0.83654   0.00000  Uiso   1.00
N595   N     0.90048   0.02676   0.03351   0.00000  Uiso   1.00
N596   N     0.00839   0.43282   0.96290   0.00000  Uiso   1.00
N597   N     0.79076   0.43145   0.97173   0.00000  Uiso   1.00
N598   N     0.90115   0.07089   0.16870   0.00000  Uiso   1.00
C599   C     0.39939   0.76370   0.38737   0.00000  Uiso   1.00
C600   C     0.42941   0.80892   0.40397   0.00000  Uiso   1.00
C601   C     0.45427   0.82237   0.34262   0.00000  Uiso   1.00
C602   C     0.47962   0.86506   0.37071   0.00000  Uiso   1.00
C603   C     0.52616   0.93102   0.38334   0.00000  Uiso   1.00
C604   C     0.36943   0.80855   0.40639   0.00000  Uiso   1.00
C605   C     0.34386   0.82168   0.34709   0.00000  Uiso   1.00
C606   C     0.31872   0.86406   0.37723   0.00000  Uiso   1.00
C607   C     0.27213   0.92941   0.39365   0.00000  Uiso   1.00
C608   C     0.39986   0.70919   0.46068   0.00000  Uiso   1.00
C609   C     0.39987   0.63876   0.44702   0.00000  Uiso   1.00
C610   C     0.40033   0.59748   0.52286   0.00000  Uiso   1.00
C611   C     0.40099   0.50855   0.62356   0.00000  Uiso   1.00
C612   C     0.40018   0.81560   0.54634   0.00000  Uiso   1.00
C613   C     0.42984   0.83711   0.49032   0.00000  Uiso   1.00
C614   C     0.45515   0.87979   0.51851   0.00000  Uiso   1.00
C615   C     0.48005   0.89330   0.45722   0.00000  Uiso   1.00
C616   C     0.36986   0.83674   0.49274   0.00000  Uiso   1.00
C617   C     0.34474   0.87911   0.52298   0.00000  Uiso   1.00
C618   C     0.31915   0.89230   0.46374   0.00000  Uiso   1.00
C619   C     0.40029   0.73737   0.54703   0.00000  Uiso   1.00
C620   C     0.40075   0.69619   0.62291   0.00000  Uiso   1.00
C621   C     0.40076   0.62572   0.60937   0.00000  Uiso   1.00
H622   H     0.39905   0.74175   0.32014   0.00000  Uiso   1.00
H623   H     0.45393   0.80055   0.27580   0.00000  Uiso   1.00
H624   H     0.34354   0.79986   0.28027   0.00000  Uiso   1.00
H625   H     0.39954   0.61697   0.38018   0.00000  Uiso   1.00
H626   H     0.51496   0.87819   0.26471   0.00000  Uiso   1.00
H627   H     0.28219   0.87671   0.27415   0.00000  Uiso   1.00
H628   H     0.40027   0.49105   0.48484   0.00000  Uiso   1.00
H629   H     0.40051   0.83754   0.61357   0.00000  Uiso   1.00
H630   H     0.45548   0.90160   0.58534   0.00000  Uiso   1.00
H631   H     0.34508   0.90091   0.58981   0.00000  Uiso   1.00
H632   H     0.40108   0.71802   0.68972   0.00000  Uiso   1.00
H633   H     0.51621   0.96021   0.51594   0.00000  Uiso   1.00
H634   H     0.28344   0.95873   0.52539   0.00000  Uiso   1.00
H635   H     0.40152   0.57307   0.73607   0.00000  Uiso   1.00
O636   O     0.55171   0.95963   0.36645   0.00000  Uiso   1.00
O637   O     0.24632   0.95768   0.37884   0.00000  Uiso   1.00
O638   O     0.40124   0.45171   0.65525   0.00000  Uiso   1.00
N639   N     0.50772   0.88869   0.32772   0.00000  Uiso   1.00
N640   N     0.29009   0.88732   0.33654   0.00000  Uiso   1.00
N641   N     0.40048   0.52676   0.53351   0.00000  Uiso   1.00
N642   N     0.50839   0.93282   0.46290   0.00000  Uiso   1.00
N643   N     0.29076   0.93145   0.47173   0.00000  Uiso   1.00
N644   N     0.40115   0.57089   0.66870   0.00000  Uiso   1.00
C645   C     0.60061   0.73630   0.38737   0.00000  Uiso   1.00
C646   C     0.57059   0.69108   0.40397   0.00000  Uiso   1.00
C647   C     0.54573   0.67763   0.34262   0.00000  Uiso   1.00
C648   C     0.52038   0.63494   0.37071   0.00000  Uiso   1.00
C649   C     0.47384   0.56898   0.38334   0.00000  Uiso   1.00
C650   C     0.63057   0.69145   0.40639   0.00000  Uiso   1.00
C651   C     0.65614   0.67832   0.34709   0.00000  Uiso   1.00
C652   C     0.68128   0.63594   0.37723   0.00000  Uiso   1.00
C653   C     0.72787   0.57059   0.39365   0.00000  Uiso   1.00
C654   C     0.60014   0.79081   0.46068   0.00000  Uiso   1.00
C655   C     0.60013   0.86124   0.44702   0.00000  Uiso   1.00
C656   C     0.59967   0.90252   0.52286   0.00000  Uiso   1.00
C657   C     0.59901   0.99145   0.62356   0.00000  Uiso   1.00
C658   C     0.59982   0.68440   0.54634   0.00000  Uiso   1.00
C659   C     0.57016   0.66289   0.49032   0.00000  Uiso   1.00
C660   C     0.54485   0.62021   0.51851   0.00000  Uiso   1.00
C661   C     0.51995   0.60670   0.45722   0.00000  Uiso   1.00
C662   C     0.63014   0.66326   0.49274   0.00000  Uiso   1.00
C663   C     0.65526   0.62089   0.52298   0.00000  Uiso   1.00
C664   C     0.68085   0.60770   0.46374   0.00000  Uiso   1.00
C665   C     0.59971   0.76263   0.54703   0.00000  Uiso   1.00
C666   C     0.59925   0.80381   0.62291   0.00000  Uiso   1.00
C667   C     0.59924   0.87428   0.60937   0.00000  Uiso   1.00
H668   H     0.60095   0.75825   0.32014   0.00000  Uiso   1.00
H669   H     0.54607   0.69945   0.27580   0.00000  Uiso   1.00
H670   H     0.65646   0.70014   0.28027   0.00000  Uiso   1.00
H671   H     0.60046   0.88303   0.38018   0.00000  Uiso   1.00
H672   H     0.48504   0.62181   0.26471   0.00000  Uiso   1.00
H673   H     0.71781   0.62329   0.27415   0.00000  Uiso   1.00
H674   H     0.59973   0.00895   0.48484   0.00000  Uiso   1.00
H675   H     0.59949   0.66246   0.61357   0.00000  Uiso   1.00
H676   H     0.54452   0.59840   0.58534   0.00000  Uiso   1.00
H677   H     0.65492   0.59909   0.58981   0.00000  Uiso   1.00
H678   H     0.59892   0.78198   0.68972   0.00000  Uiso   1.00
H679   H     0.48379   0.53979   0.51594   0.00000  Uiso   1.00
H680   H     0.71656   0.54127   0.52539   0.00000  Uiso   1.00
H681   H     0.59848   0.92693   0.73607   0.00000  Uiso   1.00
O682   O     0.44829   0.54037   0.36645   0.00000  Uiso   1.00
O683   O     0.75368   0.54232   0.37884   0.00000  Uiso   1.00
O684   O     0.59876   0.04829   0.65525   0.00000  Uiso   1.00
N685   N     0.49228   0.61131   0.32772   0.00000  Uiso   1.00
N686   N     0.70991   0.61268   0.33654   0.00000  Uiso   1.00
N687   N     0.59952   0.97324   0.53351   0.00000  Uiso   1.00
N688   N     0.49161   0.56718   0.46290   0.00000  Uiso   1.00
N689   N     0.70924   0.56855   0.47173   0.00000  Uiso   1.00
N690   N     0.59885   0.92911   0.66870   0.00000  Uiso   1.00
C691   C     0.10061   0.23630   0.88737   0.00000  Uiso   1.00
C692   C     0.07059   0.19108   0.90397   0.00000  Uiso   1.00
C693   C     0.04573   0.17763   0.84262   0.00000  Uiso   1.00
C694   C     0.02038   0.13494   0.87071   0.00000  Uiso   1.00
C695   C     0.97384   0.06898   0.88334   0.00000  Uiso   1.00
C696   C     0.13057   0.19145   0.90639   0.00000  Uiso   1.00
C697   C     0.15614   0.17832   0.84709   0.00000  Uiso   1.00
C698   C     0.18128   0.13594   0.87723   0.00000  Uiso   1.00
C699   C     0.22787   0.07059   0.89365   0.00000  Uiso   1.00
C700   C     0.10014   0.29081   0.96068   0.00000  Uiso   1.00
C701   C     0.10013   0.36124   0.94702   0.00000  Uiso   1.00
C702   C     0.09967   0.40252   0.02286   0.00000  Uiso   1.00
C703   C     0.09901   0.49145   0.12356   0.00000  Uiso   1.00
C704   C     0.09982   0.18440   0.04634   0.00000  Uiso   1.00
C705   C     0.07016   0.16289   0.99032   0.00000  Uiso   1.00
C706   C     0.04485   0.12021   0.01851   0.00000  Uiso   1.00
C707   C     0.01995   0.10670   0.95722   0.00000  Uiso   1.00
C708   C     0.13014   0.16326   0.99274   0.00000  Uiso   1.00
C709   C     0.15526   0.12089   0.02298   0.00000  Uiso   1.00
C710   C     0.18085   0.10770   0.96374   0.00000  Uiso   1.00
C711   C     0.09971   0.26263   0.04703   0.00000  Uiso   1.00
C712   C     0.09925   0.30381   0.12291   0.00000  Uiso   1.00
C713   C     0.09924   0.37428   0.10937   0.00000  Uiso   1.00
H714   H     0.10095   0.25825   0.82014   0.00000  Uiso   1.00
H715   H     0.04607   0.19945   0.77580   0.00000  Uiso   1.00
H716   H     0.15646   0.20014   0.78027   0.00000  Uiso   1.00
H717   H     0.10046   0.38303   0.88018   0.00000  Uiso   1.00
H718   H     0.98504   0.12181   0.76471   0.00000  Uiso   1.00
H719   H     0.21781   0.12329   0.77415   0.00000  Uiso   1.00
H720   H     0.09973   0.50895   0.98484   0.00000  Uiso   1.00
H721   H     0.09949   0.16246   0.11357   0.00000  Uiso   1.00
H722   H     0.04452   0.09840   0.08534   0.00000  Uiso   1.00
H723   H     0.15492   0.09909   0.08981   0.00000  Uiso   1.00
H724   H     0.09892   0.28198   0.18972   0.00000  Uiso   1.00
H725   H     0.98379   0.03979   0.01594   0.00000  Uiso   1.00
H726   H     0.21656   0.04127   0.02539   0.00000  Uiso   1.00
H727   H     0.09848   0.42693   0.23607   0.00000  Uiso   1.00
O728   O     0.94829   0.04037   0.86645   0.00000  Uiso   1.00
O729   O     0.25368   0.04232   0.87884   0.00000  Uiso   1.00
O730   O     0.09876   0.54829   0.15525   0.00000  Uiso   1.00
N731   N     0.99228   0.11131   0.82772   0.00000  Uiso   1.00
N732   N     0.20991   0.11268   0.83654   0.00000  Uiso   1.00
N733   N     0.09952   0.47324   0.03351   0.00000  Uiso   1.00
N734   N     0.99161   0.06718   0.96290   0.00000  Uiso   1.00
N735   N     0.20924   0.06855   0.97173   0.00000  Uiso   1.00
N736   N     0.09885   0.42911   0.16870   0.00000  Uiso   1.00
