data_job_05672
_audit_creation_date              2018-12-19
_audit_creation_method            'Materials Studio'
_symmetry_space_group_name_H-M    'P1'
_symmetry_Int_Tables_number       1
_symmetry_cell_setting            triclinic
loop_
_symmetry_equiv_pos_as_xyz
  x,y,z
_cell_length_a                    28.0804
_cell_length_b                    28.0804
_cell_length_c                    16.3840
_cell_angle_alpha                 90.0000
_cell_angle_beta                  90.0000
_cell_angle_gamma                 90.0000
loop_
_atom_site_label
_atom_site_type_symbol
_atom_site_fract_x
_atom_site_fract_y
_atom_site_fract_z
_atom_site_U_iso_or_equiv
_atom_site_adp_type
_atom_site_occupancy
C1     C     0.31700   0.15646   0.92914   0.00000  Uiso   1.00
C2     C     0.35348   0.16796   0.86307   0.00000  Uiso   1.00
C3     C     0.34970   0.15597   0.78115   0.00000  Uiso   1.00
C4     C     0.38688   0.16969   0.73046   0.00000  Uiso   1.00
C5     C     0.43752   0.18374   0.62327   0.00000  Uiso   1.00
C6     C     0.34381   0.12876   0.99469   0.00000  Uiso   1.00
C7     C     0.33191   0.08382   0.02344   0.00000  Uiso   1.00
C8     C     0.36095   0.06455   0.08356   0.00000  Uiso   1.00
C9     C     0.39657   0.01776   0.18076   0.00000  Uiso   1.00
C10    C     0.30354   0.20399   0.96782   0.00000  Uiso   1.00
C11    C     0.25777   0.22229   0.97401   0.00000  Uiso   1.00
C12    C     0.25290   0.26636   0.01153   0.00000  Uiso   1.00
C13    C     0.22599   0.33637   0.06701   0.00000  Uiso   1.00
C14    C     0.38971   0.20216   0.98480   0.00000  Uiso   1.00
C15    C     0.39297   0.19277   0.89330   0.00000  Uiso   1.00
C16    C     0.43016   0.20652   0.84273   0.00000  Uiso   1.00
C17    C     0.42644   0.19456   0.76075   0.00000  Uiso   1.00
C18    C     0.38331   0.15358   0.02492   0.00000  Uiso   1.00
C19    C     0.41237   0.13438   0.08502   0.00000  Uiso   1.00
C20    C     0.40052   0.08942   0.11385   0.00000  Uiso   1.00
C21    C     0.34303   0.22881   0.99805   0.00000  Uiso   1.00
C22    C     0.33823   0.27285   0.03558   0.00000  Uiso   1.00
C23    C     0.29247   0.29123   0.04182   0.00000  Uiso   1.00
H24    H     0.28625   0.13714   0.90561   0.00000  Uiso   1.00
H25    H     0.31913   0.13675   0.75778   0.00000  Uiso   1.00
H26    H     0.30134   0.06462   0.00004   0.00000  Uiso   1.00
H27    H     0.22722   0.20308   0.95061   0.00000  Uiso   1.00
H28    H     0.37302   0.14726   0.60721   0.00000  Uiso   1.00
H29    H     0.33550   0.99517   0.11805   0.00000  Uiso   1.00
H30    H     0.17919   0.28713   0.01382   0.00000  Uiso   1.00
H31    H     0.42047   0.22148   0.00834   0.00000  Uiso   1.00
H32    H     0.46072   0.22573   0.86614   0.00000  Uiso   1.00
H33    H     0.44293   0.15359   0.10840   0.00000  Uiso   1.00
H34    H     0.36880   0.29205   0.05897   0.00000  Uiso   1.00
H35    H     0.48794   0.21947   0.69516   0.00000  Uiso   1.00
H36    H     0.45041   0.06738   0.20601   0.00000  Uiso   1.00
H37    H     0.29410   0.35934   0.10177   0.00000  Uiso   1.00
O38    O     0.45455   0.18462   0.55579   0.00000  Uiso   1.00
O39    O     0.40531   0.98509   0.22601   0.00000  Uiso   1.00
O40    O     0.20023   0.36814   0.08925   0.00000  Uiso   1.00
N41    N     0.39454   0.16368   0.64742   0.00000  Uiso   1.00
N42    N     0.35946   0.02148   0.12502   0.00000  Uiso   1.00
N43    N     0.21332   0.29443   0.02759   0.00000  Uiso   1.00
N44    N     0.45638   0.20254   0.69475   0.00000  Uiso   1.00
N45    N     0.42130   0.06034   0.17235   0.00000  Uiso   1.00
N46    N     0.27516   0.33329   0.07492   0.00000  Uiso   1.00
C47    C     0.81700   0.65646   0.42914   0.00000  Uiso   1.00
C48    C     0.85348   0.66796   0.36307   0.00000  Uiso   1.00
C49    C     0.84970   0.65597   0.28115   0.00000  Uiso   1.00
C50    C     0.88688   0.66969   0.23046   0.00000  Uiso   1.00
C51    C     0.93752   0.68374   0.12327   0.00000  Uiso   1.00
C52    C     0.84381   0.62876   0.49469   0.00000  Uiso   1.00
C53    C     0.83191   0.58382   0.52344   0.00000  Uiso   1.00
C54    C     0.86095   0.56455   0.58356   0.00000  Uiso   1.00
C55    C     0.89657   0.51776   0.68076   0.00000  Uiso   1.00
C56    C     0.80354   0.70399   0.46782   0.00000  Uiso   1.00
C57    C     0.75777   0.72229   0.47401   0.00000  Uiso   1.00
C58    C     0.75290   0.76636   0.51153   0.00000  Uiso   1.00
C59    C     0.72599   0.83637   0.56701   0.00000  Uiso   1.00
C60    C     0.88971   0.70216   0.48480   0.00000  Uiso   1.00
C61    C     0.89297   0.69277   0.39330   0.00000  Uiso   1.00
C62    C     0.93016   0.70652   0.34273   0.00000  Uiso   1.00
C63    C     0.92644   0.69456   0.26075   0.00000  Uiso   1.00
C64    C     0.88331   0.65358   0.52492   0.00000  Uiso   1.00
C65    C     0.91237   0.63438   0.58502   0.00000  Uiso   1.00
C66    C     0.90052   0.58942   0.61385   0.00000  Uiso   1.00
C67    C     0.84303   0.72881   0.49805   0.00000  Uiso   1.00
C68    C     0.83823   0.77285   0.53558   0.00000  Uiso   1.00
C69    C     0.79247   0.79123   0.54182   0.00000  Uiso   1.00
H70    H     0.78625   0.63714   0.40561   0.00000  Uiso   1.00
H71    H     0.81913   0.63675   0.25778   0.00000  Uiso   1.00
H72    H     0.80134   0.56462   0.50004   0.00000  Uiso   1.00
H73    H     0.72722   0.70308   0.45061   0.00000  Uiso   1.00
H74    H     0.87302   0.64726   0.10721   0.00000  Uiso   1.00
H75    H     0.83550   0.49517   0.61805   0.00000  Uiso   1.00
H76    H     0.67919   0.78713   0.51382   0.00000  Uiso   1.00
H77    H     0.92047   0.72148   0.50834   0.00000  Uiso   1.00
H78    H     0.96072   0.72573   0.36614   0.00000  Uiso   1.00
H79    H     0.94293   0.65359   0.60840   0.00000  Uiso   1.00
H80    H     0.86880   0.79205   0.55897   0.00000  Uiso   1.00
H81    H     0.98794   0.71947   0.19516   0.00000  Uiso   1.00
H82    H     0.95041   0.56738   0.70601   0.00000  Uiso   1.00
H83    H     0.79410   0.85934   0.60177   0.00000  Uiso   1.00
O84    O     0.95455   0.68462   0.05579   0.00000  Uiso   1.00
O85    O     0.90531   0.48509   0.72601   0.00000  Uiso   1.00
O86    O     0.70023   0.86814   0.58925   0.00000  Uiso   1.00
N87    N     0.89454   0.66368   0.14742   0.00000  Uiso   1.00
N88    N     0.85946   0.52148   0.62502   0.00000  Uiso   1.00
N89    N     0.71332   0.79443   0.52759   0.00000  Uiso   1.00
N90    N     0.95638   0.70254   0.19475   0.00000  Uiso   1.00
N91    N     0.92130   0.56034   0.67235   0.00000  Uiso   1.00
N92    N     0.77516   0.83329   0.57492   0.00000  Uiso   1.00
C93    C     0.68300   0.84354   0.92914   0.00000  Uiso   1.00
C94    C     0.64652   0.83204   0.86307   0.00000  Uiso   1.00
C95    C     0.65030   0.84403   0.78115   0.00000  Uiso   1.00
C96    C     0.61312   0.83031   0.73046   0.00000  Uiso   1.00
C97    C     0.56248   0.81626   0.62327   0.00000  Uiso   1.00
C98    C     0.65619   0.87124   0.99469   0.00000  Uiso   1.00
C99    C     0.66809   0.91618   0.02344   0.00000  Uiso   1.00
C100   C     0.63905   0.93545   0.08356   0.00000  Uiso   1.00
C101   C     0.60343   0.98224   0.18076   0.00000  Uiso   1.00
C102   C     0.69646   0.79601   0.96782   0.00000  Uiso   1.00
C103   C     0.74223   0.77771   0.97401   0.00000  Uiso   1.00
C104   C     0.74710   0.73364   0.01153   0.00000  Uiso   1.00
C105   C     0.77401   0.66363   0.06701   0.00000  Uiso   1.00
C106   C     0.61029   0.79784   0.98480   0.00000  Uiso   1.00
C107   C     0.60703   0.80723   0.89330   0.00000  Uiso   1.00
C108   C     0.56984   0.79348   0.84273   0.00000  Uiso   1.00
C109   C     0.57356   0.80544   0.76075   0.00000  Uiso   1.00
C110   C     0.61669   0.84642   0.02492   0.00000  Uiso   1.00
C111   C     0.58763   0.86562   0.08502   0.00000  Uiso   1.00
C112   C     0.59948   0.91058   0.11385   0.00000  Uiso   1.00
C113   C     0.65697   0.77119   0.99805   0.00000  Uiso   1.00
C114   C     0.66177   0.72715   0.03558   0.00000  Uiso   1.00
C115   C     0.70753   0.70877   0.04182   0.00000  Uiso   1.00
H116   H     0.71375   0.86286   0.90561   0.00000  Uiso   1.00
H117   H     0.68087   0.86325   0.75778   0.00000  Uiso   1.00
H118   H     0.69866   0.93538   0.00004   0.00000  Uiso   1.00
H119   H     0.77278   0.79692   0.95061   0.00000  Uiso   1.00
H120   H     0.62698   0.85274   0.60721   0.00000  Uiso   1.00
H121   H     0.66450   0.00483   0.11805   0.00000  Uiso   1.00
H122   H     0.82081   0.71287   0.01382   0.00000  Uiso   1.00
H123   H     0.57953   0.77852   0.00834   0.00000  Uiso   1.00
H124   H     0.53928   0.77427   0.86614   0.00000  Uiso   1.00
H125   H     0.55707   0.84641   0.10840   0.00000  Uiso   1.00
H126   H     0.63120   0.70795   0.05897   0.00000  Uiso   1.00
H127   H     0.51206   0.78053   0.69516   0.00000  Uiso   1.00
H128   H     0.54959   0.93262   0.20601   0.00000  Uiso   1.00
H129   H     0.70590   0.64066   0.10177   0.00000  Uiso   1.00
O130   O     0.54545   0.81538   0.55579   0.00000  Uiso   1.00
O131   O     0.59469   0.01491   0.22601   0.00000  Uiso   1.00
O132   O     0.79977   0.63186   0.08925   0.00000  Uiso   1.00
N133   N     0.60546   0.83632   0.64742   0.00000  Uiso   1.00
N134   N     0.64054   0.97852   0.12502   0.00000  Uiso   1.00
N135   N     0.78668   0.70557   0.02759   0.00000  Uiso   1.00
N136   N     0.54362   0.79746   0.69475   0.00000  Uiso   1.00
N137   N     0.57870   0.93966   0.17235   0.00000  Uiso   1.00
N138   N     0.72484   0.66671   0.07492   0.00000  Uiso   1.00
C139   C     0.18300   0.34354   0.42914   0.00000  Uiso   1.00
C140   C     0.14652   0.33204   0.36307   0.00000  Uiso   1.00
C141   C     0.15030   0.34403   0.28115   0.00000  Uiso   1.00
C142   C     0.11312   0.33031   0.23046   0.00000  Uiso   1.00
C143   C     0.06248   0.31626   0.12327   0.00000  Uiso   1.00
C144   C     0.15619   0.37124   0.49469   0.00000  Uiso   1.00
C145   C     0.16809   0.41618   0.52344   0.00000  Uiso   1.00
C146   C     0.13905   0.43545   0.58356   0.00000  Uiso   1.00
C147   C     0.10343   0.48224   0.68076   0.00000  Uiso   1.00
C148   C     0.19646   0.29601   0.46782   0.00000  Uiso   1.00
C149   C     0.24223   0.27771   0.47401   0.00000  Uiso   1.00
C150   C     0.24710   0.23364   0.51153   0.00000  Uiso   1.00
C151   C     0.27401   0.16363   0.56701   0.00000  Uiso   1.00
C152   C     0.11029   0.29784   0.48480   0.00000  Uiso   1.00
C153   C     0.10703   0.30723   0.39330   0.00000  Uiso   1.00
C154   C     0.06984   0.29348   0.34273   0.00000  Uiso   1.00
C155   C     0.07356   0.30544   0.26075   0.00000  Uiso   1.00
C156   C     0.11669   0.34642   0.52492   0.00000  Uiso   1.00
C157   C     0.08763   0.36562   0.58502   0.00000  Uiso   1.00
C158   C     0.09948   0.41058   0.61385   0.00000  Uiso   1.00
C159   C     0.15697   0.27119   0.49805   0.00000  Uiso   1.00
C160   C     0.16177   0.22715   0.53558   0.00000  Uiso   1.00
C161   C     0.20753   0.20877   0.54182   0.00000  Uiso   1.00
H162   H     0.21375   0.36286   0.40561   0.00000  Uiso   1.00
H163   H     0.18087   0.36325   0.25778   0.00000  Uiso   1.00
H164   H     0.19866   0.43538   0.50004   0.00000  Uiso   1.00
H165   H     0.27278   0.29692   0.45061   0.00000  Uiso   1.00
H166   H     0.12698   0.35274   0.10721   0.00000  Uiso   1.00
H167   H     0.16450   0.50483   0.61805   0.00000  Uiso   1.00
H168   H     0.32081   0.21287   0.51382   0.00000  Uiso   1.00
H169   H     0.07953   0.27852   0.50834   0.00000  Uiso   1.00
H170   H     0.03928   0.27427   0.36614   0.00000  Uiso   1.00
H171   H     0.05707   0.34641   0.60840   0.00000  Uiso   1.00
H172   H     0.13120   0.20795   0.55897   0.00000  Uiso   1.00
H173   H     0.01206   0.28053   0.19516   0.00000  Uiso   1.00
H174   H     0.04959   0.43262   0.70601   0.00000  Uiso   1.00
H175   H     0.20590   0.14066   0.60177   0.00000  Uiso   1.00
O176   O     0.04545   0.31538   0.05579   0.00000  Uiso   1.00
O177   O     0.09469   0.51491   0.72601   0.00000  Uiso   1.00
O178   O     0.29977   0.13186   0.58925   0.00000  Uiso   1.00
N179   N     0.10546   0.33632   0.14742   0.00000  Uiso   1.00
N180   N     0.14054   0.47852   0.62502   0.00000  Uiso   1.00
N181   N     0.28668   0.20557   0.52759   0.00000  Uiso   1.00
N182   N     0.04362   0.29746   0.19475   0.00000  Uiso   1.00
N183   N     0.07870   0.43966   0.67235   0.00000  Uiso   1.00
N184   N     0.22484   0.16671   0.57492   0.00000  Uiso   1.00
C185   C     0.15646   0.68300   0.07086   0.00000  Uiso   1.00
C186   C     0.16796   0.64652   0.13693   0.00000  Uiso   1.00
C187   C     0.15597   0.65030   0.21885   0.00000  Uiso   1.00
C188   C     0.16969   0.61312   0.26954   0.00000  Uiso   1.00
C189   C     0.18374   0.56248   0.37673   0.00000  Uiso   1.00
C190   C     0.12876   0.65619   0.00531   0.00000  Uiso   1.00
C191   C     0.08382   0.66809   0.97656   0.00000  Uiso   1.00
C192   C     0.06455   0.63905   0.91644   0.00000  Uiso   1.00
C193   C     0.01776   0.60343   0.81924   0.00000  Uiso   1.00
C194   C     0.20399   0.69646   0.03218   0.00000  Uiso   1.00
C195   C     0.22229   0.74223   0.02599   0.00000  Uiso   1.00
C196   C     0.26636   0.74710   0.98847   0.00000  Uiso   1.00
C197   C     0.33637   0.77401   0.93299   0.00000  Uiso   1.00
C198   C     0.20216   0.61029   0.01520   0.00000  Uiso   1.00
C199   C     0.19277   0.60703   0.10670   0.00000  Uiso   1.00
C200   C     0.20652   0.56984   0.15727   0.00000  Uiso   1.00
C201   C     0.19456   0.57356   0.23925   0.00000  Uiso   1.00
C202   C     0.15358   0.61669   0.97508   0.00000  Uiso   1.00
C203   C     0.13438   0.58763   0.91498   0.00000  Uiso   1.00
C204   C     0.08942   0.59948   0.88615   0.00000  Uiso   1.00
C205   C     0.22881   0.65697   0.00195   0.00000  Uiso   1.00
C206   C     0.27285   0.66177   0.96442   0.00000  Uiso   1.00
C207   C     0.29123   0.70753   0.95818   0.00000  Uiso   1.00
H208   H     0.13714   0.71375   0.09439   0.00000  Uiso   1.00
H209   H     0.13675   0.68087   0.24222   0.00000  Uiso   1.00
H210   H     0.06462   0.69866   0.99996   0.00000  Uiso   1.00
H211   H     0.20308   0.77278   0.04939   0.00000  Uiso   1.00
H212   H     0.14726   0.62698   0.39279   0.00000  Uiso   1.00
H213   H     0.99517   0.66450   0.88195   0.00000  Uiso   1.00
H214   H     0.28713   0.82081   0.98618   0.00000  Uiso   1.00
H215   H     0.22148   0.57953   0.99166   0.00000  Uiso   1.00
H216   H     0.22573   0.53928   0.13386   0.00000  Uiso   1.00
H217   H     0.15359   0.55707   0.89160   0.00000  Uiso   1.00
H218   H     0.29205   0.63120   0.94103   0.00000  Uiso   1.00
H219   H     0.21947   0.51206   0.30484   0.00000  Uiso   1.00
H220   H     0.06738   0.54959   0.79399   0.00000  Uiso   1.00
H221   H     0.35934   0.70590   0.89823   0.00000  Uiso   1.00
O222   O     0.18462   0.54545   0.44421   0.00000  Uiso   1.00
O223   O     0.98509   0.59469   0.77399   0.00000  Uiso   1.00
O224   O     0.36814   0.79977   0.91075   0.00000  Uiso   1.00
N225   N     0.16368   0.60546   0.35258   0.00000  Uiso   1.00
N226   N     0.02148   0.64054   0.87498   0.00000  Uiso   1.00
N227   N     0.29443   0.78668   0.97241   0.00000  Uiso   1.00
N228   N     0.20254   0.54362   0.30525   0.00000  Uiso   1.00
N229   N     0.06034   0.57870   0.82765   0.00000  Uiso   1.00
N230   N     0.33329   0.72484   0.92508   0.00000  Uiso   1.00
C231   C     0.65646   0.18300   0.57086   0.00000  Uiso   1.00
C232   C     0.66796   0.14652   0.63693   0.00000  Uiso   1.00
C233   C     0.65597   0.15030   0.71885   0.00000  Uiso   1.00
C234   C     0.66969   0.11312   0.76954   0.00000  Uiso   1.00
C235   C     0.68374   0.06248   0.87673   0.00000  Uiso   1.00
C236   C     0.62876   0.15619   0.50531   0.00000  Uiso   1.00
C237   C     0.58382   0.16809   0.47656   0.00000  Uiso   1.00
C238   C     0.56455   0.13905   0.41644   0.00000  Uiso   1.00
C239   C     0.51776   0.10343   0.31924   0.00000  Uiso   1.00
C240   C     0.70399   0.19646   0.53218   0.00000  Uiso   1.00
C241   C     0.72229   0.24223   0.52599   0.00000  Uiso   1.00
C242   C     0.76636   0.24710   0.48847   0.00000  Uiso   1.00
C243   C     0.83637   0.27401   0.43299   0.00000  Uiso   1.00
C244   C     0.70216   0.11029   0.51520   0.00000  Uiso   1.00
C245   C     0.69277   0.10703   0.60670   0.00000  Uiso   1.00
C246   C     0.70652   0.06984   0.65727   0.00000  Uiso   1.00
C247   C     0.69456   0.07356   0.73925   0.00000  Uiso   1.00
C248   C     0.65358   0.11669   0.47508   0.00000  Uiso   1.00
C249   C     0.63438   0.08763   0.41498   0.00000  Uiso   1.00
C250   C     0.58942   0.09948   0.38615   0.00000  Uiso   1.00
C251   C     0.72881   0.15697   0.50195   0.00000  Uiso   1.00
C252   C     0.77285   0.16177   0.46442   0.00000  Uiso   1.00
C253   C     0.79123   0.20753   0.45818   0.00000  Uiso   1.00
H254   H     0.63714   0.21375   0.59439   0.00000  Uiso   1.00
H255   H     0.63675   0.18087   0.74222   0.00000  Uiso   1.00
H256   H     0.56462   0.19866   0.49996   0.00000  Uiso   1.00
H257   H     0.70308   0.27278   0.54939   0.00000  Uiso   1.00
H258   H     0.64726   0.12698   0.89279   0.00000  Uiso   1.00
H259   H     0.49517   0.16450   0.38195   0.00000  Uiso   1.00
H260   H     0.78713   0.32081   0.48618   0.00000  Uiso   1.00
H261   H     0.72148   0.07953   0.49166   0.00000  Uiso   1.00
H262   H     0.72573   0.03928   0.63386   0.00000  Uiso   1.00
H263   H     0.65359   0.05707   0.39160   0.00000  Uiso   1.00
H264   H     0.79205   0.13120   0.44103   0.00000  Uiso   1.00
H265   H     0.71947   0.01206   0.80484   0.00000  Uiso   1.00
H266   H     0.56738   0.04959   0.29399   0.00000  Uiso   1.00
H267   H     0.85934   0.20590   0.39823   0.00000  Uiso   1.00
O268   O     0.68462   0.04545   0.94421   0.00000  Uiso   1.00
O269   O     0.48509   0.09469   0.27399   0.00000  Uiso   1.00
O270   O     0.86814   0.29977   0.41075   0.00000  Uiso   1.00
N271   N     0.66368   0.10546   0.85258   0.00000  Uiso   1.00
N272   N     0.52148   0.14054   0.37498   0.00000  Uiso   1.00
N273   N     0.79443   0.28668   0.47241   0.00000  Uiso   1.00
N274   N     0.70254   0.04362   0.80525   0.00000  Uiso   1.00
N275   N     0.56034   0.07870   0.32765   0.00000  Uiso   1.00
N276   N     0.83329   0.22484   0.42508   0.00000  Uiso   1.00
C277   C     0.84354   0.31700   0.07086   0.00000  Uiso   1.00
C278   C     0.83204   0.35348   0.13693   0.00000  Uiso   1.00
C279   C     0.84403   0.34970   0.21885   0.00000  Uiso   1.00
C280   C     0.83031   0.38688   0.26954   0.00000  Uiso   1.00
C281   C     0.81626   0.43752   0.37673   0.00000  Uiso   1.00
C282   C     0.87124   0.34381   0.00531   0.00000  Uiso   1.00
C283   C     0.91618   0.33191   0.97656   0.00000  Uiso   1.00
C284   C     0.93545   0.36095   0.91644   0.00000  Uiso   1.00
C285   C     0.98224   0.39657   0.81924   0.00000  Uiso   1.00
C286   C     0.79601   0.30354   0.03218   0.00000  Uiso   1.00
C287   C     0.77771   0.25777   0.02599   0.00000  Uiso   1.00
C288   C     0.73364   0.25290   0.98847   0.00000  Uiso   1.00
C289   C     0.66363   0.22599   0.93299   0.00000  Uiso   1.00
C290   C     0.79784   0.38971   0.01520   0.00000  Uiso   1.00
C291   C     0.80723   0.39297   0.10670   0.00000  Uiso   1.00
C292   C     0.79348   0.43016   0.15727   0.00000  Uiso   1.00
C293   C     0.80544   0.42644   0.23925   0.00000  Uiso   1.00
C294   C     0.84642   0.38331   0.97508   0.00000  Uiso   1.00
C295   C     0.86562   0.41237   0.91498   0.00000  Uiso   1.00
C296   C     0.91058   0.40052   0.88615   0.00000  Uiso   1.00
C297   C     0.77119   0.34303   0.00195   0.00000  Uiso   1.00
C298   C     0.72715   0.33823   0.96442   0.00000  Uiso   1.00
C299   C     0.70877   0.29247   0.95818   0.00000  Uiso   1.00
H300   H     0.86286   0.28625   0.09439   0.00000  Uiso   1.00
H301   H     0.86325   0.31913   0.24222   0.00000  Uiso   1.00
H302   H     0.93538   0.30134   0.99996   0.00000  Uiso   1.00
H303   H     0.79692   0.22722   0.04939   0.00000  Uiso   1.00
H304   H     0.85274   0.37302   0.39279   0.00000  Uiso   1.00
H305   H     0.00483   0.33550   0.88195   0.00000  Uiso   1.00
H306   H     0.71287   0.17919   0.98618   0.00000  Uiso   1.00
H307   H     0.77852   0.42047   0.99166   0.00000  Uiso   1.00
H308   H     0.77427   0.46072   0.13386   0.00000  Uiso   1.00
H309   H     0.84641   0.44293   0.89160   0.00000  Uiso   1.00
H310   H     0.70795   0.36880   0.94103   0.00000  Uiso   1.00
H311   H     0.78053   0.48794   0.30484   0.00000  Uiso   1.00
H312   H     0.93262   0.45041   0.79399   0.00000  Uiso   1.00
H313   H     0.64066   0.29410   0.89823   0.00000  Uiso   1.00
O314   O     0.81538   0.45455   0.44421   0.00000  Uiso   1.00
O315   O     0.01491   0.40531   0.77399   0.00000  Uiso   1.00
O316   O     0.63186   0.20023   0.91075   0.00000  Uiso   1.00
N317   N     0.83632   0.39454   0.35258   0.00000  Uiso   1.00
N318   N     0.97852   0.35946   0.87498   0.00000  Uiso   1.00
N319   N     0.70557   0.21332   0.97241   0.00000  Uiso   1.00
N320   N     0.79746   0.45638   0.30525   0.00000  Uiso   1.00
N321   N     0.93966   0.42130   0.82765   0.00000  Uiso   1.00
N322   N     0.66671   0.27516   0.92508   0.00000  Uiso   1.00
C323   C     0.34354   0.81700   0.57086   0.00000  Uiso   1.00
C324   C     0.33204   0.85348   0.63693   0.00000  Uiso   1.00
C325   C     0.34403   0.84970   0.71885   0.00000  Uiso   1.00
C326   C     0.33031   0.88688   0.76954   0.00000  Uiso   1.00
C327   C     0.31626   0.93752   0.87673   0.00000  Uiso   1.00
C328   C     0.37124   0.84381   0.50531   0.00000  Uiso   1.00
C329   C     0.41618   0.83191   0.47656   0.00000  Uiso   1.00
C330   C     0.43545   0.86095   0.41644   0.00000  Uiso   1.00
C331   C     0.48224   0.89657   0.31924   0.00000  Uiso   1.00
C332   C     0.29601   0.80354   0.53218   0.00000  Uiso   1.00
C333   C     0.27771   0.75777   0.52599   0.00000  Uiso   1.00
C334   C     0.23364   0.75290   0.48847   0.00000  Uiso   1.00
C335   C     0.16363   0.72599   0.43299   0.00000  Uiso   1.00
C336   C     0.29784   0.88971   0.51520   0.00000  Uiso   1.00
C337   C     0.30723   0.89297   0.60670   0.00000  Uiso   1.00
C338   C     0.29348   0.93016   0.65727   0.00000  Uiso   1.00
C339   C     0.30544   0.92644   0.73925   0.00000  Uiso   1.00
C340   C     0.34642   0.88331   0.47508   0.00000  Uiso   1.00
C341   C     0.36562   0.91237   0.41498   0.00000  Uiso   1.00
C342   C     0.41058   0.90052   0.38615   0.00000  Uiso   1.00
C343   C     0.27119   0.84303   0.50195   0.00000  Uiso   1.00
C344   C     0.22715   0.83823   0.46442   0.00000  Uiso   1.00
C345   C     0.20877   0.79247   0.45818   0.00000  Uiso   1.00
H346   H     0.36286   0.78625   0.59439   0.00000  Uiso   1.00
H347   H     0.36325   0.81913   0.74222   0.00000  Uiso   1.00
H348   H     0.43538   0.80134   0.49996   0.00000  Uiso   1.00
H349   H     0.29692   0.72722   0.54939   0.00000  Uiso   1.00
H350   H     0.35274   0.87302   0.89279   0.00000  Uiso   1.00
H351   H     0.50483   0.83550   0.38195   0.00000  Uiso   1.00
H352   H     0.21287   0.67919   0.48618   0.00000  Uiso   1.00
H353   H     0.27852   0.92047   0.49166   0.00000  Uiso   1.00
H354   H     0.27427   0.96072   0.63386   0.00000  Uiso   1.00
H355   H     0.34641   0.94293   0.39160   0.00000  Uiso   1.00
H356   H     0.20795   0.86880   0.44103   0.00000  Uiso   1.00
H357   H     0.28053   0.98794   0.80484   0.00000  Uiso   1.00
H358   H     0.43262   0.95041   0.29399   0.00000  Uiso   1.00
H359   H     0.14066   0.79410   0.39823   0.00000  Uiso   1.00
O360   O     0.31538   0.95455   0.94421   0.00000  Uiso   1.00
O361   O     0.51491   0.90531   0.27399   0.00000  Uiso   1.00
O362   O     0.13186   0.70023   0.41075   0.00000  Uiso   1.00
N363   N     0.33632   0.89454   0.85258   0.00000  Uiso   1.00
N364   N     0.47852   0.85946   0.37498   0.00000  Uiso   1.00
N365   N     0.20557   0.71332   0.47241   0.00000  Uiso   1.00
N366   N     0.29746   0.95638   0.80525   0.00000  Uiso   1.00
N367   N     0.43966   0.92130   0.32765   0.00000  Uiso   1.00
N368   N     0.16671   0.77516   0.42508   0.00000  Uiso   1.00
C369   C     0.18300   0.15646   0.82086   0.00000  Uiso   1.00
C370   C     0.14652   0.16796   0.88693   0.00000  Uiso   1.00
C371   C     0.15030   0.15597   0.96885   0.00000  Uiso   1.00
C372   C     0.11312   0.16969   0.01954   0.00000  Uiso   1.00
C373   C     0.06248   0.18374   0.12673   0.00000  Uiso   1.00
C374   C     0.15619   0.12876   0.75531   0.00000  Uiso   1.00
C375   C     0.16809   0.08382   0.72656   0.00000  Uiso   1.00
C376   C     0.13905   0.06455   0.66644   0.00000  Uiso   1.00
C377   C     0.10343   0.01776   0.56924   0.00000  Uiso   1.00
C378   C     0.19646   0.20399   0.78218   0.00000  Uiso   1.00
C379   C     0.24223   0.22229   0.77599   0.00000  Uiso   1.00
C380   C     0.24710   0.26636   0.73847   0.00000  Uiso   1.00
C381   C     0.27401   0.33637   0.68299   0.00000  Uiso   1.00
C382   C     0.11029   0.20216   0.76520   0.00000  Uiso   1.00
C383   C     0.10703   0.19277   0.85670   0.00000  Uiso   1.00
C384   C     0.06984   0.20652   0.90727   0.00000  Uiso   1.00
C385   C     0.07356   0.19456   0.98925   0.00000  Uiso   1.00
C386   C     0.11669   0.15358   0.72508   0.00000  Uiso   1.00
C387   C     0.08763   0.13438   0.66498   0.00000  Uiso   1.00
C388   C     0.09948   0.08942   0.63615   0.00000  Uiso   1.00
C389   C     0.15697   0.22881   0.75195   0.00000  Uiso   1.00
C390   C     0.16177   0.27285   0.71442   0.00000  Uiso   1.00
C391   C     0.20753   0.29123   0.70818   0.00000  Uiso   1.00
H392   H     0.21375   0.13714   0.84439   0.00000  Uiso   1.00
H393   H     0.18087   0.13675   0.99222   0.00000  Uiso   1.00
H394   H     0.19866   0.06462   0.74996   0.00000  Uiso   1.00
H395   H     0.27278   0.20308   0.79939   0.00000  Uiso   1.00
H396   H     0.12698   0.14726   0.14279   0.00000  Uiso   1.00
H397   H     0.16450   0.99517   0.63195   0.00000  Uiso   1.00
H398   H     0.32081   0.28713   0.73618   0.00000  Uiso   1.00
H399   H     0.07953   0.22148   0.74166   0.00000  Uiso   1.00
H400   H     0.03928   0.22573   0.88386   0.00000  Uiso   1.00
H401   H     0.05707   0.15359   0.64160   0.00000  Uiso   1.00
H402   H     0.13120   0.29205   0.69103   0.00000  Uiso   1.00
H403   H     0.01206   0.21947   0.05484   0.00000  Uiso   1.00
H404   H     0.04959   0.06738   0.54399   0.00000  Uiso   1.00
H405   H     0.20590   0.35934   0.64823   0.00000  Uiso   1.00
O406   O     0.04545   0.18462   0.19421   0.00000  Uiso   1.00
O407   O     0.09469   0.98509   0.52399   0.00000  Uiso   1.00
O408   O     0.29977   0.36814   0.66075   0.00000  Uiso   1.00
N409   N     0.10546   0.16368   0.10258   0.00000  Uiso   1.00
N410   N     0.14054   0.02148   0.62498   0.00000  Uiso   1.00
N411   N     0.28668   0.29443   0.72241   0.00000  Uiso   1.00
N412   N     0.04362   0.20254   0.05525   0.00000  Uiso   1.00
N413   N     0.07870   0.06034   0.57765   0.00000  Uiso   1.00
N414   N     0.22484   0.33329   0.67508   0.00000  Uiso   1.00
C415   C     0.68300   0.65646   0.32086   0.00000  Uiso   1.00
C416   C     0.64652   0.66796   0.38693   0.00000  Uiso   1.00
C417   C     0.65030   0.65597   0.46885   0.00000  Uiso   1.00
C418   C     0.61312   0.66969   0.51954   0.00000  Uiso   1.00
C419   C     0.56248   0.68374   0.62673   0.00000  Uiso   1.00
C420   C     0.65619   0.62876   0.25531   0.00000  Uiso   1.00
C421   C     0.66809   0.58382   0.22656   0.00000  Uiso   1.00
C422   C     0.63905   0.56455   0.16644   0.00000  Uiso   1.00
C423   C     0.60343   0.51776   0.06924   0.00000  Uiso   1.00
C424   C     0.69646   0.70399   0.28218   0.00000  Uiso   1.00
C425   C     0.74223   0.72229   0.27599   0.00000  Uiso   1.00
C426   C     0.74710   0.76636   0.23847   0.00000  Uiso   1.00
C427   C     0.77401   0.83637   0.18299   0.00000  Uiso   1.00
C428   C     0.61029   0.70216   0.26520   0.00000  Uiso   1.00
C429   C     0.60703   0.69277   0.35670   0.00000  Uiso   1.00
C430   C     0.56984   0.70652   0.40727   0.00000  Uiso   1.00
C431   C     0.57356   0.69456   0.48925   0.00000  Uiso   1.00
C432   C     0.61669   0.65358   0.22508   0.00000  Uiso   1.00
C433   C     0.58763   0.63438   0.16498   0.00000  Uiso   1.00
C434   C     0.59948   0.58942   0.13615   0.00000  Uiso   1.00
C435   C     0.65697   0.72881   0.25195   0.00000  Uiso   1.00
C436   C     0.66177   0.77285   0.21442   0.00000  Uiso   1.00
C437   C     0.70753   0.79123   0.20818   0.00000  Uiso   1.00
H438   H     0.71375   0.63714   0.34439   0.00000  Uiso   1.00
H439   H     0.68087   0.63675   0.49222   0.00000  Uiso   1.00
H440   H     0.69866   0.56462   0.24996   0.00000  Uiso   1.00
H441   H     0.77278   0.70308   0.29939   0.00000  Uiso   1.00
H442   H     0.62698   0.64726   0.64279   0.00000  Uiso   1.00
H443   H     0.66450   0.49517   0.13195   0.00000  Uiso   1.00
H444   H     0.82081   0.78713   0.23618   0.00000  Uiso   1.00
H445   H     0.57953   0.72148   0.24166   0.00000  Uiso   1.00
H446   H     0.53928   0.72573   0.38386   0.00000  Uiso   1.00
H447   H     0.55707   0.65359   0.14160   0.00000  Uiso   1.00
H448   H     0.63120   0.79205   0.19103   0.00000  Uiso   1.00
H449   H     0.51206   0.71947   0.55484   0.00000  Uiso   1.00
H450   H     0.54959   0.56738   0.04399   0.00000  Uiso   1.00
H451   H     0.70590   0.85934   0.14823   0.00000  Uiso   1.00
O452   O     0.54545   0.68462   0.69421   0.00000  Uiso   1.00
O453   O     0.59469   0.48509   0.02399   0.00000  Uiso   1.00
O454   O     0.79977   0.86814   0.16075   0.00000  Uiso   1.00
N455   N     0.60546   0.66368   0.60258   0.00000  Uiso   1.00
N456   N     0.64054   0.52148   0.12498   0.00000  Uiso   1.00
N457   N     0.78668   0.79443   0.22241   0.00000  Uiso   1.00
N458   N     0.54362   0.70254   0.55525   0.00000  Uiso   1.00
N459   N     0.57870   0.56034   0.07765   0.00000  Uiso   1.00
N460   N     0.72484   0.83329   0.17508   0.00000  Uiso   1.00
C461   C     0.81700   0.84354   0.82086   0.00000  Uiso   1.00
C462   C     0.85348   0.83204   0.88693   0.00000  Uiso   1.00
C463   C     0.84970   0.84403   0.96885   0.00000  Uiso   1.00
C464   C     0.88688   0.83031   0.01954   0.00000  Uiso   1.00
C465   C     0.93752   0.81626   0.12673   0.00000  Uiso   1.00
C466   C     0.84381   0.87124   0.75531   0.00000  Uiso   1.00
C467   C     0.83191   0.91618   0.72656   0.00000  Uiso   1.00
C468   C     0.86095   0.93545   0.66644   0.00000  Uiso   1.00
C469   C     0.89657   0.98224   0.56924   0.00000  Uiso   1.00
C470   C     0.80354   0.79601   0.78218   0.00000  Uiso   1.00
C471   C     0.75777   0.77771   0.77599   0.00000  Uiso   1.00
C472   C     0.75290   0.73364   0.73847   0.00000  Uiso   1.00
C473   C     0.72599   0.66363   0.68299   0.00000  Uiso   1.00
C474   C     0.88971   0.79784   0.76520   0.00000  Uiso   1.00
C475   C     0.89297   0.80723   0.85670   0.00000  Uiso   1.00
C476   C     0.93016   0.79348   0.90727   0.00000  Uiso   1.00
C477   C     0.92644   0.80544   0.98925   0.00000  Uiso   1.00
C478   C     0.88331   0.84642   0.72508   0.00000  Uiso   1.00
C479   C     0.91237   0.86562   0.66498   0.00000  Uiso   1.00
C480   C     0.90052   0.91058   0.63615   0.00000  Uiso   1.00
C481   C     0.84303   0.77119   0.75195   0.00000  Uiso   1.00
C482   C     0.83823   0.72715   0.71442   0.00000  Uiso   1.00
C483   C     0.79247   0.70877   0.70818   0.00000  Uiso   1.00
H484   H     0.78625   0.86286   0.84439   0.00000  Uiso   1.00
H485   H     0.81913   0.86325   0.99222   0.00000  Uiso   1.00
H486   H     0.80134   0.93538   0.74996   0.00000  Uiso   1.00
H487   H     0.72722   0.79692   0.79939   0.00000  Uiso   1.00
H488   H     0.87302   0.85274   0.14279   0.00000  Uiso   1.00
H489   H     0.83550   0.00483   0.63195   0.00000  Uiso   1.00
H490   H     0.67919   0.71287   0.73618   0.00000  Uiso   1.00
H491   H     0.92047   0.77852   0.74166   0.00000  Uiso   1.00
H492   H     0.96072   0.77427   0.88386   0.00000  Uiso   1.00
H493   H     0.94293   0.84641   0.64160   0.00000  Uiso   1.00
H494   H     0.86880   0.70795   0.69103   0.00000  Uiso   1.00
H495   H     0.98794   0.78053   0.05484   0.00000  Uiso   1.00
H496   H     0.95041   0.93262   0.54399   0.00000  Uiso   1.00
H497   H     0.79410   0.64066   0.64823   0.00000  Uiso   1.00
O498   O     0.95455   0.81538   0.19421   0.00000  Uiso   1.00
O499   O     0.90531   0.01491   0.52399   0.00000  Uiso   1.00
O500   O     0.70023   0.63186   0.66075   0.00000  Uiso   1.00
N501   N     0.89454   0.83632   0.10258   0.00000  Uiso   1.00
N502   N     0.85946   0.97852   0.62498   0.00000  Uiso   1.00
N503   N     0.71332   0.70557   0.72241   0.00000  Uiso   1.00
N504   N     0.95638   0.79746   0.05525   0.00000  Uiso   1.00
N505   N     0.92130   0.93966   0.57765   0.00000  Uiso   1.00
N506   N     0.77516   0.66671   0.67508   0.00000  Uiso   1.00
C507   C     0.31700   0.34354   0.32086   0.00000  Uiso   1.00
C508   C     0.35348   0.33204   0.38693   0.00000  Uiso   1.00
C509   C     0.34970   0.34403   0.46885   0.00000  Uiso   1.00
C510   C     0.38688   0.33031   0.51954   0.00000  Uiso   1.00
C511   C     0.43752   0.31626   0.62673   0.00000  Uiso   1.00
C512   C     0.34381   0.37124   0.25531   0.00000  Uiso   1.00
C513   C     0.33191   0.41618   0.22656   0.00000  Uiso   1.00
C514   C     0.36095   0.43545   0.16644   0.00000  Uiso   1.00
C515   C     0.39657   0.48224   0.06924   0.00000  Uiso   1.00
C516   C     0.30354   0.29601   0.28218   0.00000  Uiso   1.00
C517   C     0.25777   0.27771   0.27599   0.00000  Uiso   1.00
C518   C     0.25290   0.23364   0.23847   0.00000  Uiso   1.00
C519   C     0.22599   0.16363   0.18299   0.00000  Uiso   1.00
C520   C     0.38971   0.29784   0.26520   0.00000  Uiso   1.00
C521   C     0.39297   0.30723   0.35670   0.00000  Uiso   1.00
C522   C     0.43016   0.29348   0.40727   0.00000  Uiso   1.00
C523   C     0.42644   0.30544   0.48925   0.00000  Uiso   1.00
C524   C     0.38331   0.34642   0.22508   0.00000  Uiso   1.00
C525   C     0.41237   0.36562   0.16498   0.00000  Uiso   1.00
C526   C     0.40052   0.41058   0.13615   0.00000  Uiso   1.00
C527   C     0.34303   0.27119   0.25195   0.00000  Uiso   1.00
C528   C     0.33823   0.22715   0.21442   0.00000  Uiso   1.00
C529   C     0.29247   0.20877   0.20818   0.00000  Uiso   1.00
H530   H     0.28625   0.36286   0.34439   0.00000  Uiso   1.00
H531   H     0.31913   0.36325   0.49222   0.00000  Uiso   1.00
H532   H     0.30134   0.43538   0.24996   0.00000  Uiso   1.00
H533   H     0.22722   0.29692   0.29939   0.00000  Uiso   1.00
H534   H     0.37302   0.35274   0.64279   0.00000  Uiso   1.00
H535   H     0.33550   0.50483   0.13195   0.00000  Uiso   1.00
H536   H     0.17919   0.21287   0.23618   0.00000  Uiso   1.00
H537   H     0.42047   0.27852   0.24166   0.00000  Uiso   1.00
H538   H     0.46072   0.27427   0.38386   0.00000  Uiso   1.00
H539   H     0.44293   0.34641   0.14160   0.00000  Uiso   1.00
H540   H     0.36880   0.20795   0.19103   0.00000  Uiso   1.00
H541   H     0.48794   0.28053   0.55484   0.00000  Uiso   1.00
H542   H     0.45041   0.43262   0.04399   0.00000  Uiso   1.00
H543   H     0.29410   0.14066   0.14823   0.00000  Uiso   1.00
O544   O     0.45455   0.31538   0.69421   0.00000  Uiso   1.00
O545   O     0.40531   0.51491   0.02399   0.00000  Uiso   1.00
O546   O     0.20023   0.13186   0.16075   0.00000  Uiso   1.00
N547   N     0.39454   0.33632   0.60258   0.00000  Uiso   1.00
N548   N     0.35946   0.47852   0.12498   0.00000  Uiso   1.00
N549   N     0.21332   0.20557   0.22241   0.00000  Uiso   1.00
N550   N     0.45638   0.29746   0.55525   0.00000  Uiso   1.00
N551   N     0.42130   0.43966   0.07765   0.00000  Uiso   1.00
N552   N     0.27516   0.16671   0.17508   0.00000  Uiso   1.00
C553   C     0.34354   0.68300   0.67914   0.00000  Uiso   1.00
C554   C     0.33204   0.64652   0.61307   0.00000  Uiso   1.00
C555   C     0.34403   0.65030   0.53115   0.00000  Uiso   1.00
C556   C     0.33031   0.61312   0.48046   0.00000  Uiso   1.00
C557   C     0.31626   0.56248   0.37327   0.00000  Uiso   1.00
C558   C     0.37124   0.65619   0.74469   0.00000  Uiso   1.00
C559   C     0.41618   0.66809   0.77344   0.00000  Uiso   1.00
C560   C     0.43545   0.63905   0.83356   0.00000  Uiso   1.00
C561   C     0.48224   0.60343   0.93076   0.00000  Uiso   1.00
C562   C     0.29601   0.69646   0.71782   0.00000  Uiso   1.00
C563   C     0.27771   0.74223   0.72401   0.00000  Uiso   1.00
C564   C     0.23364   0.74710   0.76153   0.00000  Uiso   1.00
C565   C     0.16363   0.77401   0.81701   0.00000  Uiso   1.00
C566   C     0.29784   0.61029   0.73480   0.00000  Uiso   1.00
C567   C     0.30723   0.60703   0.64330   0.00000  Uiso   1.00
C568   C     0.29348   0.56984   0.59273   0.00000  Uiso   1.00
C569   C     0.30544   0.57356   0.51075   0.00000  Uiso   1.00
C570   C     0.34642   0.61669   0.77492   0.00000  Uiso   1.00
C571   C     0.36562   0.58763   0.83502   0.00000  Uiso   1.00
C572   C     0.41058   0.59948   0.86385   0.00000  Uiso   1.00
C573   C     0.27119   0.65697   0.74805   0.00000  Uiso   1.00
C574   C     0.22715   0.66177   0.78558   0.00000  Uiso   1.00
C575   C     0.20877   0.70753   0.79182   0.00000  Uiso   1.00
H576   H     0.36286   0.71375   0.65561   0.00000  Uiso   1.00
H577   H     0.36325   0.68087   0.50778   0.00000  Uiso   1.00
H578   H     0.43538   0.69866   0.75004   0.00000  Uiso   1.00
H579   H     0.29692   0.77278   0.70061   0.00000  Uiso   1.00
H580   H     0.35274   0.62698   0.35721   0.00000  Uiso   1.00
H581   H     0.50483   0.66450   0.86805   0.00000  Uiso   1.00
H582   H     0.21287   0.82081   0.76382   0.00000  Uiso   1.00
H583   H     0.27852   0.57953   0.75834   0.00000  Uiso   1.00
H584   H     0.27427   0.53928   0.61614   0.00000  Uiso   1.00
H585   H     0.34641   0.55707   0.85840   0.00000  Uiso   1.00
H586   H     0.20795   0.63120   0.80897   0.00000  Uiso   1.00
H587   H     0.28053   0.51206   0.44516   0.00000  Uiso   1.00
H588   H     0.43262   0.54959   0.95601   0.00000  Uiso   1.00
H589   H     0.14066   0.70590   0.85177   0.00000  Uiso   1.00
O590   O     0.31538   0.54545   0.30579   0.00000  Uiso   1.00
O591   O     0.51491   0.59469   0.97601   0.00000  Uiso   1.00
O592   O     0.13186   0.79977   0.83925   0.00000  Uiso   1.00
N593   N     0.33632   0.60546   0.39742   0.00000  Uiso   1.00
N594   N     0.47852   0.64054   0.87502   0.00000  Uiso   1.00
N595   N     0.20557   0.78668   0.77759   0.00000  Uiso   1.00
N596   N     0.29746   0.54362   0.44475   0.00000  Uiso   1.00
N597   N     0.43966   0.57870   0.92235   0.00000  Uiso   1.00
N598   N     0.16671   0.72484   0.82492   0.00000  Uiso   1.00
C599   C     0.84354   0.18300   0.17914   0.00000  Uiso   1.00
C600   C     0.83204   0.14652   0.11307   0.00000  Uiso   1.00
C601   C     0.84403   0.15030   0.03115   0.00000  Uiso   1.00
C602   C     0.83031   0.11312   0.98046   0.00000  Uiso   1.00
C603   C     0.81626   0.06248   0.87327   0.00000  Uiso   1.00
C604   C     0.87124   0.15619   0.24469   0.00000  Uiso   1.00
C605   C     0.91618   0.16809   0.27344   0.00000  Uiso   1.00
C606   C     0.93545   0.13905   0.33356   0.00000  Uiso   1.00
C607   C     0.98224   0.10343   0.43076   0.00000  Uiso   1.00
C608   C     0.79601   0.19646   0.21782   0.00000  Uiso   1.00
C609   C     0.77771   0.24223   0.22401   0.00000  Uiso   1.00
C610   C     0.73364   0.24710   0.26153   0.00000  Uiso   1.00
C611   C     0.66363   0.27401   0.31701   0.00000  Uiso   1.00
C612   C     0.79784   0.11029   0.23480   0.00000  Uiso   1.00
C613   C     0.80723   0.10703   0.14330   0.00000  Uiso   1.00
C614   C     0.79348   0.06984   0.09273   0.00000  Uiso   1.00
C615   C     0.80544   0.07356   0.01075   0.00000  Uiso   1.00
C616   C     0.84642   0.11669   0.27492   0.00000  Uiso   1.00
C617   C     0.86562   0.08763   0.33502   0.00000  Uiso   1.00
C618   C     0.91058   0.09948   0.36385   0.00000  Uiso   1.00
C619   C     0.77119   0.15697   0.24805   0.00000  Uiso   1.00
C620   C     0.72715   0.16177   0.28558   0.00000  Uiso   1.00
C621   C     0.70877   0.20753   0.29182   0.00000  Uiso   1.00
H622   H     0.86286   0.21375   0.15561   0.00000  Uiso   1.00
H623   H     0.86325   0.18087   0.00778   0.00000  Uiso   1.00
H624   H     0.93538   0.19866   0.25004   0.00000  Uiso   1.00
H625   H     0.79692   0.27278   0.20061   0.00000  Uiso   1.00
H626   H     0.85274   0.12698   0.85721   0.00000  Uiso   1.00
H627   H     0.00483   0.16450   0.36805   0.00000  Uiso   1.00
H628   H     0.71287   0.32081   0.26382   0.00000  Uiso   1.00
H629   H     0.77852   0.07953   0.25834   0.00000  Uiso   1.00
H630   H     0.77427   0.03928   0.11614   0.00000  Uiso   1.00
H631   H     0.84641   0.05707   0.35840   0.00000  Uiso   1.00
H632   H     0.70795   0.13120   0.30897   0.00000  Uiso   1.00
H633   H     0.78053   0.01206   0.94516   0.00000  Uiso   1.00
H634   H     0.93262   0.04959   0.45601   0.00000  Uiso   1.00
H635   H     0.64066   0.20590   0.35177   0.00000  Uiso   1.00
O636   O     0.81538   0.04545   0.80579   0.00000  Uiso   1.00
O637   O     0.01491   0.09469   0.47601   0.00000  Uiso   1.00
O638   O     0.63186   0.29977   0.33925   0.00000  Uiso   1.00
N639   N     0.83632   0.10546   0.89742   0.00000  Uiso   1.00
N640   N     0.97852   0.14054   0.37502   0.00000  Uiso   1.00
N641   N     0.70557   0.28668   0.27759   0.00000  Uiso   1.00
N642   N     0.79746   0.04362   0.94475   0.00000  Uiso   1.00
N643   N     0.93966   0.07870   0.42235   0.00000  Uiso   1.00
N644   N     0.66671   0.22484   0.32492   0.00000  Uiso   1.00
C645   C     0.65646   0.31700   0.67914   0.00000  Uiso   1.00
C646   C     0.66796   0.35348   0.61307   0.00000  Uiso   1.00
C647   C     0.65597   0.34970   0.53115   0.00000  Uiso   1.00
C648   C     0.66969   0.38688   0.48046   0.00000  Uiso   1.00
C649   C     0.68374   0.43752   0.37327   0.00000  Uiso   1.00
C650   C     0.62876   0.34381   0.74469   0.00000  Uiso   1.00
C651   C     0.58382   0.33191   0.77344   0.00000  Uiso   1.00
C652   C     0.56455   0.36095   0.83356   0.00000  Uiso   1.00
C653   C     0.51776   0.39657   0.93076   0.00000  Uiso   1.00
C654   C     0.70399   0.30354   0.71782   0.00000  Uiso   1.00
C655   C     0.72229   0.25777   0.72401   0.00000  Uiso   1.00
C656   C     0.76636   0.25290   0.76153   0.00000  Uiso   1.00
C657   C     0.83637   0.22599   0.81701   0.00000  Uiso   1.00
C658   C     0.70216   0.38971   0.73480   0.00000  Uiso   1.00
C659   C     0.69277   0.39297   0.64330   0.00000  Uiso   1.00
C660   C     0.70652   0.43016   0.59273   0.00000  Uiso   1.00
C661   C     0.69456   0.42644   0.51075   0.00000  Uiso   1.00
C662   C     0.65358   0.38331   0.77492   0.00000  Uiso   1.00
C663   C     0.63438   0.41237   0.83502   0.00000  Uiso   1.00
C664   C     0.58942   0.40052   0.86385   0.00000  Uiso   1.00
C665   C     0.72881   0.34303   0.74805   0.00000  Uiso   1.00
C666   C     0.77285   0.33823   0.78558   0.00000  Uiso   1.00
C667   C     0.79123   0.29247   0.79182   0.00000  Uiso   1.00
H668   H     0.63714   0.28625   0.65561   0.00000  Uiso   1.00
H669   H     0.63675   0.31913   0.50778   0.00000  Uiso   1.00
H670   H     0.56462   0.30134   0.75004   0.00000  Uiso   1.00
H671   H     0.70308   0.22722   0.70061   0.00000  Uiso   1.00
H672   H     0.64726   0.37302   0.35721   0.00000  Uiso   1.00
H673   H     0.49517   0.33550   0.86805   0.00000  Uiso   1.00
H674   H     0.78713   0.17919   0.76382   0.00000  Uiso   1.00
H675   H     0.72148   0.42047   0.75834   0.00000  Uiso   1.00
H676   H     0.72573   0.46072   0.61614   0.00000  Uiso   1.00
H677   H     0.65359   0.44293   0.85840   0.00000  Uiso   1.00
H678   H     0.79205   0.36880   0.80897   0.00000  Uiso   1.00
H679   H     0.71947   0.48794   0.44516   0.00000  Uiso   1.00
H680   H     0.56738   0.45041   0.95601   0.00000  Uiso   1.00
H681   H     0.85934   0.29410   0.85177   0.00000  Uiso   1.00
O682   O     0.68462   0.45455   0.30579   0.00000  Uiso   1.00
O683   O     0.48509   0.40531   0.97601   0.00000  Uiso   1.00
O684   O     0.86814   0.20023   0.83925   0.00000  Uiso   1.00
N685   N     0.66368   0.39454   0.39742   0.00000  Uiso   1.00
N686   N     0.52148   0.35946   0.87502   0.00000  Uiso   1.00
N687   N     0.79443   0.21332   0.77759   0.00000  Uiso   1.00
N688   N     0.70254   0.45638   0.44475   0.00000  Uiso   1.00
N689   N     0.56034   0.42130   0.92235   0.00000  Uiso   1.00
N690   N     0.83329   0.27516   0.82492   0.00000  Uiso   1.00
C691   C     0.15646   0.81700   0.17914   0.00000  Uiso   1.00
C692   C     0.16796   0.85348   0.11307   0.00000  Uiso   1.00
C693   C     0.15597   0.84970   0.03115   0.00000  Uiso   1.00
C694   C     0.16969   0.88688   0.98046   0.00000  Uiso   1.00
C695   C     0.18374   0.93752   0.87327   0.00000  Uiso   1.00
C696   C     0.12876   0.84381   0.24469   0.00000  Uiso   1.00
C697   C     0.08382   0.83191   0.27344   0.00000  Uiso   1.00
C698   C     0.06455   0.86095   0.33356   0.00000  Uiso   1.00
C699   C     0.01776   0.89657   0.43076   0.00000  Uiso   1.00
C700   C     0.20399   0.80354   0.21782   0.00000  Uiso   1.00
C701   C     0.22229   0.75777   0.22401   0.00000  Uiso   1.00
C702   C     0.26636   0.75290   0.26153   0.00000  Uiso   1.00
C703   C     0.33637   0.72599   0.31701   0.00000  Uiso   1.00
C704   C     0.20216   0.88971   0.23480   0.00000  Uiso   1.00
C705   C     0.19277   0.89297   0.14330   0.00000  Uiso   1.00
C706   C     0.20652   0.93016   0.09273   0.00000  Uiso   1.00
C707   C     0.19456   0.92644   0.01075   0.00000  Uiso   1.00
C708   C     0.15358   0.88331   0.27492   0.00000  Uiso   1.00
C709   C     0.13438   0.91237   0.33502   0.00000  Uiso   1.00
C710   C     0.08942   0.90052   0.36385   0.00000  Uiso   1.00
C711   C     0.22881   0.84303   0.24805   0.00000  Uiso   1.00
C712   C     0.27285   0.83823   0.28558   0.00000  Uiso   1.00
C713   C     0.29123   0.79247   0.29182   0.00000  Uiso   1.00
H714   H     0.13714   0.78625   0.15561   0.00000  Uiso   1.00
H715   H     0.13675   0.81913   0.00778   0.00000  Uiso   1.00
H716   H     0.06462   0.80134   0.25004   0.00000  Uiso   1.00
H717   H     0.20308   0.72722   0.20061   0.00000  Uiso   1.00
H718   H     0.14726   0.87302   0.85721   0.00000  Uiso   1.00
H719   H     0.99517   0.83550   0.36805   0.00000  Uiso   1.00
H720   H     0.28713   0.67919   0.26382   0.00000  Uiso   1.00
H721   H     0.22148   0.92047   0.25834   0.00000  Uiso   1.00
H722   H     0.22573   0.96072   0.11614   0.00000  Uiso   1.00
H723   H     0.15359   0.94293   0.35840   0.00000  Uiso   1.00
H724   H     0.29205   0.86880   0.30897   0.00000  Uiso   1.00
H725   H     0.21947   0.98794   0.94516   0.00000  Uiso   1.00
H726   H     0.06738   0.95041   0.45601   0.00000  Uiso   1.00
H727   H     0.35934   0.79410   0.35177   0.00000  Uiso   1.00
O728   O     0.18462   0.95455   0.80579   0.00000  Uiso   1.00
O729   O     0.98509   0.90531   0.47601   0.00000  Uiso   1.00
O730   O     0.36814   0.70023   0.33925   0.00000  Uiso   1.00
N731   N     0.16368   0.89454   0.89742   0.00000  Uiso   1.00
N732   N     0.02148   0.85946   0.37502   0.00000  Uiso   1.00
N733   N     0.29443   0.71332   0.27759   0.00000  Uiso   1.00
N734   N     0.20254   0.95638   0.94475   0.00000  Uiso   1.00
N735   N     0.06034   0.92130   0.42235   0.00000  Uiso   1.00
N736   N     0.33329   0.77516   0.32492   0.00000  Uiso   1.00
