data_job_06595
_audit_creation_date              2018-12-19
_audit_creation_method            'Materials Studio'
_symmetry_space_group_name_H-M    'P1'
_symmetry_Int_Tables_number       1
_symmetry_cell_setting            triclinic
loop_
_symmetry_equiv_pos_as_xyz
  x,y,z
_cell_length_a                    28.3607
_cell_length_b                    41.1581
_cell_length_c                    24.8736
_cell_angle_alpha                 90.0000
_cell_angle_beta                  128.7927
_cell_angle_gamma                 90.0000
loop_
_atom_site_label
_atom_site_type_symbol
_atom_site_fract_x
_atom_site_fract_y
_atom_site_fract_z
_atom_site_U_iso_or_equiv
_atom_site_adp_type
_atom_site_occupancy
C1     C     0.78667   0.38061   0.81722   0.00000  Uiso   1.00
C2     C     0.83786   0.37256   0.81491   0.00000  Uiso   1.00
C3     C     0.88616   0.39272   0.83683   0.00000  Uiso   1.00
C4     C     0.92827   0.38091   0.83040   0.00000  Uiso   1.00
C5     C     0.00866   0.37312   0.83095   0.00000  Uiso   1.00
C6     C     0.72822   0.37685   0.74350   0.00000  Uiso   1.00
C7     C     0.68431   0.40060   0.70539   0.00000  Uiso   1.00
C8     C     0.63412   0.39239   0.63886   0.00000  Uiso   1.00
C9     C     0.04426   0.89125   0.52856   0.00000  Uiso   1.00
C10    C     0.78632   0.35346   0.85869   0.00000  Uiso   1.00
C11    C     0.79126   0.35756   0.91743   0.00000  Uiso   1.00
C12    C     0.78997   0.32966   0.94787   0.00000  Uiso   1.00
C13    C     0.79033   0.29221   0.01643   0.00000  Uiso   1.00
C14    C     0.77558   0.32377   0.76682   0.00000  Uiso   1.00
C15    C     0.83184   0.34169   0.78753   0.00000  Uiso   1.00
C16    C     0.87389   0.32985   0.78107   0.00000  Uiso   1.00
C17    C     0.92223   0.34998   0.80298   0.00000  Uiso   1.00
C18    C     0.72219   0.34598   0.71613   0.00000  Uiso   1.00
C19    C     0.67204   0.33773   0.64963   0.00000  Uiso   1.00
C20    C     0.62808   0.36147   0.61143   0.00000  Uiso   1.00
C21    C     0.78030   0.32259   0.83132   0.00000  Uiso   1.00
C22    C     0.77899   0.29468   0.86167   0.00000  Uiso   1.00
C23    C     0.78394   0.29874   0.92044   0.00000  Uiso   1.00
H24    H     0.79135   0.40464   0.83852   0.00000  Uiso   1.00
H25    H     0.89080   0.41661   0.85801   0.00000  Uiso   1.00
H26    H     0.68899   0.42449   0.72659   0.00000  Uiso   1.00
H27    H     0.79592   0.38145   0.93860   0.00000  Uiso   1.00
H28    H     0.99839   0.41628   0.86751   0.00000  Uiso   1.00
H29    H     0.07284   0.93289   0.59043   0.00000  Uiso   1.00
H30    H     0.79833   0.34213   0.03748   0.00000  Uiso   1.00
H31    H     0.77088   0.29974   0.74550   0.00000  Uiso   1.00
H32    H     0.86921   0.30596   0.75988   0.00000  Uiso   1.00
H33    H     0.66740   0.31384   0.62847   0.00000  Uiso   1.00
H34    H     0.77433   0.27080   0.84047   0.00000  Uiso   1.00
H35    H     0.98086   0.32647   0.78787   0.00000  Uiso   1.00
H36    H     0.55531   0.34308   0.51078   0.00000  Uiso   1.00
H37    H     0.78081   0.25232   0.95784   0.00000  Uiso   1.00
O38    O     0.05466   0.37736   0.83880   0.00000  Uiso   1.00
O39    O     0.99636   0.89915   0.47529   0.00000  Uiso   1.00
O40    O     0.79220   0.28008   0.06181   0.00000  Uiso   1.00
N41    N     0.98077   0.39428   0.84681   0.00000  Uiso   1.00
N42    N     0.58292   0.40981   0.58774   0.00000  Uiso   1.00
N43    N     0.79372   0.32497   0.00569   0.00000  Uiso   1.00
N44    N     0.97134   0.34596   0.80395   0.00000  Uiso   1.00
N45    N     0.57349   0.36149   0.54489   0.00000  Uiso   1.00
N46    N     0.78429   0.27664   0.96284   0.00000  Uiso   1.00
C47    C     0.86405   0.04253   0.66718   0.00000  Uiso   1.00
C48    C     0.89193   0.07465   0.70498   0.00000  Uiso   1.00
C49    C     0.92016   0.08034   0.77408   0.00000  Uiso   1.00
C50    C     0.94273   0.11138   0.79891   0.00000  Uiso   1.00
C51    C     0.98683   0.15754   0.86412   0.00000  Uiso   1.00
C52    C     0.79837   0.05003   0.60621   0.00000  Uiso   1.00
C53    C     0.74794   0.03502   0.59226   0.00000  Uiso   1.00
C54    C     0.69174   0.04533   0.53393   0.00000  Uiso   1.00
C55    C     0.59059   0.05325   0.44576   0.00000  Uiso   1.00
C56    C     0.89491   0.03375   0.63635   0.00000  Uiso   1.00
C57    C     0.92563   0.00505   0.64772   0.00000  Uiso   1.00
C58    C     0.95070   0.00165   0.61476   0.00000  Uiso   1.00
C59    C     0.99944   0.98429   0.57338   0.00000  Uiso   1.00
C60    C     0.85393   0.08753   0.58839   0.00000  Uiso   1.00
C61    C     0.88643   0.09909   0.66219   0.00000  Uiso   1.00
C62    C     0.90896   0.13013   0.68692   0.00000  Uiso   1.00
C63    C     0.93722   0.13586   0.75605   0.00000  Uiso   1.00
C64    C     0.79287   0.07447   0.56342   0.00000  Uiso   1.00
C65    C     0.73673   0.08480   0.50509   0.00000  Uiso   1.00
C66    C     0.68623   0.06981   0.49106   0.00000  Uiso   1.00
C67    C     0.88941   0.05819   0.59355   0.00000  Uiso   1.00
C68    C     0.91443   0.05483   0.56056   0.00000  Uiso   1.00
C69    C     0.94519   0.02613   0.57189   0.00000  Uiso   1.00
H70    H     0.86833   0.02350   0.70049   0.00000  Uiso   1.00
H71    H     0.92441   0.06142   0.80718   0.00000  Uiso   1.00
H72    H     0.75221   0.01610   0.62538   0.00000  Uiso   1.00
H73    H     0.92988   0.98614   0.68084   0.00000  Uiso   1.00
H74    H     0.98413   0.11424   0.90660   0.00000  Uiso   1.00
H75    H     0.62104   0.01868   0.52324   0.00000  Uiso   1.00
H76    H     0.99569   0.95549   0.64019   0.00000  Uiso   1.00
H77    H     0.84964   0.10656   0.55507   0.00000  Uiso   1.00
H78    H     0.90470   0.14904   0.65379   0.00000  Uiso   1.00
H79    H     0.73250   0.10372   0.47199   0.00000  Uiso   1.00
H80    H     0.91017   0.07375   0.52745   0.00000  Uiso   1.00
H81    H     0.96813   0.18536   0.78210   0.00000  Uiso   1.00
H82    H     0.60504   0.08979   0.39874   0.00000  Uiso   1.00
H83    H     0.97969   0.02661   0.51569   0.00000  Uiso   1.00
O84    O     0.01266   0.17625   0.91190   0.00000  Uiso   1.00
O85    O     0.53631   0.05086   0.40895   0.00000  Uiso   1.00
O86    O     0.02784   0.96797   0.56239   0.00000  Uiso   1.00
N87    N     0.97282   0.12515   0.86375   0.00000  Uiso   1.00
N88    N     0.63335   0.03580   0.50534   0.00000  Uiso   1.00
N89    N     0.98361   0.97673   0.61466   0.00000  Uiso   1.00
N90    N     0.96421   0.16341   0.79676   0.00000  Uiso   1.00
N91    N     0.62475   0.07407   0.43835   0.00000  Uiso   1.00
N92    N     0.97500   0.01499   0.54767   0.00000  Uiso   1.00
C93    C     0.99666   0.32455   0.40849   0.00000  Uiso   1.00
C94    C     0.01502   0.30170   0.46703   0.00000  Uiso   1.00
C95    C     0.06028   0.27839   0.49680   0.00000  Uiso   1.00
C96    C     0.07014   0.25993   0.54972   0.00000  Uiso   1.00
C97    C     0.10382   0.22373   0.63721   0.00000  Uiso   1.00
C98    C     0.92920   0.31901   0.35135   0.00000  Uiso   1.00
C99    C     0.90231   0.31025   0.28385   0.00000  Uiso   1.00
C100   C     0.83991   0.30635   0.23940   0.00000  Uiso   1.00
C101   C     0.74036   0.29704   0.14727   0.00000  Uiso   1.00
C102   C     0.00260   0.35886   0.43522   0.00000  Uiso   1.00
C103   C     0.03741   0.38362   0.43822   0.00000  Uiso   1.00
C104   C     0.03681   0.41329   0.46436   0.00000  Uiso   1.00
C105   C     0.05122   0.46586   0.50246   0.00000  Uiso   1.00
C106   C     0.93368   0.33321   0.44955   0.00000  Uiso   1.00
C107   C     0.98080   0.30641   0.48934   0.00000  Uiso   1.00
C108   C     0.99060   0.28798   0.54223   0.00000  Uiso   1.00
C109   C     0.03587   0.26464   0.57207   0.00000  Uiso   1.00
C110   C     0.89499   0.32371   0.37365   0.00000  Uiso   1.00
C111   C     0.83262   0.31984   0.32929   0.00000  Uiso   1.00
C112   C     0.80564   0.31107   0.26174   0.00000  Uiso   1.00
C113   C     0.96839   0.36357   0.45753   0.00000  Uiso   1.00
C114   C     0.96773   0.39321   0.48366   0.00000  Uiso   1.00
C115   C     0.00253   0.41800   0.48670   0.00000  Uiso   1.00
H116   H     0.02329   0.32088   0.39112   0.00000  Uiso   1.00
H117   H     0.08674   0.27475   0.47952   0.00000  Uiso   1.00
H118   H     0.92879   0.30661   0.26661   0.00000  Uiso   1.00
H119   H     0.06388   0.37997   0.42096   0.00000  Uiso   1.00
H120   H     0.14199   0.22568   0.58734   0.00000  Uiso   1.00
H121   H     0.80894   0.29286   0.13840   0.00000  Uiso   1.00
H122   H     0.09379   0.44755   0.46387   0.00000  Uiso   1.00
H123   H     0.90704   0.33688   0.46692   0.00000  Uiso   1.00
H124   H     0.96411   0.29163   0.55948   0.00000  Uiso   1.00
H125   H     0.80616   0.32348   0.34656   0.00000  Uiso   1.00
H126   H     0.94125   0.39684   0.50091   0.00000  Uiso   1.00
H127   H     0.04246   0.23937   0.65224   0.00000  Uiso   1.00
H128   H     0.70940   0.30655   0.20329   0.00000  Uiso   1.00
H129   H     0.99426   0.46125   0.52877   0.00000  Uiso   1.00
O130   O     0.13185   0.20246   0.67930   0.00000  Uiso   1.00
O131   O     0.69490   0.29060   0.09030   0.00000  Uiso   1.00
O132   O     0.06863   0.49356   0.51732   0.00000  Uiso   1.00
N133   N     0.11074   0.23512   0.58992   0.00000  Uiso   1.00
N134   N     0.79936   0.29792   0.17019   0.00000  Uiso   1.00
N135   N     0.06566   0.44255   0.47446   0.00000  Uiso   1.00
N136   N     0.05718   0.24249   0.62485   0.00000  Uiso   1.00
N137   N     0.74580   0.30529   0.20511   0.00000  Uiso   1.00
N138   N     0.01210   0.44992   0.50938   0.00000  Uiso   1.00
C139   C     0.28667   0.88061   0.81722   0.00000  Uiso   1.00
C140   C     0.33786   0.87256   0.81491   0.00000  Uiso   1.00
C141   C     0.38616   0.89272   0.83683   0.00000  Uiso   1.00
C142   C     0.42827   0.88091   0.83040   0.00000  Uiso   1.00
C143   C     0.50866   0.87312   0.83095   0.00000  Uiso   1.00
C144   C     0.22822   0.87685   0.74350   0.00000  Uiso   1.00
C145   C     0.18431   0.90060   0.70539   0.00000  Uiso   1.00
C146   C     0.13412   0.89239   0.63886   0.00000  Uiso   1.00
C147   C     0.54426   0.39125   0.52856   0.00000  Uiso   1.00
C148   C     0.28632   0.85346   0.85869   0.00000  Uiso   1.00
C149   C     0.29126   0.85756   0.91743   0.00000  Uiso   1.00
C150   C     0.28997   0.82966   0.94787   0.00000  Uiso   1.00
C151   C     0.29033   0.79221   0.01643   0.00000  Uiso   1.00
C152   C     0.27558   0.82377   0.76682   0.00000  Uiso   1.00
C153   C     0.33184   0.84169   0.78753   0.00000  Uiso   1.00
C154   C     0.37389   0.82985   0.78107   0.00000  Uiso   1.00
C155   C     0.42223   0.84998   0.80298   0.00000  Uiso   1.00
C156   C     0.22219   0.84598   0.71613   0.00000  Uiso   1.00
C157   C     0.17204   0.83773   0.64963   0.00000  Uiso   1.00
C158   C     0.12808   0.86147   0.61143   0.00000  Uiso   1.00
C159   C     0.28030   0.82259   0.83132   0.00000  Uiso   1.00
C160   C     0.27899   0.79468   0.86167   0.00000  Uiso   1.00
C161   C     0.28394   0.79874   0.92044   0.00000  Uiso   1.00
H162   H     0.29135   0.90464   0.83852   0.00000  Uiso   1.00
H163   H     0.39080   0.91661   0.85801   0.00000  Uiso   1.00
H164   H     0.18899   0.92449   0.72659   0.00000  Uiso   1.00
H165   H     0.29592   0.88145   0.93860   0.00000  Uiso   1.00
H166   H     0.49839   0.91628   0.86751   0.00000  Uiso   1.00
H167   H     0.57284   0.43289   0.59043   0.00000  Uiso   1.00
H168   H     0.29833   0.84213   0.03748   0.00000  Uiso   1.00
H169   H     0.27088   0.79974   0.74550   0.00000  Uiso   1.00
H170   H     0.36921   0.80596   0.75988   0.00000  Uiso   1.00
H171   H     0.16740   0.81384   0.62847   0.00000  Uiso   1.00
H172   H     0.27433   0.77080   0.84047   0.00000  Uiso   1.00
H173   H     0.48086   0.82647   0.78787   0.00000  Uiso   1.00
H174   H     0.05531   0.84308   0.51078   0.00000  Uiso   1.00
H175   H     0.28081   0.75232   0.95784   0.00000  Uiso   1.00
O176   O     0.55466   0.87736   0.83880   0.00000  Uiso   1.00
O177   O     0.49636   0.39915   0.47529   0.00000  Uiso   1.00
O178   O     0.29220   0.78008   0.06181   0.00000  Uiso   1.00
N179   N     0.48077   0.89428   0.84681   0.00000  Uiso   1.00
N180   N     0.08292   0.90981   0.58774   0.00000  Uiso   1.00
N181   N     0.29372   0.82497   0.00569   0.00000  Uiso   1.00
N182   N     0.47134   0.84596   0.80395   0.00000  Uiso   1.00
N183   N     0.07349   0.86149   0.54489   0.00000  Uiso   1.00
N184   N     0.28429   0.77664   0.96284   0.00000  Uiso   1.00
C185   C     0.36405   0.54253   0.66718   0.00000  Uiso   1.00
C186   C     0.39193   0.57465   0.70498   0.00000  Uiso   1.00
C187   C     0.42016   0.58034   0.77408   0.00000  Uiso   1.00
C188   C     0.44273   0.61138   0.79891   0.00000  Uiso   1.00
C189   C     0.48683   0.65754   0.86412   0.00000  Uiso   1.00
C190   C     0.29837   0.55003   0.60621   0.00000  Uiso   1.00
C191   C     0.24794   0.53502   0.59226   0.00000  Uiso   1.00
C192   C     0.19174   0.54533   0.53393   0.00000  Uiso   1.00
C193   C     0.09059   0.55325   0.44576   0.00000  Uiso   1.00
C194   C     0.39491   0.53375   0.63635   0.00000  Uiso   1.00
C195   C     0.42563   0.50505   0.64772   0.00000  Uiso   1.00
C196   C     0.45070   0.50165   0.61476   0.00000  Uiso   1.00
C197   C     0.49944   0.48429   0.57338   0.00000  Uiso   1.00
C198   C     0.35393   0.58753   0.58839   0.00000  Uiso   1.00
C199   C     0.38643   0.59909   0.66219   0.00000  Uiso   1.00
C200   C     0.40896   0.63013   0.68692   0.00000  Uiso   1.00
C201   C     0.43722   0.63586   0.75605   0.00000  Uiso   1.00
C202   C     0.29287   0.57447   0.56342   0.00000  Uiso   1.00
C203   C     0.23673   0.58480   0.50509   0.00000  Uiso   1.00
C204   C     0.18623   0.56981   0.49106   0.00000  Uiso   1.00
C205   C     0.38941   0.55819   0.59355   0.00000  Uiso   1.00
C206   C     0.41443   0.55483   0.56056   0.00000  Uiso   1.00
C207   C     0.44519   0.52613   0.57189   0.00000  Uiso   1.00
H208   H     0.36833   0.52350   0.70049   0.00000  Uiso   1.00
H209   H     0.42441   0.56142   0.80718   0.00000  Uiso   1.00
H210   H     0.25221   0.51610   0.62538   0.00000  Uiso   1.00
H211   H     0.42988   0.48614   0.68084   0.00000  Uiso   1.00
H212   H     0.48413   0.61424   0.90660   0.00000  Uiso   1.00
H213   H     0.12104   0.51868   0.52324   0.00000  Uiso   1.00
H214   H     0.49569   0.45549   0.64019   0.00000  Uiso   1.00
H215   H     0.34964   0.60656   0.55507   0.00000  Uiso   1.00
H216   H     0.40470   0.64904   0.65379   0.00000  Uiso   1.00
H217   H     0.23250   0.60372   0.47199   0.00000  Uiso   1.00
H218   H     0.41017   0.57375   0.52745   0.00000  Uiso   1.00
H219   H     0.46813   0.68536   0.78210   0.00000  Uiso   1.00
H220   H     0.10504   0.58979   0.39874   0.00000  Uiso   1.00
H221   H     0.47969   0.52661   0.51569   0.00000  Uiso   1.00
O222   O     0.51266   0.67625   0.91190   0.00000  Uiso   1.00
O223   O     0.03631   0.55086   0.40895   0.00000  Uiso   1.00
O224   O     0.52784   0.46797   0.56239   0.00000  Uiso   1.00
N225   N     0.47282   0.62515   0.86375   0.00000  Uiso   1.00
N226   N     0.13335   0.53580   0.50534   0.00000  Uiso   1.00
N227   N     0.48361   0.47673   0.61466   0.00000  Uiso   1.00
N228   N     0.46421   0.66341   0.79676   0.00000  Uiso   1.00
N229   N     0.12475   0.57407   0.43835   0.00000  Uiso   1.00
N230   N     0.47500   0.51499   0.54767   0.00000  Uiso   1.00
C231   C     0.49666   0.82455   0.40849   0.00000  Uiso   1.00
C232   C     0.51502   0.80170   0.46703   0.00000  Uiso   1.00
C233   C     0.56028   0.77839   0.49680   0.00000  Uiso   1.00
C234   C     0.57014   0.75993   0.54972   0.00000  Uiso   1.00
C235   C     0.60382   0.72373   0.63721   0.00000  Uiso   1.00
C236   C     0.42920   0.81901   0.35135   0.00000  Uiso   1.00
C237   C     0.40231   0.81025   0.28385   0.00000  Uiso   1.00
C238   C     0.33991   0.80635   0.23940   0.00000  Uiso   1.00
C239   C     0.24036   0.79704   0.14727   0.00000  Uiso   1.00
C240   C     0.50260   0.85886   0.43522   0.00000  Uiso   1.00
C241   C     0.53741   0.88362   0.43822   0.00000  Uiso   1.00
C242   C     0.53681   0.91329   0.46436   0.00000  Uiso   1.00
C243   C     0.55122   0.96586   0.50246   0.00000  Uiso   1.00
C244   C     0.43368   0.83321   0.44955   0.00000  Uiso   1.00
C245   C     0.48080   0.80641   0.48934   0.00000  Uiso   1.00
C246   C     0.49060   0.78798   0.54223   0.00000  Uiso   1.00
C247   C     0.53587   0.76464   0.57207   0.00000  Uiso   1.00
C248   C     0.39499   0.82371   0.37365   0.00000  Uiso   1.00
C249   C     0.33262   0.81984   0.32929   0.00000  Uiso   1.00
C250   C     0.30564   0.81107   0.26174   0.00000  Uiso   1.00
C251   C     0.46839   0.86357   0.45753   0.00000  Uiso   1.00
C252   C     0.46773   0.89321   0.48366   0.00000  Uiso   1.00
C253   C     0.50253   0.91800   0.48670   0.00000  Uiso   1.00
H254   H     0.52329   0.82088   0.39112   0.00000  Uiso   1.00
H255   H     0.58674   0.77475   0.47952   0.00000  Uiso   1.00
H256   H     0.42879   0.80661   0.26661   0.00000  Uiso   1.00
H257   H     0.56388   0.87997   0.42096   0.00000  Uiso   1.00
H258   H     0.64199   0.72568   0.58734   0.00000  Uiso   1.00
H259   H     0.30894   0.79286   0.13840   0.00000  Uiso   1.00
H260   H     0.59379   0.94755   0.46387   0.00000  Uiso   1.00
H261   H     0.40704   0.83688   0.46692   0.00000  Uiso   1.00
H262   H     0.46411   0.79163   0.55948   0.00000  Uiso   1.00
H263   H     0.30616   0.82348   0.34656   0.00000  Uiso   1.00
H264   H     0.44125   0.89684   0.50091   0.00000  Uiso   1.00
H265   H     0.54246   0.73937   0.65224   0.00000  Uiso   1.00
H266   H     0.20940   0.80655   0.20329   0.00000  Uiso   1.00
H267   H     0.49426   0.96125   0.52877   0.00000  Uiso   1.00
O268   O     0.63185   0.70246   0.67930   0.00000  Uiso   1.00
O269   O     0.19490   0.79060   0.09030   0.00000  Uiso   1.00
O270   O     0.56863   0.99356   0.51732   0.00000  Uiso   1.00
N271   N     0.61074   0.73512   0.58992   0.00000  Uiso   1.00
N272   N     0.29936   0.79792   0.17019   0.00000  Uiso   1.00
N273   N     0.56566   0.94255   0.47446   0.00000  Uiso   1.00
N274   N     0.55718   0.74249   0.62485   0.00000  Uiso   1.00
N275   N     0.24580   0.80529   0.20511   0.00000  Uiso   1.00
N276   N     0.51210   0.94992   0.50938   0.00000  Uiso   1.00
C277   C     0.21333   0.38061   0.68278   0.00000  Uiso   1.00
C278   C     0.16214   0.37256   0.68509   0.00000  Uiso   1.00
C279   C     0.11384   0.39272   0.66317   0.00000  Uiso   1.00
C280   C     0.07173   0.38091   0.66960   0.00000  Uiso   1.00
C281   C     0.99134   0.37312   0.66905   0.00000  Uiso   1.00
C282   C     0.27178   0.37685   0.75650   0.00000  Uiso   1.00
C283   C     0.31569   0.40060   0.79461   0.00000  Uiso   1.00
C284   C     0.36588   0.39239   0.86114   0.00000  Uiso   1.00
C285   C     0.95574   0.89125   0.97144   0.00000  Uiso   1.00
C286   C     0.21368   0.35346   0.64131   0.00000  Uiso   1.00
C287   C     0.20874   0.35756   0.58257   0.00000  Uiso   1.00
C288   C     0.21003   0.32966   0.55213   0.00000  Uiso   1.00
C289   C     0.20967   0.29221   0.48357   0.00000  Uiso   1.00
C290   C     0.22442   0.32377   0.73318   0.00000  Uiso   1.00
C291   C     0.16816   0.34169   0.71247   0.00000  Uiso   1.00
C292   C     0.12611   0.32985   0.71893   0.00000  Uiso   1.00
C293   C     0.07777   0.34998   0.69702   0.00000  Uiso   1.00
C294   C     0.27781   0.34598   0.78387   0.00000  Uiso   1.00
C295   C     0.32796   0.33773   0.85037   0.00000  Uiso   1.00
C296   C     0.37192   0.36147   0.88857   0.00000  Uiso   1.00
C297   C     0.21970   0.32259   0.66868   0.00000  Uiso   1.00
C298   C     0.22101   0.29468   0.63833   0.00000  Uiso   1.00
C299   C     0.21606   0.29874   0.57956   0.00000  Uiso   1.00
H300   H     0.20865   0.40464   0.66148   0.00000  Uiso   1.00
H301   H     0.10920   0.41661   0.64199   0.00000  Uiso   1.00
H302   H     0.31101   0.42449   0.77341   0.00000  Uiso   1.00
H303   H     0.20408   0.38145   0.56140   0.00000  Uiso   1.00
H304   H     0.00161   0.41628   0.63249   0.00000  Uiso   1.00
H305   H     0.92716   0.93289   0.90957   0.00000  Uiso   1.00
H306   H     0.20167   0.34213   0.46252   0.00000  Uiso   1.00
H307   H     0.22912   0.29974   0.75450   0.00000  Uiso   1.00
H308   H     0.13079   0.30596   0.74012   0.00000  Uiso   1.00
H309   H     0.33260   0.31384   0.87153   0.00000  Uiso   1.00
H310   H     0.22567   0.27080   0.65953   0.00000  Uiso   1.00
H311   H     0.01914   0.32647   0.71213   0.00000  Uiso   1.00
H312   H     0.44469   0.34308   0.98922   0.00000  Uiso   1.00
H313   H     0.21919   0.25232   0.54216   0.00000  Uiso   1.00
O314   O     0.94534   0.37736   0.66120   0.00000  Uiso   1.00
O315   O     0.00364   0.89915   0.02471   0.00000  Uiso   1.00
O316   O     0.20780   0.28008   0.43819   0.00000  Uiso   1.00
N317   N     0.01923   0.39428   0.65319   0.00000  Uiso   1.00
N318   N     0.41708   0.40981   0.91226   0.00000  Uiso   1.00
N319   N     0.20628   0.32497   0.49431   0.00000  Uiso   1.00
N320   N     0.02866   0.34596   0.69605   0.00000  Uiso   1.00
N321   N     0.42651   0.36149   0.95511   0.00000  Uiso   1.00
N322   N     0.21571   0.27664   0.53716   0.00000  Uiso   1.00
C323   C     0.13595   0.04253   0.83282   0.00000  Uiso   1.00
C324   C     0.10807   0.07465   0.79502   0.00000  Uiso   1.00
C325   C     0.07984   0.08034   0.72592   0.00000  Uiso   1.00
C326   C     0.05727   0.11138   0.70109   0.00000  Uiso   1.00
C327   C     0.01317   0.15754   0.63588   0.00000  Uiso   1.00
C328   C     0.20163   0.05003   0.89379   0.00000  Uiso   1.00
C329   C     0.25206   0.03502   0.90774   0.00000  Uiso   1.00
C330   C     0.30826   0.04533   0.96607   0.00000  Uiso   1.00
C331   C     0.40941   0.05325   0.05424   0.00000  Uiso   1.00
C332   C     0.10509   0.03375   0.86365   0.00000  Uiso   1.00
C333   C     0.07437   0.00505   0.85228   0.00000  Uiso   1.00
C334   C     0.04930   0.00165   0.88524   0.00000  Uiso   1.00
C335   C     0.00056   0.98429   0.92662   0.00000  Uiso   1.00
C336   C     0.14607   0.08753   0.91161   0.00000  Uiso   1.00
C337   C     0.11357   0.09909   0.83781   0.00000  Uiso   1.00
C338   C     0.09104   0.13013   0.81308   0.00000  Uiso   1.00
C339   C     0.06278   0.13586   0.74395   0.00000  Uiso   1.00
C340   C     0.20713   0.07447   0.93658   0.00000  Uiso   1.00
C341   C     0.26327   0.08480   0.99491   0.00000  Uiso   1.00
C342   C     0.31377   0.06981   0.00894   0.00000  Uiso   1.00
C343   C     0.11059   0.05819   0.90645   0.00000  Uiso   1.00
C344   C     0.08557   0.05483   0.93944   0.00000  Uiso   1.00
C345   C     0.05481   0.02613   0.92811   0.00000  Uiso   1.00
H346   H     0.13167   0.02350   0.79951   0.00000  Uiso   1.00
H347   H     0.07559   0.06142   0.69282   0.00000  Uiso   1.00
H348   H     0.24779   0.01610   0.87462   0.00000  Uiso   1.00
H349   H     0.07012   0.98614   0.81916   0.00000  Uiso   1.00
H350   H     0.01587   0.11424   0.59340   0.00000  Uiso   1.00
H351   H     0.37896   0.01868   0.97676   0.00000  Uiso   1.00
H352   H     0.00431   0.95549   0.85981   0.00000  Uiso   1.00
H353   H     0.15036   0.10656   0.94493   0.00000  Uiso   1.00
H354   H     0.09530   0.14904   0.84621   0.00000  Uiso   1.00
H355   H     0.26750   0.10372   0.02801   0.00000  Uiso   1.00
H356   H     0.08983   0.07375   0.97255   0.00000  Uiso   1.00
H357   H     0.03187   0.18536   0.71790   0.00000  Uiso   1.00
H358   H     0.39496   0.08979   0.10126   0.00000  Uiso   1.00
H359   H     0.02031   0.02661   0.98431   0.00000  Uiso   1.00
O360   O     0.98734   0.17625   0.58810   0.00000  Uiso   1.00
O361   O     0.46369   0.05086   0.09105   0.00000  Uiso   1.00
O362   O     0.97216   0.96797   0.93761   0.00000  Uiso   1.00
N363   N     0.02718   0.12515   0.63625   0.00000  Uiso   1.00
N364   N     0.36665   0.03580   0.99466   0.00000  Uiso   1.00
N365   N     0.01639   0.97673   0.88534   0.00000  Uiso   1.00
N366   N     0.03579   0.16341   0.70324   0.00000  Uiso   1.00
N367   N     0.37525   0.07407   0.06165   0.00000  Uiso   1.00
N368   N     0.02500   0.01499   0.95233   0.00000  Uiso   1.00
C369   C     0.00334   0.32455   0.09151   0.00000  Uiso   1.00
C370   C     0.98498   0.30170   0.03297   0.00000  Uiso   1.00
C371   C     0.93972   0.27839   0.00320   0.00000  Uiso   1.00
C372   C     0.92986   0.25993   0.95028   0.00000  Uiso   1.00
C373   C     0.89618   0.22373   0.86279   0.00000  Uiso   1.00
C374   C     0.07080   0.31901   0.14865   0.00000  Uiso   1.00
C375   C     0.09769   0.31025   0.21615   0.00000  Uiso   1.00
C376   C     0.16009   0.30635   0.26060   0.00000  Uiso   1.00
C377   C     0.25964   0.29704   0.35273   0.00000  Uiso   1.00
C378   C     0.99740   0.35886   0.06478   0.00000  Uiso   1.00
C379   C     0.96259   0.38362   0.06178   0.00000  Uiso   1.00
C380   C     0.96319   0.41329   0.03564   0.00000  Uiso   1.00
C381   C     0.94878   0.46586   0.99754   0.00000  Uiso   1.00
C382   C     0.06632   0.33321   0.05045   0.00000  Uiso   1.00
C383   C     0.01920   0.30641   0.01066   0.00000  Uiso   1.00
C384   C     0.00940   0.28798   0.95777   0.00000  Uiso   1.00
C385   C     0.96413   0.26464   0.92793   0.00000  Uiso   1.00
C386   C     0.10501   0.32371   0.12635   0.00000  Uiso   1.00
C387   C     0.16738   0.31984   0.17071   0.00000  Uiso   1.00
C388   C     0.19436   0.31107   0.23826   0.00000  Uiso   1.00
C389   C     0.03161   0.36357   0.04247   0.00000  Uiso   1.00
C390   C     0.03227   0.39321   0.01634   0.00000  Uiso   1.00
C391   C     0.99747   0.41800   0.01330   0.00000  Uiso   1.00
H392   H     0.97671   0.32088   0.10888   0.00000  Uiso   1.00
H393   H     0.91326   0.27475   0.02048   0.00000  Uiso   1.00
H394   H     0.07121   0.30661   0.23339   0.00000  Uiso   1.00
H395   H     0.93612   0.37997   0.07904   0.00000  Uiso   1.00
H396   H     0.85801   0.22568   0.91266   0.00000  Uiso   1.00
H397   H     0.19106   0.29286   0.36160   0.00000  Uiso   1.00
H398   H     0.90621   0.44755   0.03613   0.00000  Uiso   1.00
H399   H     0.09296   0.33688   0.03308   0.00000  Uiso   1.00
H400   H     0.03589   0.29163   0.94052   0.00000  Uiso   1.00
H401   H     0.19384   0.32348   0.15344   0.00000  Uiso   1.00
H402   H     0.05875   0.39684   0.99909   0.00000  Uiso   1.00
H403   H     0.95754   0.23937   0.84776   0.00000  Uiso   1.00
H404   H     0.29060   0.30655   0.29671   0.00000  Uiso   1.00
H405   H     0.00574   0.46125   0.97123   0.00000  Uiso   1.00
O406   O     0.86815   0.20246   0.82070   0.00000  Uiso   1.00
O407   O     0.30510   0.29060   0.40970   0.00000  Uiso   1.00
O408   O     0.93137   0.49356   0.98268   0.00000  Uiso   1.00
N409   N     0.88926   0.23512   0.91008   0.00000  Uiso   1.00
N410   N     0.20064   0.29792   0.32981   0.00000  Uiso   1.00
N411   N     0.93434   0.44255   0.02554   0.00000  Uiso   1.00
N412   N     0.94282   0.24249   0.87515   0.00000  Uiso   1.00
N413   N     0.25420   0.30529   0.29489   0.00000  Uiso   1.00
N414   N     0.98790   0.44992   0.99062   0.00000  Uiso   1.00
C415   C     0.71333   0.88061   0.68278   0.00000  Uiso   1.00
C416   C     0.66214   0.87256   0.68509   0.00000  Uiso   1.00
C417   C     0.61384   0.89272   0.66317   0.00000  Uiso   1.00
C418   C     0.57173   0.88091   0.66960   0.00000  Uiso   1.00
C419   C     0.49134   0.87312   0.66905   0.00000  Uiso   1.00
C420   C     0.77178   0.87685   0.75650   0.00000  Uiso   1.00
C421   C     0.81569   0.90060   0.79461   0.00000  Uiso   1.00
C422   C     0.86588   0.89239   0.86114   0.00000  Uiso   1.00
C423   C     0.45574   0.39125   0.97144   0.00000  Uiso   1.00
C424   C     0.71368   0.85346   0.64131   0.00000  Uiso   1.00
C425   C     0.70874   0.85756   0.58257   0.00000  Uiso   1.00
C426   C     0.71003   0.82966   0.55213   0.00000  Uiso   1.00
C427   C     0.70967   0.79221   0.48357   0.00000  Uiso   1.00
C428   C     0.72442   0.82377   0.73318   0.00000  Uiso   1.00
C429   C     0.66816   0.84169   0.71247   0.00000  Uiso   1.00
C430   C     0.62611   0.82985   0.71893   0.00000  Uiso   1.00
C431   C     0.57777   0.84998   0.69702   0.00000  Uiso   1.00
C432   C     0.77781   0.84598   0.78387   0.00000  Uiso   1.00
C433   C     0.82796   0.83773   0.85037   0.00000  Uiso   1.00
C434   C     0.87192   0.86147   0.88857   0.00000  Uiso   1.00
C435   C     0.71970   0.82259   0.66868   0.00000  Uiso   1.00
C436   C     0.72101   0.79468   0.63833   0.00000  Uiso   1.00
C437   C     0.71606   0.79874   0.57956   0.00000  Uiso   1.00
H438   H     0.70865   0.90464   0.66148   0.00000  Uiso   1.00
H439   H     0.60920   0.91661   0.64199   0.00000  Uiso   1.00
H440   H     0.81101   0.92449   0.77341   0.00000  Uiso   1.00
H441   H     0.70408   0.88145   0.56140   0.00000  Uiso   1.00
H442   H     0.50161   0.91628   0.63249   0.00000  Uiso   1.00
H443   H     0.42716   0.43289   0.90957   0.00000  Uiso   1.00
H444   H     0.70167   0.84213   0.46252   0.00000  Uiso   1.00
H445   H     0.72912   0.79974   0.75450   0.00000  Uiso   1.00
H446   H     0.63079   0.80596   0.74012   0.00000  Uiso   1.00
H447   H     0.83260   0.81384   0.87153   0.00000  Uiso   1.00
H448   H     0.72567   0.77080   0.65953   0.00000  Uiso   1.00
H449   H     0.51914   0.82647   0.71213   0.00000  Uiso   1.00
H450   H     0.94469   0.84308   0.98922   0.00000  Uiso   1.00
H451   H     0.71919   0.75232   0.54216   0.00000  Uiso   1.00
O452   O     0.44534   0.87736   0.66120   0.00000  Uiso   1.00
O453   O     0.50364   0.39915   0.02471   0.00000  Uiso   1.00
O454   O     0.70780   0.78008   0.43819   0.00000  Uiso   1.00
N455   N     0.51923   0.89428   0.65319   0.00000  Uiso   1.00
N456   N     0.91708   0.90981   0.91226   0.00000  Uiso   1.00
N457   N     0.70628   0.82497   0.49431   0.00000  Uiso   1.00
N458   N     0.52866   0.84596   0.69605   0.00000  Uiso   1.00
N459   N     0.92651   0.86149   0.95511   0.00000  Uiso   1.00
N460   N     0.71571   0.77664   0.53716   0.00000  Uiso   1.00
C461   C     0.63595   0.54253   0.83282   0.00000  Uiso   1.00
C462   C     0.60807   0.57465   0.79502   0.00000  Uiso   1.00
C463   C     0.57984   0.58034   0.72592   0.00000  Uiso   1.00
C464   C     0.55727   0.61138   0.70109   0.00000  Uiso   1.00
C465   C     0.51317   0.65754   0.63588   0.00000  Uiso   1.00
C466   C     0.70163   0.55003   0.89379   0.00000  Uiso   1.00
C467   C     0.75206   0.53502   0.90774   0.00000  Uiso   1.00
C468   C     0.80826   0.54533   0.96607   0.00000  Uiso   1.00
C469   C     0.90941   0.55325   0.05424   0.00000  Uiso   1.00
C470   C     0.60509   0.53375   0.86365   0.00000  Uiso   1.00
C471   C     0.57437   0.50505   0.85228   0.00000  Uiso   1.00
C472   C     0.54930   0.50165   0.88524   0.00000  Uiso   1.00
C473   C     0.50056   0.48429   0.92662   0.00000  Uiso   1.00
C474   C     0.64607   0.58753   0.91161   0.00000  Uiso   1.00
C475   C     0.61357   0.59909   0.83781   0.00000  Uiso   1.00
C476   C     0.59104   0.63013   0.81308   0.00000  Uiso   1.00
C477   C     0.56278   0.63586   0.74395   0.00000  Uiso   1.00
C478   C     0.70713   0.57447   0.93658   0.00000  Uiso   1.00
C479   C     0.76327   0.58480   0.99491   0.00000  Uiso   1.00
C480   C     0.81377   0.56981   0.00894   0.00000  Uiso   1.00
C481   C     0.61059   0.55819   0.90645   0.00000  Uiso   1.00
C482   C     0.58557   0.55483   0.93944   0.00000  Uiso   1.00
C483   C     0.55481   0.52613   0.92811   0.00000  Uiso   1.00
H484   H     0.63167   0.52350   0.79951   0.00000  Uiso   1.00
H485   H     0.57559   0.56142   0.69282   0.00000  Uiso   1.00
H486   H     0.74779   0.51610   0.87462   0.00000  Uiso   1.00
H487   H     0.57012   0.48614   0.81916   0.00000  Uiso   1.00
H488   H     0.51587   0.61424   0.59340   0.00000  Uiso   1.00
H489   H     0.87896   0.51868   0.97676   0.00000  Uiso   1.00
H490   H     0.50431   0.45549   0.85981   0.00000  Uiso   1.00
H491   H     0.65036   0.60656   0.94493   0.00000  Uiso   1.00
H492   H     0.59530   0.64904   0.84621   0.00000  Uiso   1.00
H493   H     0.76750   0.60372   0.02801   0.00000  Uiso   1.00
H494   H     0.58983   0.57375   0.97255   0.00000  Uiso   1.00
H495   H     0.53187   0.68536   0.71790   0.00000  Uiso   1.00
H496   H     0.89496   0.58979   0.10126   0.00000  Uiso   1.00
H497   H     0.52031   0.52661   0.98431   0.00000  Uiso   1.00
O498   O     0.48734   0.67625   0.58810   0.00000  Uiso   1.00
O499   O     0.96369   0.55086   0.09105   0.00000  Uiso   1.00
O500   O     0.47216   0.46797   0.93761   0.00000  Uiso   1.00
N501   N     0.52718   0.62515   0.63625   0.00000  Uiso   1.00
N502   N     0.86665   0.53580   0.99466   0.00000  Uiso   1.00
N503   N     0.51639   0.47673   0.88534   0.00000  Uiso   1.00
N504   N     0.53579   0.66341   0.70324   0.00000  Uiso   1.00
N505   N     0.87525   0.57407   0.06165   0.00000  Uiso   1.00
N506   N     0.52500   0.51499   0.95233   0.00000  Uiso   1.00
C507   C     0.50334   0.82455   0.09151   0.00000  Uiso   1.00
C508   C     0.48498   0.80170   0.03297   0.00000  Uiso   1.00
C509   C     0.43972   0.77839   0.00320   0.00000  Uiso   1.00
C510   C     0.42986   0.75993   0.95028   0.00000  Uiso   1.00
C511   C     0.39618   0.72373   0.86279   0.00000  Uiso   1.00
C512   C     0.57080   0.81901   0.14865   0.00000  Uiso   1.00
C513   C     0.59769   0.81025   0.21615   0.00000  Uiso   1.00
C514   C     0.66009   0.80635   0.26060   0.00000  Uiso   1.00
C515   C     0.75964   0.79704   0.35273   0.00000  Uiso   1.00
C516   C     0.49740   0.85886   0.06478   0.00000  Uiso   1.00
C517   C     0.46259   0.88362   0.06178   0.00000  Uiso   1.00
C518   C     0.46319   0.91329   0.03564   0.00000  Uiso   1.00
C519   C     0.44878   0.96586   0.99754   0.00000  Uiso   1.00
C520   C     0.56632   0.83321   0.05045   0.00000  Uiso   1.00
C521   C     0.51920   0.80641   0.01066   0.00000  Uiso   1.00
C522   C     0.50940   0.78798   0.95777   0.00000  Uiso   1.00
C523   C     0.46413   0.76464   0.92793   0.00000  Uiso   1.00
C524   C     0.60501   0.82371   0.12635   0.00000  Uiso   1.00
C525   C     0.66738   0.81984   0.17071   0.00000  Uiso   1.00
C526   C     0.69436   0.81107   0.23826   0.00000  Uiso   1.00
C527   C     0.53161   0.86357   0.04247   0.00000  Uiso   1.00
C528   C     0.53227   0.89321   0.01634   0.00000  Uiso   1.00
C529   C     0.49747   0.91800   0.01330   0.00000  Uiso   1.00
H530   H     0.47671   0.82088   0.10888   0.00000  Uiso   1.00
H531   H     0.41326   0.77475   0.02048   0.00000  Uiso   1.00
H532   H     0.57121   0.80661   0.23339   0.00000  Uiso   1.00
H533   H     0.43612   0.87997   0.07904   0.00000  Uiso   1.00
H534   H     0.35801   0.72568   0.91266   0.00000  Uiso   1.00
H535   H     0.69106   0.79286   0.36160   0.00000  Uiso   1.00
H536   H     0.40621   0.94755   0.03613   0.00000  Uiso   1.00
H537   H     0.59296   0.83688   0.03308   0.00000  Uiso   1.00
H538   H     0.53589   0.79163   0.94052   0.00000  Uiso   1.00
H539   H     0.69384   0.82348   0.15344   0.00000  Uiso   1.00
H540   H     0.55875   0.89684   0.99909   0.00000  Uiso   1.00
H541   H     0.45754   0.73937   0.84776   0.00000  Uiso   1.00
H542   H     0.79060   0.80655   0.29671   0.00000  Uiso   1.00
H543   H     0.50574   0.96125   0.97123   0.00000  Uiso   1.00
O544   O     0.36815   0.70246   0.82070   0.00000  Uiso   1.00
O545   O     0.80510   0.79060   0.40970   0.00000  Uiso   1.00
O546   O     0.43137   0.99356   0.98268   0.00000  Uiso   1.00
N547   N     0.38926   0.73512   0.91008   0.00000  Uiso   1.00
N548   N     0.70064   0.79792   0.32981   0.00000  Uiso   1.00
N549   N     0.43434   0.94255   0.02554   0.00000  Uiso   1.00
N550   N     0.44282   0.74249   0.87515   0.00000  Uiso   1.00
N551   N     0.75420   0.80529   0.29489   0.00000  Uiso   1.00
N552   N     0.48790   0.94992   0.99062   0.00000  Uiso   1.00
C553   C     0.21333   0.61939   0.18278   0.00000  Uiso   1.00
C554   C     0.16214   0.62744   0.18509   0.00000  Uiso   1.00
C555   C     0.11384   0.60728   0.16317   0.00000  Uiso   1.00
C556   C     0.07173   0.61909   0.16960   0.00000  Uiso   1.00
C557   C     0.99134   0.62688   0.16905   0.00000  Uiso   1.00
C558   C     0.27178   0.62315   0.25650   0.00000  Uiso   1.00
C559   C     0.31569   0.59940   0.29461   0.00000  Uiso   1.00
C560   C     0.36588   0.60761   0.36114   0.00000  Uiso   1.00
C561   C     0.95574   0.10875   0.47144   0.00000  Uiso   1.00
C562   C     0.21368   0.64654   0.14131   0.00000  Uiso   1.00
C563   C     0.20874   0.64244   0.08257   0.00000  Uiso   1.00
C564   C     0.21003   0.67034   0.05213   0.00000  Uiso   1.00
C565   C     0.20967   0.70779   0.98357   0.00000  Uiso   1.00
C566   C     0.22442   0.67623   0.23318   0.00000  Uiso   1.00
C567   C     0.16816   0.65831   0.21247   0.00000  Uiso   1.00
C568   C     0.12611   0.67015   0.21893   0.00000  Uiso   1.00
C569   C     0.07777   0.65002   0.19702   0.00000  Uiso   1.00
C570   C     0.27781   0.65402   0.28387   0.00000  Uiso   1.00
C571   C     0.32796   0.66227   0.35037   0.00000  Uiso   1.00
C572   C     0.37192   0.63853   0.38857   0.00000  Uiso   1.00
C573   C     0.21970   0.67741   0.16868   0.00000  Uiso   1.00
C574   C     0.22101   0.70532   0.13833   0.00000  Uiso   1.00
C575   C     0.21606   0.70126   0.07956   0.00000  Uiso   1.00
H576   H     0.20865   0.59536   0.16148   0.00000  Uiso   1.00
H577   H     0.10920   0.58339   0.14199   0.00000  Uiso   1.00
H578   H     0.31101   0.57551   0.27341   0.00000  Uiso   1.00
H579   H     0.20408   0.61855   0.06140   0.00000  Uiso   1.00
H580   H     0.00161   0.58372   0.13249   0.00000  Uiso   1.00
H581   H     0.92716   0.06711   0.40957   0.00000  Uiso   1.00
H582   H     0.20167   0.65787   0.96252   0.00000  Uiso   1.00
H583   H     0.22912   0.70026   0.25450   0.00000  Uiso   1.00
H584   H     0.13079   0.69404   0.24012   0.00000  Uiso   1.00
H585   H     0.33260   0.68616   0.37153   0.00000  Uiso   1.00
H586   H     0.22567   0.72920   0.15953   0.00000  Uiso   1.00
H587   H     0.01914   0.67353   0.21213   0.00000  Uiso   1.00
H588   H     0.44469   0.65692   0.48922   0.00000  Uiso   1.00
H589   H     0.21919   0.74768   0.04216   0.00000  Uiso   1.00
O590   O     0.94534   0.62264   0.16120   0.00000  Uiso   1.00
O591   O     0.00364   0.10085   0.52471   0.00000  Uiso   1.00
O592   O     0.20780   0.71992   0.93819   0.00000  Uiso   1.00
N593   N     0.01923   0.60572   0.15319   0.00000  Uiso   1.00
N594   N     0.41708   0.59019   0.41226   0.00000  Uiso   1.00
N595   N     0.20628   0.67503   0.99431   0.00000  Uiso   1.00
N596   N     0.02866   0.65404   0.19605   0.00000  Uiso   1.00
N597   N     0.42651   0.63851   0.45511   0.00000  Uiso   1.00
N598   N     0.21571   0.72336   0.03716   0.00000  Uiso   1.00
C599   C     0.13595   0.95747   0.33282   0.00000  Uiso   1.00
C600   C     0.10807   0.92535   0.29502   0.00000  Uiso   1.00
C601   C     0.07984   0.91966   0.22592   0.00000  Uiso   1.00
C602   C     0.05727   0.88862   0.20109   0.00000  Uiso   1.00
C603   C     0.01317   0.84246   0.13588   0.00000  Uiso   1.00
C604   C     0.20163   0.94997   0.39379   0.00000  Uiso   1.00
C605   C     0.25206   0.96498   0.40774   0.00000  Uiso   1.00
C606   C     0.30826   0.95467   0.46607   0.00000  Uiso   1.00
C607   C     0.40941   0.94675   0.55424   0.00000  Uiso   1.00
C608   C     0.10509   0.96625   0.36365   0.00000  Uiso   1.00
C609   C     0.07437   0.99495   0.35228   0.00000  Uiso   1.00
C610   C     0.04930   0.99835   0.38524   0.00000  Uiso   1.00
C611   C     0.00056   0.01571   0.42662   0.00000  Uiso   1.00
C612   C     0.14607   0.91247   0.41161   0.00000  Uiso   1.00
C613   C     0.11357   0.90091   0.33781   0.00000  Uiso   1.00
C614   C     0.09104   0.86987   0.31308   0.00000  Uiso   1.00
C615   C     0.06278   0.86414   0.24395   0.00000  Uiso   1.00
C616   C     0.20713   0.92553   0.43658   0.00000  Uiso   1.00
C617   C     0.26327   0.91520   0.49491   0.00000  Uiso   1.00
C618   C     0.31377   0.93019   0.50894   0.00000  Uiso   1.00
C619   C     0.11059   0.94181   0.40645   0.00000  Uiso   1.00
C620   C     0.08557   0.94517   0.43944   0.00000  Uiso   1.00
C621   C     0.05481   0.97387   0.42811   0.00000  Uiso   1.00
H622   H     0.13167   0.97650   0.29951   0.00000  Uiso   1.00
H623   H     0.07559   0.93858   0.19282   0.00000  Uiso   1.00
H624   H     0.24779   0.98390   0.37462   0.00000  Uiso   1.00
H625   H     0.07012   0.01386   0.31916   0.00000  Uiso   1.00
H626   H     0.01587   0.88576   0.09340   0.00000  Uiso   1.00
H627   H     0.37896   0.98132   0.47676   0.00000  Uiso   1.00
H628   H     0.00431   0.04451   0.35981   0.00000  Uiso   1.00
H629   H     0.15036   0.89344   0.44493   0.00000  Uiso   1.00
H630   H     0.09530   0.85096   0.34621   0.00000  Uiso   1.00
H631   H     0.26750   0.89628   0.52801   0.00000  Uiso   1.00
H632   H     0.08983   0.92625   0.47255   0.00000  Uiso   1.00
H633   H     0.03187   0.81464   0.21790   0.00000  Uiso   1.00
H634   H     0.39496   0.91021   0.60126   0.00000  Uiso   1.00
H635   H     0.02031   0.97339   0.48431   0.00000  Uiso   1.00
O636   O     0.98734   0.82375   0.08810   0.00000  Uiso   1.00
O637   O     0.46369   0.94914   0.59105   0.00000  Uiso   1.00
O638   O     0.97216   0.03203   0.43761   0.00000  Uiso   1.00
N639   N     0.02718   0.87485   0.13625   0.00000  Uiso   1.00
N640   N     0.36665   0.96420   0.49466   0.00000  Uiso   1.00
N641   N     0.01639   0.02327   0.38534   0.00000  Uiso   1.00
N642   N     0.03579   0.83659   0.20324   0.00000  Uiso   1.00
N643   N     0.37525   0.92593   0.56165   0.00000  Uiso   1.00
N644   N     0.02500   0.98501   0.45233   0.00000  Uiso   1.00
C645   C     0.00334   0.67545   0.59151   0.00000  Uiso   1.00
C646   C     0.98498   0.69830   0.53297   0.00000  Uiso   1.00
C647   C     0.93972   0.72161   0.50320   0.00000  Uiso   1.00
C648   C     0.92986   0.74007   0.45028   0.00000  Uiso   1.00
C649   C     0.89618   0.77627   0.36279   0.00000  Uiso   1.00
C650   C     0.07080   0.68099   0.64865   0.00000  Uiso   1.00
C651   C     0.09769   0.68975   0.71615   0.00000  Uiso   1.00
C652   C     0.16009   0.69365   0.76060   0.00000  Uiso   1.00
C653   C     0.25964   0.70296   0.85273   0.00000  Uiso   1.00
C654   C     0.99740   0.64114   0.56478   0.00000  Uiso   1.00
C655   C     0.96259   0.61638   0.56178   0.00000  Uiso   1.00
C656   C     0.96319   0.58671   0.53564   0.00000  Uiso   1.00
C657   C     0.94878   0.53414   0.49754   0.00000  Uiso   1.00
C658   C     0.06632   0.66679   0.55045   0.00000  Uiso   1.00
C659   C     0.01920   0.69359   0.51066   0.00000  Uiso   1.00
C660   C     0.00940   0.71202   0.45777   0.00000  Uiso   1.00
C661   C     0.96413   0.73536   0.42793   0.00000  Uiso   1.00
C662   C     0.10501   0.67629   0.62635   0.00000  Uiso   1.00
C663   C     0.16738   0.68016   0.67071   0.00000  Uiso   1.00
C664   C     0.19436   0.68893   0.73826   0.00000  Uiso   1.00
C665   C     0.03161   0.63643   0.54247   0.00000  Uiso   1.00
C666   C     0.03227   0.60679   0.51634   0.00000  Uiso   1.00
C667   C     0.99747   0.58200   0.51330   0.00000  Uiso   1.00
H668   H     0.97671   0.67912   0.60888   0.00000  Uiso   1.00
H669   H     0.91326   0.72525   0.52048   0.00000  Uiso   1.00
H670   H     0.07121   0.69339   0.73339   0.00000  Uiso   1.00
H671   H     0.93612   0.62003   0.57904   0.00000  Uiso   1.00
H672   H     0.85801   0.77432   0.41266   0.00000  Uiso   1.00
H673   H     0.19106   0.70714   0.86160   0.00000  Uiso   1.00
H674   H     0.90621   0.55245   0.53613   0.00000  Uiso   1.00
H675   H     0.09296   0.66312   0.53308   0.00000  Uiso   1.00
H676   H     0.03589   0.70837   0.44052   0.00000  Uiso   1.00
H677   H     0.19384   0.67652   0.65344   0.00000  Uiso   1.00
H678   H     0.05875   0.60316   0.49909   0.00000  Uiso   1.00
H679   H     0.95754   0.76063   0.34776   0.00000  Uiso   1.00
H680   H     0.29060   0.69345   0.79671   0.00000  Uiso   1.00
H681   H     0.00574   0.53875   0.47123   0.00000  Uiso   1.00
O682   O     0.86815   0.79754   0.32070   0.00000  Uiso   1.00
O683   O     0.30510   0.70940   0.90970   0.00000  Uiso   1.00
O684   O     0.93137   0.50644   0.48268   0.00000  Uiso   1.00
N685   N     0.88926   0.76488   0.41008   0.00000  Uiso   1.00
N686   N     0.20064   0.70208   0.82981   0.00000  Uiso   1.00
N687   N     0.93434   0.55745   0.52554   0.00000  Uiso   1.00
N688   N     0.94282   0.75751   0.37515   0.00000  Uiso   1.00
N689   N     0.25420   0.69471   0.79489   0.00000  Uiso   1.00
N690   N     0.98790   0.55008   0.49062   0.00000  Uiso   1.00
C691   C     0.71333   0.11939   0.18278   0.00000  Uiso   1.00
C692   C     0.66214   0.12744   0.18509   0.00000  Uiso   1.00
C693   C     0.61384   0.10728   0.16317   0.00000  Uiso   1.00
C694   C     0.57173   0.11909   0.16960   0.00000  Uiso   1.00
C695   C     0.49134   0.12688   0.16905   0.00000  Uiso   1.00
C696   C     0.77178   0.12315   0.25650   0.00000  Uiso   1.00
C697   C     0.81569   0.09940   0.29461   0.00000  Uiso   1.00
C698   C     0.86588   0.10761   0.36114   0.00000  Uiso   1.00
C699   C     0.45574   0.60875   0.47144   0.00000  Uiso   1.00
C700   C     0.71368   0.14654   0.14131   0.00000  Uiso   1.00
C701   C     0.70874   0.14244   0.08257   0.00000  Uiso   1.00
C702   C     0.71003   0.17034   0.05213   0.00000  Uiso   1.00
C703   C     0.70967   0.20779   0.98357   0.00000  Uiso   1.00
C704   C     0.72442   0.17623   0.23318   0.00000  Uiso   1.00
C705   C     0.66816   0.15831   0.21247   0.00000  Uiso   1.00
C706   C     0.62611   0.17015   0.21893   0.00000  Uiso   1.00
C707   C     0.57777   0.15002   0.19702   0.00000  Uiso   1.00
C708   C     0.77781   0.15402   0.28387   0.00000  Uiso   1.00
C709   C     0.82796   0.16227   0.35037   0.00000  Uiso   1.00
C710   C     0.87192   0.13853   0.38857   0.00000  Uiso   1.00
C711   C     0.71970   0.17741   0.16868   0.00000  Uiso   1.00
C712   C     0.72101   0.20532   0.13833   0.00000  Uiso   1.00
C713   C     0.71606   0.20126   0.07956   0.00000  Uiso   1.00
H714   H     0.70865   0.09536   0.16148   0.00000  Uiso   1.00
H715   H     0.60920   0.08339   0.14199   0.00000  Uiso   1.00
H716   H     0.81101   0.07551   0.27341   0.00000  Uiso   1.00
H717   H     0.70408   0.11855   0.06140   0.00000  Uiso   1.00
H718   H     0.50161   0.08372   0.13249   0.00000  Uiso   1.00
H719   H     0.42716   0.56711   0.40957   0.00000  Uiso   1.00
H720   H     0.70167   0.15787   0.96252   0.00000  Uiso   1.00
H721   H     0.72912   0.20026   0.25450   0.00000  Uiso   1.00
H722   H     0.63079   0.19404   0.24012   0.00000  Uiso   1.00
H723   H     0.83260   0.18616   0.37153   0.00000  Uiso   1.00
H724   H     0.72567   0.22920   0.15953   0.00000  Uiso   1.00
H725   H     0.51914   0.17353   0.21213   0.00000  Uiso   1.00
H726   H     0.94469   0.15692   0.48922   0.00000  Uiso   1.00
H727   H     0.71919   0.24768   0.04216   0.00000  Uiso   1.00
O728   O     0.44534   0.12264   0.16120   0.00000  Uiso   1.00
O729   O     0.50364   0.60085   0.52471   0.00000  Uiso   1.00
O730   O     0.70780   0.21992   0.93819   0.00000  Uiso   1.00
N731   N     0.51923   0.10572   0.15319   0.00000  Uiso   1.00
N732   N     0.91708   0.09019   0.41226   0.00000  Uiso   1.00
N733   N     0.70628   0.17503   0.99431   0.00000  Uiso   1.00
N734   N     0.52866   0.15404   0.19605   0.00000  Uiso   1.00
N735   N     0.92651   0.13851   0.45511   0.00000  Uiso   1.00
N736   N     0.71571   0.22336   0.03716   0.00000  Uiso   1.00
C737   C     0.63595   0.45747   0.33282   0.00000  Uiso   1.00
C738   C     0.60807   0.42535   0.29502   0.00000  Uiso   1.00
C739   C     0.57984   0.41966   0.22592   0.00000  Uiso   1.00
C740   C     0.55727   0.38862   0.20109   0.00000  Uiso   1.00
C741   C     0.51317   0.34246   0.13588   0.00000  Uiso   1.00
C742   C     0.70163   0.44997   0.39379   0.00000  Uiso   1.00
C743   C     0.75206   0.46498   0.40774   0.00000  Uiso   1.00
C744   C     0.80826   0.45467   0.46607   0.00000  Uiso   1.00
C745   C     0.90941   0.44675   0.55424   0.00000  Uiso   1.00
C746   C     0.60509   0.46625   0.36365   0.00000  Uiso   1.00
C747   C     0.57437   0.49495   0.35228   0.00000  Uiso   1.00
C748   C     0.54930   0.49835   0.38524   0.00000  Uiso   1.00
C749   C     0.50056   0.51571   0.42662   0.00000  Uiso   1.00
C750   C     0.64607   0.41247   0.41161   0.00000  Uiso   1.00
C751   C     0.61357   0.40091   0.33781   0.00000  Uiso   1.00
C752   C     0.59104   0.36987   0.31308   0.00000  Uiso   1.00
C753   C     0.56278   0.36414   0.24395   0.00000  Uiso   1.00
C754   C     0.70713   0.42553   0.43658   0.00000  Uiso   1.00
C755   C     0.76327   0.41520   0.49491   0.00000  Uiso   1.00
C756   C     0.81377   0.43019   0.50894   0.00000  Uiso   1.00
C757   C     0.61059   0.44181   0.40645   0.00000  Uiso   1.00
C758   C     0.58557   0.44517   0.43944   0.00000  Uiso   1.00
C759   C     0.55481   0.47387   0.42811   0.00000  Uiso   1.00
H760   H     0.63167   0.47650   0.29951   0.00000  Uiso   1.00
H761   H     0.57559   0.43858   0.19282   0.00000  Uiso   1.00
H762   H     0.74779   0.48390   0.37462   0.00000  Uiso   1.00
H763   H     0.57012   0.51386   0.31916   0.00000  Uiso   1.00
H764   H     0.51587   0.38576   0.09340   0.00000  Uiso   1.00
H765   H     0.87896   0.48132   0.47676   0.00000  Uiso   1.00
H766   H     0.50431   0.54451   0.35981   0.00000  Uiso   1.00
H767   H     0.65036   0.39344   0.44493   0.00000  Uiso   1.00
H768   H     0.59530   0.35096   0.34621   0.00000  Uiso   1.00
H769   H     0.76750   0.39628   0.52801   0.00000  Uiso   1.00
H770   H     0.58983   0.42625   0.47255   0.00000  Uiso   1.00
H771   H     0.53187   0.31464   0.21790   0.00000  Uiso   1.00
H772   H     0.89496   0.41021   0.60126   0.00000  Uiso   1.00
H773   H     0.52031   0.47339   0.48431   0.00000  Uiso   1.00
O774   O     0.48734   0.32375   0.08810   0.00000  Uiso   1.00
O775   O     0.96369   0.44914   0.59105   0.00000  Uiso   1.00
O776   O     0.47216   0.53203   0.43761   0.00000  Uiso   1.00
N777   N     0.52718   0.37485   0.13625   0.00000  Uiso   1.00
N778   N     0.86665   0.46420   0.49466   0.00000  Uiso   1.00
N779   N     0.51639   0.52327   0.38534   0.00000  Uiso   1.00
N780   N     0.53579   0.33659   0.20324   0.00000  Uiso   1.00
N781   N     0.87525   0.42593   0.56165   0.00000  Uiso   1.00
N782   N     0.52500   0.48501   0.45233   0.00000  Uiso   1.00
C783   C     0.50334   0.17545   0.59151   0.00000  Uiso   1.00
C784   C     0.48498   0.19830   0.53297   0.00000  Uiso   1.00
C785   C     0.43972   0.22161   0.50320   0.00000  Uiso   1.00
C786   C     0.42986   0.24007   0.45028   0.00000  Uiso   1.00
C787   C     0.39618   0.27627   0.36279   0.00000  Uiso   1.00
C788   C     0.57080   0.18099   0.64865   0.00000  Uiso   1.00
C789   C     0.59769   0.18975   0.71615   0.00000  Uiso   1.00
C790   C     0.66009   0.19365   0.76060   0.00000  Uiso   1.00
C791   C     0.75964   0.20296   0.85273   0.00000  Uiso   1.00
C792   C     0.49740   0.14114   0.56478   0.00000  Uiso   1.00
C793   C     0.46259   0.11638   0.56178   0.00000  Uiso   1.00
C794   C     0.46319   0.08671   0.53564   0.00000  Uiso   1.00
C795   C     0.44878   0.03414   0.49754   0.00000  Uiso   1.00
C796   C     0.56632   0.16679   0.55045   0.00000  Uiso   1.00
C797   C     0.51920   0.19359   0.51066   0.00000  Uiso   1.00
C798   C     0.50940   0.21202   0.45777   0.00000  Uiso   1.00
C799   C     0.46413   0.23536   0.42793   0.00000  Uiso   1.00
C800   C     0.60501   0.17629   0.62635   0.00000  Uiso   1.00
C801   C     0.66738   0.18016   0.67071   0.00000  Uiso   1.00
C802   C     0.69436   0.18893   0.73826   0.00000  Uiso   1.00
C803   C     0.53161   0.13643   0.54247   0.00000  Uiso   1.00
C804   C     0.53227   0.10679   0.51634   0.00000  Uiso   1.00
C805   C     0.49747   0.08200   0.51330   0.00000  Uiso   1.00
H806   H     0.47671   0.17912   0.60888   0.00000  Uiso   1.00
H807   H     0.41326   0.22525   0.52048   0.00000  Uiso   1.00
H808   H     0.57121   0.19339   0.73339   0.00000  Uiso   1.00
H809   H     0.43612   0.12003   0.57904   0.00000  Uiso   1.00
H810   H     0.35801   0.27432   0.41266   0.00000  Uiso   1.00
H811   H     0.69106   0.20714   0.86160   0.00000  Uiso   1.00
H812   H     0.40621   0.05245   0.53613   0.00000  Uiso   1.00
H813   H     0.59296   0.16312   0.53308   0.00000  Uiso   1.00
H814   H     0.53589   0.20837   0.44052   0.00000  Uiso   1.00
H815   H     0.69384   0.17652   0.65344   0.00000  Uiso   1.00
H816   H     0.55875   0.10316   0.49909   0.00000  Uiso   1.00
H817   H     0.45754   0.26063   0.34776   0.00000  Uiso   1.00
H818   H     0.79060   0.19345   0.79671   0.00000  Uiso   1.00
H819   H     0.50574   0.03875   0.47123   0.00000  Uiso   1.00
O820   O     0.36815   0.29754   0.32070   0.00000  Uiso   1.00
O821   O     0.80510   0.20940   0.90970   0.00000  Uiso   1.00
O822   O     0.43137   0.00644   0.48268   0.00000  Uiso   1.00
N823   N     0.38926   0.26488   0.41008   0.00000  Uiso   1.00
N824   N     0.70064   0.20208   0.82981   0.00000  Uiso   1.00
N825   N     0.43434   0.05745   0.52554   0.00000  Uiso   1.00
N826   N     0.44282   0.25751   0.37515   0.00000  Uiso   1.00
N827   N     0.75420   0.19471   0.79489   0.00000  Uiso   1.00
N828   N     0.48790   0.05008   0.49062   0.00000  Uiso   1.00
C829   C     0.78667   0.61939   0.31722   0.00000  Uiso   1.00
C830   C     0.83786   0.62744   0.31491   0.00000  Uiso   1.00
C831   C     0.88616   0.60728   0.33683   0.00000  Uiso   1.00
C832   C     0.92827   0.61909   0.33040   0.00000  Uiso   1.00
C833   C     0.00866   0.62688   0.33095   0.00000  Uiso   1.00
C834   C     0.72822   0.62315   0.24350   0.00000  Uiso   1.00
C835   C     0.68431   0.59940   0.20539   0.00000  Uiso   1.00
C836   C     0.63412   0.60761   0.13886   0.00000  Uiso   1.00
C837   C     0.04426   0.10875   0.02856   0.00000  Uiso   1.00
C838   C     0.78632   0.64654   0.35869   0.00000  Uiso   1.00
C839   C     0.79126   0.64244   0.41743   0.00000  Uiso   1.00
C840   C     0.78997   0.67034   0.44787   0.00000  Uiso   1.00
C841   C     0.79033   0.70779   0.51643   0.00000  Uiso   1.00
C842   C     0.77558   0.67623   0.26682   0.00000  Uiso   1.00
C843   C     0.83184   0.65831   0.28753   0.00000  Uiso   1.00
C844   C     0.87389   0.67015   0.28107   0.00000  Uiso   1.00
C845   C     0.92223   0.65002   0.30298   0.00000  Uiso   1.00
C846   C     0.72219   0.65402   0.21613   0.00000  Uiso   1.00
C847   C     0.67204   0.66227   0.14963   0.00000  Uiso   1.00
C848   C     0.62808   0.63853   0.11143   0.00000  Uiso   1.00
C849   C     0.78030   0.67741   0.33132   0.00000  Uiso   1.00
C850   C     0.77899   0.70532   0.36167   0.00000  Uiso   1.00
C851   C     0.78394   0.70126   0.42044   0.00000  Uiso   1.00
H852   H     0.79135   0.59536   0.33852   0.00000  Uiso   1.00
H853   H     0.89080   0.58339   0.35801   0.00000  Uiso   1.00
H854   H     0.68899   0.57551   0.22659   0.00000  Uiso   1.00
H855   H     0.79592   0.61855   0.43860   0.00000  Uiso   1.00
H856   H     0.99839   0.58372   0.36751   0.00000  Uiso   1.00
H857   H     0.07284   0.06711   0.09043   0.00000  Uiso   1.00
H858   H     0.79833   0.65787   0.53748   0.00000  Uiso   1.00
H859   H     0.77088   0.70026   0.24550   0.00000  Uiso   1.00
H860   H     0.86921   0.69404   0.25988   0.00000  Uiso   1.00
H861   H     0.66740   0.68616   0.12847   0.00000  Uiso   1.00
H862   H     0.77433   0.72920   0.34047   0.00000  Uiso   1.00
H863   H     0.98086   0.67353   0.28787   0.00000  Uiso   1.00
H864   H     0.55531   0.65692   0.01078   0.00000  Uiso   1.00
H865   H     0.78081   0.74768   0.45784   0.00000  Uiso   1.00
O866   O     0.05466   0.62264   0.33880   0.00000  Uiso   1.00
O867   O     0.99636   0.10085   0.97529   0.00000  Uiso   1.00
O868   O     0.79220   0.71992   0.56181   0.00000  Uiso   1.00
N869   N     0.98077   0.60572   0.34681   0.00000  Uiso   1.00
N870   N     0.58292   0.59019   0.08774   0.00000  Uiso   1.00
N871   N     0.79372   0.67503   0.50569   0.00000  Uiso   1.00
N872   N     0.97134   0.65404   0.30395   0.00000  Uiso   1.00
N873   N     0.57349   0.63851   0.04489   0.00000  Uiso   1.00
N874   N     0.78429   0.72336   0.46284   0.00000  Uiso   1.00
C875   C     0.86405   0.95747   0.16718   0.00000  Uiso   1.00
C876   C     0.89193   0.92535   0.20498   0.00000  Uiso   1.00
C877   C     0.92016   0.91966   0.27408   0.00000  Uiso   1.00
C878   C     0.94273   0.88862   0.29891   0.00000  Uiso   1.00
C879   C     0.98683   0.84246   0.36412   0.00000  Uiso   1.00
C880   C     0.79837   0.94997   0.10621   0.00000  Uiso   1.00
C881   C     0.74794   0.96498   0.09226   0.00000  Uiso   1.00
C882   C     0.69174   0.95467   0.03393   0.00000  Uiso   1.00
C883   C     0.59059   0.94675   0.94576   0.00000  Uiso   1.00
C884   C     0.89491   0.96625   0.13635   0.00000  Uiso   1.00
C885   C     0.92563   0.99495   0.14772   0.00000  Uiso   1.00
C886   C     0.95070   0.99835   0.11476   0.00000  Uiso   1.00
C887   C     0.99944   0.01571   0.07338   0.00000  Uiso   1.00
C888   C     0.85393   0.91247   0.08839   0.00000  Uiso   1.00
C889   C     0.88643   0.90091   0.16219   0.00000  Uiso   1.00
C890   C     0.90896   0.86987   0.18692   0.00000  Uiso   1.00
C891   C     0.93722   0.86414   0.25605   0.00000  Uiso   1.00
C892   C     0.79287   0.92553   0.06342   0.00000  Uiso   1.00
C893   C     0.73673   0.91520   0.00509   0.00000  Uiso   1.00
C894   C     0.68623   0.93019   0.99106   0.00000  Uiso   1.00
C895   C     0.88941   0.94181   0.09355   0.00000  Uiso   1.00
C896   C     0.91443   0.94517   0.06056   0.00000  Uiso   1.00
C897   C     0.94519   0.97387   0.07189   0.00000  Uiso   1.00
H898   H     0.86833   0.97650   0.20049   0.00000  Uiso   1.00
H899   H     0.92441   0.93858   0.30718   0.00000  Uiso   1.00
H900   H     0.75221   0.98390   0.12538   0.00000  Uiso   1.00
H901   H     0.92988   0.01386   0.18084   0.00000  Uiso   1.00
H902   H     0.98413   0.88576   0.40660   0.00000  Uiso   1.00
H903   H     0.62104   0.98132   0.02324   0.00000  Uiso   1.00
H904   H     0.99569   0.04451   0.14019   0.00000  Uiso   1.00
H905   H     0.84964   0.89344   0.05507   0.00000  Uiso   1.00
H906   H     0.90470   0.85096   0.15379   0.00000  Uiso   1.00
H907   H     0.73250   0.89628   0.97199   0.00000  Uiso   1.00
H908   H     0.91017   0.92625   0.02745   0.00000  Uiso   1.00
H909   H     0.96813   0.81464   0.28210   0.00000  Uiso   1.00
H910   H     0.60504   0.91021   0.89874   0.00000  Uiso   1.00
H911   H     0.97969   0.97339   0.01569   0.00000  Uiso   1.00
O912   O     0.01266   0.82375   0.41190   0.00000  Uiso   1.00
O913   O     0.53631   0.94914   0.90895   0.00000  Uiso   1.00
O914   O     0.02784   0.03203   0.06239   0.00000  Uiso   1.00
N915   N     0.97282   0.87485   0.36375   0.00000  Uiso   1.00
N916   N     0.63335   0.96420   0.00534   0.00000  Uiso   1.00
N917   N     0.98361   0.02327   0.11466   0.00000  Uiso   1.00
N918   N     0.96421   0.83659   0.29676   0.00000  Uiso   1.00
N919   N     0.62475   0.92593   0.93835   0.00000  Uiso   1.00
N920   N     0.97500   0.98501   0.04767   0.00000  Uiso   1.00
C921   C     0.99666   0.67545   0.90849   0.00000  Uiso   1.00
C922   C     0.01502   0.69830   0.96703   0.00000  Uiso   1.00
C923   C     0.06028   0.72161   0.99680   0.00000  Uiso   1.00
C924   C     0.07014   0.74007   0.04972   0.00000  Uiso   1.00
C925   C     0.10382   0.77627   0.13721   0.00000  Uiso   1.00
C926   C     0.92920   0.68099   0.85135   0.00000  Uiso   1.00
C927   C     0.90231   0.68975   0.78385   0.00000  Uiso   1.00
C928   C     0.83991   0.69365   0.73940   0.00000  Uiso   1.00
C929   C     0.74036   0.70296   0.64727   0.00000  Uiso   1.00
C930   C     0.00260   0.64114   0.93522   0.00000  Uiso   1.00
C931   C     0.03741   0.61638   0.93822   0.00000  Uiso   1.00
C932   C     0.03681   0.58671   0.96436   0.00000  Uiso   1.00
C933   C     0.05122   0.53414   0.00246   0.00000  Uiso   1.00
C934   C     0.93368   0.66679   0.94955   0.00000  Uiso   1.00
C935   C     0.98080   0.69359   0.98934   0.00000  Uiso   1.00
C936   C     0.99060   0.71202   0.04223   0.00000  Uiso   1.00
C937   C     0.03587   0.73536   0.07207   0.00000  Uiso   1.00
C938   C     0.89499   0.67629   0.87365   0.00000  Uiso   1.00
C939   C     0.83262   0.68016   0.82929   0.00000  Uiso   1.00
C940   C     0.80564   0.68893   0.76174   0.00000  Uiso   1.00
C941   C     0.96839   0.63643   0.95753   0.00000  Uiso   1.00
C942   C     0.96773   0.60679   0.98366   0.00000  Uiso   1.00
C943   C     0.00253   0.58200   0.98670   0.00000  Uiso   1.00
H944   H     0.02329   0.67912   0.89112   0.00000  Uiso   1.00
H945   H     0.08674   0.72525   0.97952   0.00000  Uiso   1.00
H946   H     0.92879   0.69339   0.76661   0.00000  Uiso   1.00
H947   H     0.06388   0.62003   0.92096   0.00000  Uiso   1.00
H948   H     0.14199   0.77432   0.08734   0.00000  Uiso   1.00
H949   H     0.80894   0.70714   0.63840   0.00000  Uiso   1.00
H950   H     0.09379   0.55245   0.96387   0.00000  Uiso   1.00
H951   H     0.90704   0.66312   0.96692   0.00000  Uiso   1.00
H952   H     0.96411   0.70837   0.05948   0.00000  Uiso   1.00
H953   H     0.80616   0.67652   0.84656   0.00000  Uiso   1.00
H954   H     0.94125   0.60316   0.00091   0.00000  Uiso   1.00
H955   H     0.04246   0.76063   0.15224   0.00000  Uiso   1.00
H956   H     0.70940   0.69345   0.70329   0.00000  Uiso   1.00
H957   H     0.99426   0.53875   0.02877   0.00000  Uiso   1.00
O958   O     0.13185   0.79754   0.17930   0.00000  Uiso   1.00
O959   O     0.69490   0.70940   0.59030   0.00000  Uiso   1.00
O960   O     0.06863   0.50644   0.01732   0.00000  Uiso   1.00
N961   N     0.11074   0.76488   0.08992   0.00000  Uiso   1.00
N962   N     0.79936   0.70208   0.67019   0.00000  Uiso   1.00
N963   N     0.06566   0.55745   0.97446   0.00000  Uiso   1.00
N964   N     0.05718   0.75751   0.12485   0.00000  Uiso   1.00
N965   N     0.74580   0.69471   0.70511   0.00000  Uiso   1.00
N966   N     0.01210   0.55008   0.00938   0.00000  Uiso   1.00
C967   C     0.28667   0.11939   0.31722   0.00000  Uiso   1.00
C968   C     0.33786   0.12744   0.31491   0.00000  Uiso   1.00
C969   C     0.38616   0.10728   0.33683   0.00000  Uiso   1.00
C970   C     0.42827   0.11909   0.33040   0.00000  Uiso   1.00
C971   C     0.50866   0.12688   0.33095   0.00000  Uiso   1.00
C972   C     0.22822   0.12315   0.24350   0.00000  Uiso   1.00
C973   C     0.18431   0.09940   0.20539   0.00000  Uiso   1.00
C974   C     0.13412   0.10761   0.13886   0.00000  Uiso   1.00
C975   C     0.54426   0.60875   0.02856   0.00000  Uiso   1.00
C976   C     0.28632   0.14654   0.35869   0.00000  Uiso   1.00
C977   C     0.29126   0.14244   0.41743   0.00000  Uiso   1.00
C978   C     0.28997   0.17034   0.44787   0.00000  Uiso   1.00
C979   C     0.29033   0.20779   0.51643   0.00000  Uiso   1.00
C980   C     0.27558   0.17623   0.26682   0.00000  Uiso   1.00
C981   C     0.33184   0.15831   0.28753   0.00000  Uiso   1.00
C982   C     0.37389   0.17015   0.28107   0.00000  Uiso   1.00
C983   C     0.42223   0.15002   0.30298   0.00000  Uiso   1.00
C984   C     0.22219   0.15402   0.21613   0.00000  Uiso   1.00
C985   C     0.17204   0.16227   0.14963   0.00000  Uiso   1.00
C986   C     0.12808   0.13853   0.11143   0.00000  Uiso   1.00
C987   C     0.28030   0.17741   0.33132   0.00000  Uiso   1.00
C988   C     0.27899   0.20532   0.36167   0.00000  Uiso   1.00
C989   C     0.28394   0.20126   0.42044   0.00000  Uiso   1.00
H990   H     0.29135   0.09536   0.33852   0.00000  Uiso   1.00
H991   H     0.39080   0.08339   0.35801   0.00000  Uiso   1.00
H992   H     0.18899   0.07551   0.22659   0.00000  Uiso   1.00
H993   H     0.29592   0.11855   0.43860   0.00000  Uiso   1.00
H994   H     0.49839   0.08372   0.36751   0.00000  Uiso   1.00
H995   H     0.57284   0.56711   0.09043   0.00000  Uiso   1.00
H996   H     0.29833   0.15787   0.53748   0.00000  Uiso   1.00
H997   H     0.27088   0.20026   0.24550   0.00000  Uiso   1.00
H998   H     0.36921   0.19404   0.25988   0.00000  Uiso   1.00
H999   H     0.16740   0.18616   0.12847   0.00000  Uiso   1.00
H1000  H     0.27433   0.22920   0.34047   0.00000  Uiso   1.00
H1001  H     0.48086   0.17353   0.28787   0.00000  Uiso   1.00
H1002  H     0.05531   0.15692   0.01078   0.00000  Uiso   1.00
H1003  H     0.28081   0.24768   0.45784   0.00000  Uiso   1.00
O1004  O     0.55466   0.12264   0.33880   0.00000  Uiso   1.00
O1005  O     0.49636   0.60085   0.97529   0.00000  Uiso   1.00
O1006  O     0.29220   0.21992   0.56181   0.00000  Uiso   1.00
N1007  N     0.48077   0.10572   0.34681   0.00000  Uiso   1.00
N1008  N     0.08292   0.09019   0.08774   0.00000  Uiso   1.00
N1009  N     0.29372   0.17503   0.50569   0.00000  Uiso   1.00
N1010  N     0.47134   0.15404   0.30395   0.00000  Uiso   1.00
N1011  N     0.07349   0.13851   0.04489   0.00000  Uiso   1.00
N1012  N     0.28429   0.22336   0.46284   0.00000  Uiso   1.00
C1013  C     0.36405   0.45747   0.16718   0.00000  Uiso   1.00
C1014  C     0.39193   0.42535   0.20498   0.00000  Uiso   1.00
C1015  C     0.42016   0.41966   0.27408   0.00000  Uiso   1.00
C1016  C     0.44273   0.38862   0.29891   0.00000  Uiso   1.00
C1017  C     0.48683   0.34246   0.36412   0.00000  Uiso   1.00
C1018  C     0.29837   0.44997   0.10621   0.00000  Uiso   1.00
C1019  C     0.24794   0.46498   0.09226   0.00000  Uiso   1.00
C1020  C     0.19174   0.45467   0.03393   0.00000  Uiso   1.00
C1021  C     0.09059   0.44675   0.94576   0.00000  Uiso   1.00
C1022  C     0.39491   0.46625   0.13635   0.00000  Uiso   1.00
C1023  C     0.42563   0.49495   0.14772   0.00000  Uiso   1.00
C1024  C     0.45070   0.49835   0.11476   0.00000  Uiso   1.00
C1025  C     0.49944   0.51571   0.07338   0.00000  Uiso   1.00
C1026  C     0.35393   0.41247   0.08839   0.00000  Uiso   1.00
C1027  C     0.38643   0.40091   0.16219   0.00000  Uiso   1.00
C1028  C     0.40896   0.36987   0.18692   0.00000  Uiso   1.00
C1029  C     0.43722   0.36414   0.25605   0.00000  Uiso   1.00
C1030  C     0.29287   0.42553   0.06342   0.00000  Uiso   1.00
C1031  C     0.23673   0.41520   0.00509   0.00000  Uiso   1.00
C1032  C     0.18623   0.43019   0.99106   0.00000  Uiso   1.00
C1033  C     0.38941   0.44181   0.09355   0.00000  Uiso   1.00
C1034  C     0.41443   0.44517   0.06056   0.00000  Uiso   1.00
C1035  C     0.44519   0.47387   0.07189   0.00000  Uiso   1.00
H1036  H     0.36833   0.47650   0.20049   0.00000  Uiso   1.00
H1037  H     0.42441   0.43858   0.30718   0.00000  Uiso   1.00
H1038  H     0.25221   0.48390   0.12538   0.00000  Uiso   1.00
H1039  H     0.42988   0.51386   0.18084   0.00000  Uiso   1.00
H1040  H     0.48413   0.38576   0.40660   0.00000  Uiso   1.00
H1041  H     0.12104   0.48132   0.02324   0.00000  Uiso   1.00
H1042  H     0.49569   0.54451   0.14019   0.00000  Uiso   1.00
H1043  H     0.34964   0.39344   0.05507   0.00000  Uiso   1.00
H1044  H     0.40470   0.35096   0.15379   0.00000  Uiso   1.00
H1045  H     0.23250   0.39628   0.97199   0.00000  Uiso   1.00
H1046  H     0.41017   0.42625   0.02745   0.00000  Uiso   1.00
H1047  H     0.46813   0.31464   0.28210   0.00000  Uiso   1.00
H1048  H     0.10504   0.41021   0.89874   0.00000  Uiso   1.00
H1049  H     0.47969   0.47339   0.01569   0.00000  Uiso   1.00
O1050  O     0.51266   0.32375   0.41190   0.00000  Uiso   1.00
O1051  O     0.03631   0.44914   0.90895   0.00000  Uiso   1.00
O1052  O     0.52784   0.53203   0.06239   0.00000  Uiso   1.00
N1053  N     0.47282   0.37485   0.36375   0.00000  Uiso   1.00
N1054  N     0.13335   0.46420   0.00534   0.00000  Uiso   1.00
N1055  N     0.48361   0.52327   0.11466   0.00000  Uiso   1.00
N1056  N     0.46421   0.33659   0.29676   0.00000  Uiso   1.00
N1057  N     0.12475   0.42593   0.93835   0.00000  Uiso   1.00
N1058  N     0.47500   0.48501   0.04767   0.00000  Uiso   1.00
C1059  C     0.49666   0.17545   0.90849   0.00000  Uiso   1.00
C1060  C     0.51502   0.19830   0.96703   0.00000  Uiso   1.00
C1061  C     0.56028   0.22161   0.99680   0.00000  Uiso   1.00
C1062  C     0.57014   0.24007   0.04972   0.00000  Uiso   1.00
C1063  C     0.60382   0.27627   0.13721   0.00000  Uiso   1.00
C1064  C     0.42920   0.18099   0.85135   0.00000  Uiso   1.00
C1065  C     0.40231   0.18975   0.78385   0.00000  Uiso   1.00
C1066  C     0.33991   0.19365   0.73940   0.00000  Uiso   1.00
C1067  C     0.24036   0.20296   0.64727   0.00000  Uiso   1.00
C1068  C     0.50260   0.14114   0.93522   0.00000  Uiso   1.00
C1069  C     0.53741   0.11638   0.93822   0.00000  Uiso   1.00
C1070  C     0.53681   0.08671   0.96436   0.00000  Uiso   1.00
C1071  C     0.55122   0.03414   0.00246   0.00000  Uiso   1.00
C1072  C     0.43368   0.16679   0.94955   0.00000  Uiso   1.00
C1073  C     0.48080   0.19359   0.98934   0.00000  Uiso   1.00
C1074  C     0.49060   0.21202   0.04223   0.00000  Uiso   1.00
C1075  C     0.53587   0.23536   0.07207   0.00000  Uiso   1.00
C1076  C     0.39499   0.17629   0.87365   0.00000  Uiso   1.00
C1077  C     0.33262   0.18016   0.82929   0.00000  Uiso   1.00
C1078  C     0.30564   0.18893   0.76174   0.00000  Uiso   1.00
C1079  C     0.46839   0.13643   0.95753   0.00000  Uiso   1.00
C1080  C     0.46773   0.10679   0.98366   0.00000  Uiso   1.00
C1081  C     0.50253   0.08200   0.98670   0.00000  Uiso   1.00
H1082  H     0.52329   0.17912   0.89112   0.00000  Uiso   1.00
H1083  H     0.58674   0.22525   0.97952   0.00000  Uiso   1.00
H1084  H     0.42879   0.19339   0.76661   0.00000  Uiso   1.00
H1085  H     0.56388   0.12003   0.92096   0.00000  Uiso   1.00
H1086  H     0.64199   0.27432   0.08734   0.00000  Uiso   1.00
H1087  H     0.30894   0.20714   0.63840   0.00000  Uiso   1.00
H1088  H     0.59379   0.05245   0.96387   0.00000  Uiso   1.00
H1089  H     0.40704   0.16312   0.96692   0.00000  Uiso   1.00
H1090  H     0.46411   0.20837   0.05948   0.00000  Uiso   1.00
H1091  H     0.30616   0.17652   0.84656   0.00000  Uiso   1.00
H1092  H     0.44125   0.10316   0.00091   0.00000  Uiso   1.00
H1093  H     0.54246   0.26063   0.15224   0.00000  Uiso   1.00
H1094  H     0.20940   0.19345   0.70329   0.00000  Uiso   1.00
H1095  H     0.49426   0.03875   0.02877   0.00000  Uiso   1.00
O1096  O     0.63185   0.29754   0.17930   0.00000  Uiso   1.00
O1097  O     0.19490   0.20940   0.59030   0.00000  Uiso   1.00
O1098  O     0.56863   0.00644   0.01732   0.00000  Uiso   1.00
N1099  N     0.61074   0.26488   0.08992   0.00000  Uiso   1.00
N1100  N     0.29936   0.20208   0.67019   0.00000  Uiso   1.00
N1101  N     0.56566   0.05745   0.97446   0.00000  Uiso   1.00
N1102  N     0.55718   0.25751   0.12485   0.00000  Uiso   1.00
N1103  N     0.24580   0.19471   0.70511   0.00000  Uiso   1.00
N1104  N     0.51210   0.05008   0.00938   0.00000  Uiso   1.00
