data_job_03908
_audit_creation_date              2018-12-19
_audit_creation_method            'Materials Studio'
_symmetry_space_group_name_H-M    'P1'
_symmetry_Int_Tables_number       1
_symmetry_cell_setting            triclinic
loop_
_symmetry_equiv_pos_as_xyz
  x,y,z
_cell_length_a                    18.5870
_cell_length_b                    18.5870
_cell_length_c                    42.7594
_cell_angle_alpha                 90.0000
_cell_angle_beta                  90.0000
_cell_angle_gamma                 90.0000
loop_
_atom_site_label
_atom_site_type_symbol
_atom_site_fract_x
_atom_site_fract_y
_atom_site_fract_z
_atom_site_U_iso_or_equiv
_atom_site_adp_type
_atom_site_occupancy
C1     C     0.75194   0.32832   0.22105   0.00000  Uiso   1.00
C2     C     0.80153   0.26342   0.22445   0.00000  Uiso   1.00
C3     C     0.78384   0.19278   0.21729   0.00000  Uiso   1.00
C4     C     0.83671   0.14117   0.22205   0.00000  Uiso   1.00
C5     C     0.90333   0.03760   0.22560   0.00000  Uiso   1.00
C6     C     0.74870   0.36344   0.25324   0.00000  Uiso   1.00
C7     C     0.68659   0.37690   0.27028   0.00000  Uiso   1.00
C8     C     0.69499   0.40948   0.29927   0.00000  Uiso   1.00
C9     C     0.67959   0.46123   0.34752   0.00000  Uiso   1.00
C10    C     0.79151   0.38135   0.19996   0.00000  Uiso   1.00
C11    C     0.76538   0.40988   0.17220   0.00000  Uiso   1.00
C12    C     0.80982   0.45756   0.15633   0.00000  Uiso   1.00
C13    C     0.86088   0.53711   0.12184   0.00000  Uiso   1.00
C14    C     0.87730   0.36226   0.24223   0.00000  Uiso   1.00
C15    C     0.86962   0.28186   0.23596   0.00000  Uiso   1.00
C16    C     0.92253   0.23034   0.24073   0.00000  Uiso   1.00
C17    C     0.90492   0.15964   0.23357   0.00000  Uiso   1.00
C18    C     0.81678   0.38188   0.26475   0.00000  Uiso   1.00
C19    C     0.82528   0.41445   0.29372   0.00000  Uiso   1.00
C20    C     0.76320   0.42795   0.31080   0.00000  Uiso   1.00
C21    C     0.85960   0.39978   0.21147   0.00000  Uiso   1.00
C22    C     0.90408   0.44743   0.19564   0.00000  Uiso   1.00
C23    C     0.87803   0.47603   0.16786   0.00000  Uiso   1.00
H24    H     0.69893   0.31396   0.21209   0.00000  Uiso   1.00
H25    H     0.73114   0.17854   0.20839   0.00000  Uiso   1.00
H26    H     0.63390   0.36263   0.26137   0.00000  Uiso   1.00
H27    H     0.71269   0.39560   0.16330   0.00000  Uiso   1.00
H28    H     0.79686   0.03652   0.20937   0.00000  Uiso   1.00
H29    H     0.59184   0.42471   0.32108   0.00000  Uiso   1.00
H30    H     0.75797   0.49424   0.11429   0.00000  Uiso   1.00
H31    H     0.93031   0.37662   0.25119   0.00000  Uiso   1.00
H32    H     0.97522   0.24462   0.24964   0.00000  Uiso   1.00
H33    H     0.87798   0.42872   0.30262   0.00000  Uiso   1.00
H34    H     0.95676   0.46169   0.20455   0.00000  Uiso   1.00
H35    H     0.99496   0.09016   0.24285   0.00000  Uiso   1.00
H36    H     0.78994   0.47835   0.35456   0.00000  Uiso   1.00
H37    H     0.95607   0.54788   0.14777   0.00000  Uiso   1.00
O38    O     0.92127   0.97538   0.22439   0.00000  Uiso   1.00
O39    O     0.65228   0.48467   0.37095   0.00000  Uiso   1.00
O40    O     0.87024   0.57589   0.09964   0.00000  Uiso   1.00
N41    N     0.83733   0.06726   0.21746   0.00000  Uiso   1.00
N42    N     0.64564   0.43018   0.32191   0.00000  Uiso   1.00
N43    N     0.80095   0.49520   0.12857   0.00000  Uiso   1.00
N44    N     0.94392   0.09612   0.23547   0.00000  Uiso   1.00
N45    N     0.75224   0.45904   0.33992   0.00000  Uiso   1.00
N46    N     0.90755   0.52406   0.14659   0.00000  Uiso   1.00
C47    C     0.25194   0.82832   0.72105   0.00000  Uiso   1.00
C48    C     0.30153   0.76342   0.72445   0.00000  Uiso   1.00
C49    C     0.28384   0.69278   0.71729   0.00000  Uiso   1.00
C50    C     0.33671   0.64117   0.72205   0.00000  Uiso   1.00
C51    C     0.40333   0.53760   0.72560   0.00000  Uiso   1.00
C52    C     0.24870   0.86344   0.75324   0.00000  Uiso   1.00
C53    C     0.18659   0.87690   0.77028   0.00000  Uiso   1.00
C54    C     0.19499   0.90948   0.79927   0.00000  Uiso   1.00
C55    C     0.17959   0.96123   0.84752   0.00000  Uiso   1.00
C56    C     0.29151   0.88135   0.69996   0.00000  Uiso   1.00
C57    C     0.26538   0.90988   0.67220   0.00000  Uiso   1.00
C58    C     0.30982   0.95756   0.65633   0.00000  Uiso   1.00
C59    C     0.36088   0.03711   0.62184   0.00000  Uiso   1.00
C60    C     0.37730   0.86226   0.74223   0.00000  Uiso   1.00
C61    C     0.36962   0.78186   0.73596   0.00000  Uiso   1.00
C62    C     0.42253   0.73034   0.74073   0.00000  Uiso   1.00
C63    C     0.40492   0.65964   0.73357   0.00000  Uiso   1.00
C64    C     0.31678   0.88188   0.76475   0.00000  Uiso   1.00
C65    C     0.32528   0.91445   0.79372   0.00000  Uiso   1.00
C66    C     0.26320   0.92795   0.81080   0.00000  Uiso   1.00
C67    C     0.35960   0.89978   0.71147   0.00000  Uiso   1.00
C68    C     0.40408   0.94743   0.69564   0.00000  Uiso   1.00
C69    C     0.37803   0.97603   0.66786   0.00000  Uiso   1.00
H70    H     0.19893   0.81396   0.71209   0.00000  Uiso   1.00
H71    H     0.23114   0.67854   0.70839   0.00000  Uiso   1.00
H72    H     0.13390   0.86263   0.76137   0.00000  Uiso   1.00
H73    H     0.21269   0.89560   0.66330   0.00000  Uiso   1.00
H74    H     0.29686   0.53652   0.70937   0.00000  Uiso   1.00
H75    H     0.09184   0.92471   0.82108   0.00000  Uiso   1.00
H76    H     0.25797   0.99424   0.61429   0.00000  Uiso   1.00
H77    H     0.43031   0.87662   0.75119   0.00000  Uiso   1.00
H78    H     0.47522   0.74462   0.74964   0.00000  Uiso   1.00
H79    H     0.37798   0.92872   0.80262   0.00000  Uiso   1.00
H80    H     0.45676   0.96169   0.70455   0.00000  Uiso   1.00
H81    H     0.49496   0.59016   0.74285   0.00000  Uiso   1.00
H82    H     0.28994   0.97835   0.85456   0.00000  Uiso   1.00
H83    H     0.45607   0.04788   0.64777   0.00000  Uiso   1.00
O84    O     0.42127   0.47538   0.72439   0.00000  Uiso   1.00
O85    O     0.15228   0.98467   0.87095   0.00000  Uiso   1.00
O86    O     0.37024   0.07589   0.59964   0.00000  Uiso   1.00
N87    N     0.33733   0.56726   0.71746   0.00000  Uiso   1.00
N88    N     0.14564   0.93018   0.82191   0.00000  Uiso   1.00
N89    N     0.30095   0.99520   0.62857   0.00000  Uiso   1.00
N90    N     0.44392   0.59612   0.73547   0.00000  Uiso   1.00
N91    N     0.25224   0.95904   0.83992   0.00000  Uiso   1.00
N92    N     0.40755   0.02406   0.64659   0.00000  Uiso   1.00
C93    C     0.74806   0.17168   0.72105   0.00000  Uiso   1.00
C94    C     0.69847   0.23658   0.72445   0.00000  Uiso   1.00
C95    C     0.71616   0.30722   0.71729   0.00000  Uiso   1.00
C96    C     0.66329   0.35883   0.72205   0.00000  Uiso   1.00
C97    C     0.59667   0.46240   0.72560   0.00000  Uiso   1.00
C98    C     0.75130   0.13656   0.75324   0.00000  Uiso   1.00
C99    C     0.81341   0.12310   0.77028   0.00000  Uiso   1.00
C100   C     0.80501   0.09052   0.79927   0.00000  Uiso   1.00
C101   C     0.82041   0.03877   0.84752   0.00000  Uiso   1.00
C102   C     0.70849   0.11865   0.69996   0.00000  Uiso   1.00
C103   C     0.73462   0.09012   0.67220   0.00000  Uiso   1.00
C104   C     0.69018   0.04244   0.65633   0.00000  Uiso   1.00
C105   C     0.63912   0.96289   0.62184   0.00000  Uiso   1.00
C106   C     0.62270   0.13774   0.74223   0.00000  Uiso   1.00
C107   C     0.63038   0.21814   0.73596   0.00000  Uiso   1.00
C108   C     0.57747   0.26966   0.74073   0.00000  Uiso   1.00
C109   C     0.59508   0.34036   0.73357   0.00000  Uiso   1.00
C110   C     0.68322   0.11812   0.76475   0.00000  Uiso   1.00
C111   C     0.67472   0.08555   0.79372   0.00000  Uiso   1.00
C112   C     0.73680   0.07205   0.81080   0.00000  Uiso   1.00
C113   C     0.64040   0.10022   0.71147   0.00000  Uiso   1.00
C114   C     0.59592   0.05257   0.69564   0.00000  Uiso   1.00
C115   C     0.62197   0.02397   0.66786   0.00000  Uiso   1.00
H116   H     0.80107   0.18604   0.71209   0.00000  Uiso   1.00
H117   H     0.76886   0.32146   0.70839   0.00000  Uiso   1.00
H118   H     0.86610   0.13737   0.76137   0.00000  Uiso   1.00
H119   H     0.78731   0.10440   0.66330   0.00000  Uiso   1.00
H120   H     0.70314   0.46348   0.70937   0.00000  Uiso   1.00
H121   H     0.90816   0.07529   0.82108   0.00000  Uiso   1.00
H122   H     0.74203   0.00576   0.61429   0.00000  Uiso   1.00
H123   H     0.56969   0.12338   0.75119   0.00000  Uiso   1.00
H124   H     0.52478   0.25538   0.74964   0.00000  Uiso   1.00
H125   H     0.62202   0.07128   0.80262   0.00000  Uiso   1.00
H126   H     0.54324   0.03831   0.70455   0.00000  Uiso   1.00
H127   H     0.50504   0.40984   0.74285   0.00000  Uiso   1.00
H128   H     0.71006   0.02165   0.85456   0.00000  Uiso   1.00
H129   H     0.54393   0.95212   0.64777   0.00000  Uiso   1.00
O130   O     0.57873   0.52462   0.72439   0.00000  Uiso   1.00
O131   O     0.84772   0.01533   0.87095   0.00000  Uiso   1.00
O132   O     0.62976   0.92411   0.59964   0.00000  Uiso   1.00
N133   N     0.66267   0.43274   0.71746   0.00000  Uiso   1.00
N134   N     0.85436   0.06982   0.82191   0.00000  Uiso   1.00
N135   N     0.69905   0.00480   0.62857   0.00000  Uiso   1.00
N136   N     0.55608   0.40388   0.73547   0.00000  Uiso   1.00
N137   N     0.74776   0.04096   0.83992   0.00000  Uiso   1.00
N138   N     0.59245   0.97594   0.64659   0.00000  Uiso   1.00
C139   C     0.24806   0.67168   0.22105   0.00000  Uiso   1.00
C140   C     0.19847   0.73658   0.22445   0.00000  Uiso   1.00
C141   C     0.21616   0.80722   0.21729   0.00000  Uiso   1.00
C142   C     0.16329   0.85883   0.22205   0.00000  Uiso   1.00
C143   C     0.09667   0.96240   0.22560   0.00000  Uiso   1.00
C144   C     0.25130   0.63656   0.25324   0.00000  Uiso   1.00
C145   C     0.31341   0.62310   0.27028   0.00000  Uiso   1.00
C146   C     0.30501   0.59052   0.29927   0.00000  Uiso   1.00
C147   C     0.32041   0.53877   0.34752   0.00000  Uiso   1.00
C148   C     0.20849   0.61865   0.19996   0.00000  Uiso   1.00
C149   C     0.23462   0.59012   0.17220   0.00000  Uiso   1.00
C150   C     0.19018   0.54244   0.15633   0.00000  Uiso   1.00
C151   C     0.13912   0.46289   0.12184   0.00000  Uiso   1.00
C152   C     0.12270   0.63774   0.24223   0.00000  Uiso   1.00
C153   C     0.13038   0.71814   0.23596   0.00000  Uiso   1.00
C154   C     0.07747   0.76966   0.24073   0.00000  Uiso   1.00
C155   C     0.09508   0.84036   0.23357   0.00000  Uiso   1.00
C156   C     0.18322   0.61812   0.26475   0.00000  Uiso   1.00
C157   C     0.17472   0.58555   0.29372   0.00000  Uiso   1.00
C158   C     0.23680   0.57205   0.31080   0.00000  Uiso   1.00
C159   C     0.14040   0.60022   0.21147   0.00000  Uiso   1.00
C160   C     0.09592   0.55257   0.19564   0.00000  Uiso   1.00
C161   C     0.12197   0.52397   0.16786   0.00000  Uiso   1.00
H162   H     0.30107   0.68604   0.21209   0.00000  Uiso   1.00
H163   H     0.26886   0.82146   0.20839   0.00000  Uiso   1.00
H164   H     0.36610   0.63737   0.26137   0.00000  Uiso   1.00
H165   H     0.28731   0.60440   0.16330   0.00000  Uiso   1.00
H166   H     0.20314   0.96348   0.20937   0.00000  Uiso   1.00
H167   H     0.40816   0.57529   0.32108   0.00000  Uiso   1.00
H168   H     0.24203   0.50576   0.11429   0.00000  Uiso   1.00
H169   H     0.06969   0.62338   0.25119   0.00000  Uiso   1.00
H170   H     0.02478   0.75538   0.24964   0.00000  Uiso   1.00
H171   H     0.12202   0.57128   0.30262   0.00000  Uiso   1.00
H172   H     0.04324   0.53831   0.20455   0.00000  Uiso   1.00
H173   H     0.00504   0.90984   0.24285   0.00000  Uiso   1.00
H174   H     0.21006   0.52165   0.35456   0.00000  Uiso   1.00
H175   H     0.04393   0.45212   0.14777   0.00000  Uiso   1.00
O176   O     0.07873   0.02462   0.22439   0.00000  Uiso   1.00
O177   O     0.34772   0.51533   0.37095   0.00000  Uiso   1.00
O178   O     0.12976   0.42411   0.09964   0.00000  Uiso   1.00
N179   N     0.16267   0.93274   0.21746   0.00000  Uiso   1.00
N180   N     0.35436   0.56982   0.32191   0.00000  Uiso   1.00
N181   N     0.19905   0.50480   0.12857   0.00000  Uiso   1.00
N182   N     0.05608   0.90388   0.23547   0.00000  Uiso   1.00
N183   N     0.24776   0.54096   0.33992   0.00000  Uiso   1.00
N184   N     0.09245   0.47594   0.14659   0.00000  Uiso   1.00
C185   C     0.67168   0.25194   0.47105   0.00000  Uiso   1.00
C186   C     0.73658   0.30153   0.47445   0.00000  Uiso   1.00
C187   C     0.80722   0.28384   0.46729   0.00000  Uiso   1.00
C188   C     0.85883   0.33671   0.47205   0.00000  Uiso   1.00
C189   C     0.96240   0.40333   0.47560   0.00000  Uiso   1.00
C190   C     0.63656   0.24870   0.50324   0.00000  Uiso   1.00
C191   C     0.62310   0.18659   0.52028   0.00000  Uiso   1.00
C192   C     0.59052   0.19499   0.54927   0.00000  Uiso   1.00
C193   C     0.53877   0.17959   0.59752   0.00000  Uiso   1.00
C194   C     0.61865   0.29151   0.44996   0.00000  Uiso   1.00
C195   C     0.59012   0.26538   0.42220   0.00000  Uiso   1.00
C196   C     0.54244   0.30982   0.40633   0.00000  Uiso   1.00
C197   C     0.46289   0.36088   0.37184   0.00000  Uiso   1.00
C198   C     0.63774   0.37730   0.49223   0.00000  Uiso   1.00
C199   C     0.71814   0.36962   0.48596   0.00000  Uiso   1.00
C200   C     0.76966   0.42253   0.49073   0.00000  Uiso   1.00
C201   C     0.84036   0.40492   0.48357   0.00000  Uiso   1.00
C202   C     0.61812   0.31678   0.51475   0.00000  Uiso   1.00
C203   C     0.58555   0.32528   0.54372   0.00000  Uiso   1.00
C204   C     0.57205   0.26320   0.56080   0.00000  Uiso   1.00
C205   C     0.60022   0.35960   0.46147   0.00000  Uiso   1.00
C206   C     0.55257   0.40408   0.44564   0.00000  Uiso   1.00
C207   C     0.52397   0.37803   0.41786   0.00000  Uiso   1.00
H208   H     0.68604   0.19893   0.46209   0.00000  Uiso   1.00
H209   H     0.82146   0.23114   0.45839   0.00000  Uiso   1.00
H210   H     0.63737   0.13390   0.51137   0.00000  Uiso   1.00
H211   H     0.60440   0.21269   0.41330   0.00000  Uiso   1.00
H212   H     0.96348   0.29686   0.45937   0.00000  Uiso   1.00
H213   H     0.57529   0.09184   0.57108   0.00000  Uiso   1.00
H214   H     0.50576   0.25797   0.36429   0.00000  Uiso   1.00
H215   H     0.62338   0.43031   0.50119   0.00000  Uiso   1.00
H216   H     0.75538   0.47522   0.49964   0.00000  Uiso   1.00
H217   H     0.57128   0.37798   0.55262   0.00000  Uiso   1.00
H218   H     0.53831   0.45676   0.45455   0.00000  Uiso   1.00
H219   H     0.90984   0.49496   0.49285   0.00000  Uiso   1.00
H220   H     0.52165   0.28994   0.60456   0.00000  Uiso   1.00
H221   H     0.45212   0.45607   0.39777   0.00000  Uiso   1.00
O222   O     0.02462   0.42127   0.47439   0.00000  Uiso   1.00
O223   O     0.51533   0.15228   0.62095   0.00000  Uiso   1.00
O224   O     0.42411   0.37024   0.34964   0.00000  Uiso   1.00
N225   N     0.93274   0.33733   0.46746   0.00000  Uiso   1.00
N226   N     0.56982   0.14564   0.57191   0.00000  Uiso   1.00
N227   N     0.50480   0.30095   0.37857   0.00000  Uiso   1.00
N228   N     0.90388   0.44392   0.48547   0.00000  Uiso   1.00
N229   N     0.54096   0.25224   0.58992   0.00000  Uiso   1.00
N230   N     0.47594   0.40755   0.39659   0.00000  Uiso   1.00
C231   C     0.17168   0.75194   0.97105   0.00000  Uiso   1.00
C232   C     0.23658   0.80153   0.97445   0.00000  Uiso   1.00
C233   C     0.30722   0.78384   0.96729   0.00000  Uiso   1.00
C234   C     0.35883   0.83671   0.97205   0.00000  Uiso   1.00
C235   C     0.46240   0.90333   0.97560   0.00000  Uiso   1.00
C236   C     0.13656   0.74870   0.00324   0.00000  Uiso   1.00
C237   C     0.12310   0.68659   0.02028   0.00000  Uiso   1.00
C238   C     0.09052   0.69499   0.04927   0.00000  Uiso   1.00
C239   C     0.03877   0.67959   0.09752   0.00000  Uiso   1.00
C240   C     0.11865   0.79151   0.94996   0.00000  Uiso   1.00
C241   C     0.09012   0.76538   0.92220   0.00000  Uiso   1.00
C242   C     0.04244   0.80982   0.90633   0.00000  Uiso   1.00
C243   C     0.96289   0.86088   0.87184   0.00000  Uiso   1.00
C244   C     0.13774   0.87730   0.99223   0.00000  Uiso   1.00
C245   C     0.21814   0.86962   0.98596   0.00000  Uiso   1.00
C246   C     0.26966   0.92253   0.99073   0.00000  Uiso   1.00
C247   C     0.34036   0.90492   0.98357   0.00000  Uiso   1.00
C248   C     0.11812   0.81678   0.01475   0.00000  Uiso   1.00
C249   C     0.08555   0.82528   0.04372   0.00000  Uiso   1.00
C250   C     0.07205   0.76320   0.06080   0.00000  Uiso   1.00
C251   C     0.10022   0.85960   0.96147   0.00000  Uiso   1.00
C252   C     0.05257   0.90408   0.94564   0.00000  Uiso   1.00
C253   C     0.02397   0.87803   0.91786   0.00000  Uiso   1.00
H254   H     0.18604   0.69893   0.96209   0.00000  Uiso   1.00
H255   H     0.32146   0.73114   0.95839   0.00000  Uiso   1.00
H256   H     0.13737   0.63390   0.01137   0.00000  Uiso   1.00
H257   H     0.10440   0.71269   0.91330   0.00000  Uiso   1.00
H258   H     0.46348   0.79686   0.95937   0.00000  Uiso   1.00
H259   H     0.07529   0.59184   0.07108   0.00000  Uiso   1.00
H260   H     0.00576   0.75797   0.86429   0.00000  Uiso   1.00
H261   H     0.12338   0.93031   0.00119   0.00000  Uiso   1.00
H262   H     0.25538   0.97522   0.99964   0.00000  Uiso   1.00
H263   H     0.07128   0.87798   0.05262   0.00000  Uiso   1.00
H264   H     0.03831   0.95676   0.95455   0.00000  Uiso   1.00
H265   H     0.40984   0.99496   0.99285   0.00000  Uiso   1.00
H266   H     0.02165   0.78994   0.10456   0.00000  Uiso   1.00
H267   H     0.95212   0.95607   0.89777   0.00000  Uiso   1.00
O268   O     0.52462   0.92127   0.97439   0.00000  Uiso   1.00
O269   O     0.01533   0.65228   0.12095   0.00000  Uiso   1.00
O270   O     0.92411   0.87024   0.84964   0.00000  Uiso   1.00
N271   N     0.43274   0.83733   0.96746   0.00000  Uiso   1.00
N272   N     0.06982   0.64564   0.07191   0.00000  Uiso   1.00
N273   N     0.00480   0.80095   0.87857   0.00000  Uiso   1.00
N274   N     0.40388   0.94392   0.98547   0.00000  Uiso   1.00
N275   N     0.04096   0.75224   0.08992   0.00000  Uiso   1.00
N276   N     0.97594   0.90755   0.89659   0.00000  Uiso   1.00
C277   C     0.82832   0.24806   0.97105   0.00000  Uiso   1.00
C278   C     0.76342   0.19847   0.97445   0.00000  Uiso   1.00
C279   C     0.69278   0.21616   0.96729   0.00000  Uiso   1.00
C280   C     0.64117   0.16329   0.97205   0.00000  Uiso   1.00
C281   C     0.53760   0.09667   0.97560   0.00000  Uiso   1.00
C282   C     0.86344   0.25130   0.00324   0.00000  Uiso   1.00
C283   C     0.87690   0.31341   0.02028   0.00000  Uiso   1.00
C284   C     0.90948   0.30501   0.04927   0.00000  Uiso   1.00
C285   C     0.96123   0.32041   0.09752   0.00000  Uiso   1.00
C286   C     0.88135   0.20849   0.94996   0.00000  Uiso   1.00
C287   C     0.90988   0.23462   0.92220   0.00000  Uiso   1.00
C288   C     0.95756   0.19018   0.90633   0.00000  Uiso   1.00
C289   C     0.03711   0.13912   0.87184   0.00000  Uiso   1.00
C290   C     0.86226   0.12270   0.99223   0.00000  Uiso   1.00
C291   C     0.78186   0.13038   0.98596   0.00000  Uiso   1.00
C292   C     0.73034   0.07747   0.99073   0.00000  Uiso   1.00
C293   C     0.65964   0.09508   0.98357   0.00000  Uiso   1.00
C294   C     0.88188   0.18322   0.01475   0.00000  Uiso   1.00
C295   C     0.91445   0.17472   0.04372   0.00000  Uiso   1.00
C296   C     0.92795   0.23680   0.06080   0.00000  Uiso   1.00
C297   C     0.89978   0.14040   0.96147   0.00000  Uiso   1.00
C298   C     0.94743   0.09592   0.94564   0.00000  Uiso   1.00
C299   C     0.97603   0.12197   0.91786   0.00000  Uiso   1.00
H300   H     0.81396   0.30107   0.96209   0.00000  Uiso   1.00
H301   H     0.67854   0.26886   0.95839   0.00000  Uiso   1.00
H302   H     0.86263   0.36610   0.01137   0.00000  Uiso   1.00
H303   H     0.89560   0.28731   0.91330   0.00000  Uiso   1.00
H304   H     0.53652   0.20314   0.95937   0.00000  Uiso   1.00
H305   H     0.92471   0.40816   0.07108   0.00000  Uiso   1.00
H306   H     0.99424   0.24203   0.86429   0.00000  Uiso   1.00
H307   H     0.87662   0.06969   0.00119   0.00000  Uiso   1.00
H308   H     0.74462   0.02478   0.99964   0.00000  Uiso   1.00
H309   H     0.92872   0.12202   0.05262   0.00000  Uiso   1.00
H310   H     0.96169   0.04324   0.95455   0.00000  Uiso   1.00
H311   H     0.59016   0.00504   0.99285   0.00000  Uiso   1.00
H312   H     0.97835   0.21006   0.10456   0.00000  Uiso   1.00
H313   H     0.04788   0.04393   0.89777   0.00000  Uiso   1.00
O314   O     0.47538   0.07873   0.97439   0.00000  Uiso   1.00
O315   O     0.98467   0.34772   0.12095   0.00000  Uiso   1.00
O316   O     0.07589   0.12976   0.84964   0.00000  Uiso   1.00
N317   N     0.56726   0.16267   0.96746   0.00000  Uiso   1.00
N318   N     0.93018   0.35436   0.07191   0.00000  Uiso   1.00
N319   N     0.99520   0.19905   0.87857   0.00000  Uiso   1.00
N320   N     0.59612   0.05608   0.98547   0.00000  Uiso   1.00
N321   N     0.95904   0.24776   0.08992   0.00000  Uiso   1.00
N322   N     0.02406   0.09245   0.89659   0.00000  Uiso   1.00
C323   C     0.32832   0.74806   0.47105   0.00000  Uiso   1.00
C324   C     0.26342   0.69847   0.47445   0.00000  Uiso   1.00
C325   C     0.19278   0.71616   0.46729   0.00000  Uiso   1.00
C326   C     0.14117   0.66329   0.47205   0.00000  Uiso   1.00
C327   C     0.03760   0.59667   0.47560   0.00000  Uiso   1.00
C328   C     0.36344   0.75130   0.50324   0.00000  Uiso   1.00
C329   C     0.37690   0.81341   0.52028   0.00000  Uiso   1.00
C330   C     0.40948   0.80501   0.54927   0.00000  Uiso   1.00
C331   C     0.46123   0.82041   0.59752   0.00000  Uiso   1.00
C332   C     0.38135   0.70849   0.44996   0.00000  Uiso   1.00
C333   C     0.40988   0.73462   0.42220   0.00000  Uiso   1.00
C334   C     0.45756   0.69018   0.40633   0.00000  Uiso   1.00
C335   C     0.53711   0.63912   0.37184   0.00000  Uiso   1.00
C336   C     0.36226   0.62270   0.49223   0.00000  Uiso   1.00
C337   C     0.28186   0.63038   0.48596   0.00000  Uiso   1.00
C338   C     0.23034   0.57747   0.49073   0.00000  Uiso   1.00
C339   C     0.15964   0.59508   0.48357   0.00000  Uiso   1.00
C340   C     0.38188   0.68322   0.51475   0.00000  Uiso   1.00
C341   C     0.41445   0.67472   0.54372   0.00000  Uiso   1.00
C342   C     0.42795   0.73680   0.56080   0.00000  Uiso   1.00
C343   C     0.39978   0.64040   0.46147   0.00000  Uiso   1.00
C344   C     0.44743   0.59592   0.44564   0.00000  Uiso   1.00
C345   C     0.47603   0.62197   0.41786   0.00000  Uiso   1.00
H346   H     0.31396   0.80107   0.46209   0.00000  Uiso   1.00
H347   H     0.17854   0.76886   0.45839   0.00000  Uiso   1.00
H348   H     0.36263   0.86610   0.51137   0.00000  Uiso   1.00
H349   H     0.39560   0.78731   0.41330   0.00000  Uiso   1.00
H350   H     0.03652   0.70314   0.45937   0.00000  Uiso   1.00
H351   H     0.42471   0.90816   0.57108   0.00000  Uiso   1.00
H352   H     0.49424   0.74203   0.36429   0.00000  Uiso   1.00
H353   H     0.37662   0.56969   0.50119   0.00000  Uiso   1.00
H354   H     0.24462   0.52478   0.49964   0.00000  Uiso   1.00
H355   H     0.42872   0.62202   0.55262   0.00000  Uiso   1.00
H356   H     0.46169   0.54324   0.45455   0.00000  Uiso   1.00
H357   H     0.09016   0.50504   0.49285   0.00000  Uiso   1.00
H358   H     0.47835   0.71006   0.60456   0.00000  Uiso   1.00
H359   H     0.54788   0.54393   0.39777   0.00000  Uiso   1.00
O360   O     0.97538   0.57873   0.47439   0.00000  Uiso   1.00
O361   O     0.48467   0.84772   0.62095   0.00000  Uiso   1.00
O362   O     0.57589   0.62976   0.34964   0.00000  Uiso   1.00
N363   N     0.06726   0.66267   0.46746   0.00000  Uiso   1.00
N364   N     0.43018   0.85436   0.57191   0.00000  Uiso   1.00
N365   N     0.49520   0.69905   0.37857   0.00000  Uiso   1.00
N366   N     0.09612   0.55608   0.48547   0.00000  Uiso   1.00
N367   N     0.45904   0.74776   0.58992   0.00000  Uiso   1.00
N368   N     0.52406   0.59245   0.39659   0.00000  Uiso   1.00
C369   C     0.24806   0.17168   0.02895   0.00000  Uiso   1.00
C370   C     0.19847   0.23658   0.02555   0.00000  Uiso   1.00
C371   C     0.21616   0.30722   0.03271   0.00000  Uiso   1.00
C372   C     0.16329   0.35883   0.02795   0.00000  Uiso   1.00
C373   C     0.09667   0.46240   0.02440   0.00000  Uiso   1.00
C374   C     0.25130   0.13656   0.99676   0.00000  Uiso   1.00
C375   C     0.31341   0.12310   0.97972   0.00000  Uiso   1.00
C376   C     0.30501   0.09052   0.95073   0.00000  Uiso   1.00
C377   C     0.32041   0.03877   0.90248   0.00000  Uiso   1.00
C378   C     0.20849   0.11865   0.05004   0.00000  Uiso   1.00
C379   C     0.23462   0.09012   0.07780   0.00000  Uiso   1.00
C380   C     0.19018   0.04244   0.09367   0.00000  Uiso   1.00
C381   C     0.13912   0.96289   0.12816   0.00000  Uiso   1.00
C382   C     0.12270   0.13774   0.00777   0.00000  Uiso   1.00
C383   C     0.13038   0.21814   0.01404   0.00000  Uiso   1.00
C384   C     0.07747   0.26966   0.00927   0.00000  Uiso   1.00
C385   C     0.09508   0.34036   0.01643   0.00000  Uiso   1.00
C386   C     0.18322   0.11812   0.98525   0.00000  Uiso   1.00
C387   C     0.17472   0.08555   0.95628   0.00000  Uiso   1.00
C388   C     0.23680   0.07205   0.93920   0.00000  Uiso   1.00
C389   C     0.14040   0.10022   0.03853   0.00000  Uiso   1.00
C390   C     0.09592   0.05257   0.05436   0.00000  Uiso   1.00
C391   C     0.12197   0.02397   0.08214   0.00000  Uiso   1.00
H392   H     0.30107   0.18604   0.03791   0.00000  Uiso   1.00
H393   H     0.26886   0.32146   0.04161   0.00000  Uiso   1.00
H394   H     0.36610   0.13737   0.98863   0.00000  Uiso   1.00
H395   H     0.28731   0.10440   0.08670   0.00000  Uiso   1.00
H396   H     0.20314   0.46348   0.04063   0.00000  Uiso   1.00
H397   H     0.40816   0.07529   0.92892   0.00000  Uiso   1.00
H398   H     0.24203   0.00576   0.13571   0.00000  Uiso   1.00
H399   H     0.06969   0.12338   0.99881   0.00000  Uiso   1.00
H400   H     0.02478   0.25538   0.00036   0.00000  Uiso   1.00
H401   H     0.12202   0.07128   0.94738   0.00000  Uiso   1.00
H402   H     0.04324   0.03831   0.04545   0.00000  Uiso   1.00
H403   H     0.00504   0.40984   0.00715   0.00000  Uiso   1.00
H404   H     0.21006   0.02165   0.89544   0.00000  Uiso   1.00
H405   H     0.04393   0.95212   0.10223   0.00000  Uiso   1.00
O406   O     0.07873   0.52462   0.02561   0.00000  Uiso   1.00
O407   O     0.34772   0.01533   0.87905   0.00000  Uiso   1.00
O408   O     0.12976   0.92411   0.15036   0.00000  Uiso   1.00
N409   N     0.16267   0.43274   0.03254   0.00000  Uiso   1.00
N410   N     0.35436   0.06982   0.92809   0.00000  Uiso   1.00
N411   N     0.19905   0.00480   0.12143   0.00000  Uiso   1.00
N412   N     0.05608   0.40388   0.01453   0.00000  Uiso   1.00
N413   N     0.24776   0.04096   0.91008   0.00000  Uiso   1.00
N414   N     0.09245   0.97594   0.10341   0.00000  Uiso   1.00
C415   C     0.74806   0.67168   0.52895   0.00000  Uiso   1.00
C416   C     0.69847   0.73658   0.52555   0.00000  Uiso   1.00
C417   C     0.71616   0.80722   0.53271   0.00000  Uiso   1.00
C418   C     0.66329   0.85883   0.52795   0.00000  Uiso   1.00
C419   C     0.59667   0.96240   0.52440   0.00000  Uiso   1.00
C420   C     0.75130   0.63656   0.49676   0.00000  Uiso   1.00
C421   C     0.81341   0.62310   0.47972   0.00000  Uiso   1.00
C422   C     0.80501   0.59052   0.45073   0.00000  Uiso   1.00
C423   C     0.82041   0.53877   0.40248   0.00000  Uiso   1.00
C424   C     0.70849   0.61865   0.55004   0.00000  Uiso   1.00
C425   C     0.73462   0.59012   0.57780   0.00000  Uiso   1.00
C426   C     0.69018   0.54244   0.59367   0.00000  Uiso   1.00
C427   C     0.63912   0.46289   0.62816   0.00000  Uiso   1.00
C428   C     0.62270   0.63774   0.50777   0.00000  Uiso   1.00
C429   C     0.63038   0.71814   0.51404   0.00000  Uiso   1.00
C430   C     0.57747   0.76966   0.50927   0.00000  Uiso   1.00
C431   C     0.59508   0.84036   0.51643   0.00000  Uiso   1.00
C432   C     0.68322   0.61812   0.48525   0.00000  Uiso   1.00
C433   C     0.67472   0.58555   0.45628   0.00000  Uiso   1.00
C434   C     0.73680   0.57205   0.43920   0.00000  Uiso   1.00
C435   C     0.64040   0.60022   0.53853   0.00000  Uiso   1.00
C436   C     0.59592   0.55257   0.55436   0.00000  Uiso   1.00
C437   C     0.62197   0.52397   0.58214   0.00000  Uiso   1.00
H438   H     0.80107   0.68604   0.53791   0.00000  Uiso   1.00
H439   H     0.76886   0.82146   0.54161   0.00000  Uiso   1.00
H440   H     0.86610   0.63737   0.48863   0.00000  Uiso   1.00
H441   H     0.78731   0.60440   0.58670   0.00000  Uiso   1.00
H442   H     0.70314   0.96348   0.54063   0.00000  Uiso   1.00
H443   H     0.90816   0.57529   0.42892   0.00000  Uiso   1.00
H444   H     0.74203   0.50576   0.63571   0.00000  Uiso   1.00
H445   H     0.56969   0.62338   0.49881   0.00000  Uiso   1.00
H446   H     0.52478   0.75538   0.50036   0.00000  Uiso   1.00
H447   H     0.62202   0.57128   0.44738   0.00000  Uiso   1.00
H448   H     0.54324   0.53831   0.54545   0.00000  Uiso   1.00
H449   H     0.50504   0.90984   0.50715   0.00000  Uiso   1.00
H450   H     0.71006   0.52165   0.39544   0.00000  Uiso   1.00
H451   H     0.54393   0.45212   0.60223   0.00000  Uiso   1.00
O452   O     0.57873   0.02462   0.52561   0.00000  Uiso   1.00
O453   O     0.84772   0.51533   0.37905   0.00000  Uiso   1.00
O454   O     0.62976   0.42411   0.65036   0.00000  Uiso   1.00
N455   N     0.66267   0.93274   0.53254   0.00000  Uiso   1.00
N456   N     0.85436   0.56982   0.42809   0.00000  Uiso   1.00
N457   N     0.69905   0.50480   0.62143   0.00000  Uiso   1.00
N458   N     0.55608   0.90388   0.51453   0.00000  Uiso   1.00
N459   N     0.74776   0.54096   0.41008   0.00000  Uiso   1.00
N460   N     0.59245   0.47594   0.60341   0.00000  Uiso   1.00
C461   C     0.25194   0.32832   0.52895   0.00000  Uiso   1.00
C462   C     0.30153   0.26342   0.52555   0.00000  Uiso   1.00
C463   C     0.28384   0.19278   0.53271   0.00000  Uiso   1.00
C464   C     0.33671   0.14117   0.52795   0.00000  Uiso   1.00
C465   C     0.40333   0.03760   0.52440   0.00000  Uiso   1.00
C466   C     0.24870   0.36344   0.49676   0.00000  Uiso   1.00
C467   C     0.18659   0.37690   0.47972   0.00000  Uiso   1.00
C468   C     0.19499   0.40948   0.45073   0.00000  Uiso   1.00
C469   C     0.17959   0.46123   0.40248   0.00000  Uiso   1.00
C470   C     0.29151   0.38135   0.55004   0.00000  Uiso   1.00
C471   C     0.26538   0.40988   0.57780   0.00000  Uiso   1.00
C472   C     0.30982   0.45756   0.59367   0.00000  Uiso   1.00
C473   C     0.36088   0.53711   0.62816   0.00000  Uiso   1.00
C474   C     0.37730   0.36226   0.50777   0.00000  Uiso   1.00
C475   C     0.36962   0.28186   0.51404   0.00000  Uiso   1.00
C476   C     0.42253   0.23034   0.50927   0.00000  Uiso   1.00
C477   C     0.40492   0.15964   0.51643   0.00000  Uiso   1.00
C478   C     0.31678   0.38188   0.48525   0.00000  Uiso   1.00
C479   C     0.32528   0.41445   0.45628   0.00000  Uiso   1.00
C480   C     0.26320   0.42795   0.43920   0.00000  Uiso   1.00
C481   C     0.35960   0.39978   0.53853   0.00000  Uiso   1.00
C482   C     0.40408   0.44743   0.55436   0.00000  Uiso   1.00
C483   C     0.37803   0.47603   0.58214   0.00000  Uiso   1.00
H484   H     0.19893   0.31396   0.53791   0.00000  Uiso   1.00
H485   H     0.23114   0.17854   0.54161   0.00000  Uiso   1.00
H486   H     0.13390   0.36263   0.48863   0.00000  Uiso   1.00
H487   H     0.21269   0.39560   0.58670   0.00000  Uiso   1.00
H488   H     0.29686   0.03652   0.54063   0.00000  Uiso   1.00
H489   H     0.09184   0.42471   0.42892   0.00000  Uiso   1.00
H490   H     0.25797   0.49424   0.63571   0.00000  Uiso   1.00
H491   H     0.43031   0.37662   0.49881   0.00000  Uiso   1.00
H492   H     0.47522   0.24462   0.50036   0.00000  Uiso   1.00
H493   H     0.37798   0.42872   0.44738   0.00000  Uiso   1.00
H494   H     0.45676   0.46169   0.54545   0.00000  Uiso   1.00
H495   H     0.49496   0.09016   0.50715   0.00000  Uiso   1.00
H496   H     0.28994   0.47835   0.39544   0.00000  Uiso   1.00
H497   H     0.45607   0.54788   0.60223   0.00000  Uiso   1.00
O498   O     0.42127   0.97538   0.52561   0.00000  Uiso   1.00
O499   O     0.15228   0.48467   0.37905   0.00000  Uiso   1.00
O500   O     0.37024   0.57589   0.65036   0.00000  Uiso   1.00
N501   N     0.33733   0.06726   0.53254   0.00000  Uiso   1.00
N502   N     0.14564   0.43018   0.42809   0.00000  Uiso   1.00
N503   N     0.30095   0.49520   0.62143   0.00000  Uiso   1.00
N504   N     0.44392   0.09612   0.51453   0.00000  Uiso   1.00
N505   N     0.25224   0.45904   0.41008   0.00000  Uiso   1.00
N506   N     0.40755   0.52406   0.60341   0.00000  Uiso   1.00
C507   C     0.75194   0.82832   0.02895   0.00000  Uiso   1.00
C508   C     0.80153   0.76342   0.02555   0.00000  Uiso   1.00
C509   C     0.78384   0.69278   0.03271   0.00000  Uiso   1.00
C510   C     0.83671   0.64117   0.02795   0.00000  Uiso   1.00
C511   C     0.90333   0.53760   0.02440   0.00000  Uiso   1.00
C512   C     0.74870   0.86344   0.99676   0.00000  Uiso   1.00
C513   C     0.68659   0.87690   0.97972   0.00000  Uiso   1.00
C514   C     0.69499   0.90948   0.95073   0.00000  Uiso   1.00
C515   C     0.67959   0.96123   0.90248   0.00000  Uiso   1.00
C516   C     0.79151   0.88135   0.05004   0.00000  Uiso   1.00
C517   C     0.76538   0.90988   0.07780   0.00000  Uiso   1.00
C518   C     0.80982   0.95756   0.09367   0.00000  Uiso   1.00
C519   C     0.86088   0.03711   0.12816   0.00000  Uiso   1.00
C520   C     0.87730   0.86226   0.00777   0.00000  Uiso   1.00
C521   C     0.86962   0.78186   0.01404   0.00000  Uiso   1.00
C522   C     0.92253   0.73034   0.00927   0.00000  Uiso   1.00
C523   C     0.90492   0.65964   0.01643   0.00000  Uiso   1.00
C524   C     0.81678   0.88188   0.98525   0.00000  Uiso   1.00
C525   C     0.82528   0.91445   0.95628   0.00000  Uiso   1.00
C526   C     0.76320   0.92795   0.93920   0.00000  Uiso   1.00
C527   C     0.85960   0.89978   0.03853   0.00000  Uiso   1.00
C528   C     0.90408   0.94743   0.05436   0.00000  Uiso   1.00
C529   C     0.87803   0.97603   0.08214   0.00000  Uiso   1.00
H530   H     0.69893   0.81396   0.03791   0.00000  Uiso   1.00
H531   H     0.73114   0.67854   0.04161   0.00000  Uiso   1.00
H532   H     0.63390   0.86263   0.98863   0.00000  Uiso   1.00
H533   H     0.71269   0.89560   0.08670   0.00000  Uiso   1.00
H534   H     0.79686   0.53652   0.04063   0.00000  Uiso   1.00
H535   H     0.59184   0.92471   0.92892   0.00000  Uiso   1.00
H536   H     0.75797   0.99424   0.13571   0.00000  Uiso   1.00
H537   H     0.93031   0.87662   0.99881   0.00000  Uiso   1.00
H538   H     0.97522   0.74462   0.00036   0.00000  Uiso   1.00
H539   H     0.87798   0.92872   0.94738   0.00000  Uiso   1.00
H540   H     0.95676   0.96169   0.04545   0.00000  Uiso   1.00
H541   H     0.99496   0.59016   0.00715   0.00000  Uiso   1.00
H542   H     0.78994   0.97835   0.89544   0.00000  Uiso   1.00
H543   H     0.95607   0.04788   0.10223   0.00000  Uiso   1.00
O544   O     0.92127   0.47538   0.02561   0.00000  Uiso   1.00
O545   O     0.65228   0.98467   0.87905   0.00000  Uiso   1.00
O546   O     0.87024   0.07589   0.15036   0.00000  Uiso   1.00
N547   N     0.83733   0.56726   0.03254   0.00000  Uiso   1.00
N548   N     0.64564   0.93018   0.92809   0.00000  Uiso   1.00
N549   N     0.80095   0.99520   0.12143   0.00000  Uiso   1.00
N550   N     0.94392   0.59612   0.01453   0.00000  Uiso   1.00
N551   N     0.75224   0.95904   0.91008   0.00000  Uiso   1.00
N552   N     0.90755   0.02406   0.10341   0.00000  Uiso   1.00
C553   C     0.32832   0.24806   0.77895   0.00000  Uiso   1.00
C554   C     0.26342   0.19847   0.77555   0.00000  Uiso   1.00
C555   C     0.19278   0.21616   0.78271   0.00000  Uiso   1.00
C556   C     0.14117   0.16329   0.77795   0.00000  Uiso   1.00
C557   C     0.03760   0.09667   0.77440   0.00000  Uiso   1.00
C558   C     0.36344   0.25130   0.74676   0.00000  Uiso   1.00
C559   C     0.37690   0.31341   0.72972   0.00000  Uiso   1.00
C560   C     0.40948   0.30501   0.70073   0.00000  Uiso   1.00
C561   C     0.46123   0.32041   0.65248   0.00000  Uiso   1.00
C562   C     0.38135   0.20849   0.80004   0.00000  Uiso   1.00
C563   C     0.40988   0.23462   0.82780   0.00000  Uiso   1.00
C564   C     0.45756   0.19018   0.84367   0.00000  Uiso   1.00
C565   C     0.53711   0.13912   0.87816   0.00000  Uiso   1.00
C566   C     0.36226   0.12270   0.75777   0.00000  Uiso   1.00
C567   C     0.28186   0.13038   0.76404   0.00000  Uiso   1.00
C568   C     0.23034   0.07747   0.75927   0.00000  Uiso   1.00
C569   C     0.15964   0.09508   0.76643   0.00000  Uiso   1.00
C570   C     0.38188   0.18322   0.73525   0.00000  Uiso   1.00
C571   C     0.41445   0.17472   0.70628   0.00000  Uiso   1.00
C572   C     0.42795   0.23680   0.68920   0.00000  Uiso   1.00
C573   C     0.39978   0.14040   0.78853   0.00000  Uiso   1.00
C574   C     0.44743   0.09592   0.80436   0.00000  Uiso   1.00
C575   C     0.47603   0.12197   0.83214   0.00000  Uiso   1.00
H576   H     0.31396   0.30107   0.78791   0.00000  Uiso   1.00
H577   H     0.17854   0.26886   0.79161   0.00000  Uiso   1.00
H578   H     0.36263   0.36610   0.73863   0.00000  Uiso   1.00
H579   H     0.39560   0.28731   0.83670   0.00000  Uiso   1.00
H580   H     0.03652   0.20314   0.79063   0.00000  Uiso   1.00
H581   H     0.42471   0.40816   0.67892   0.00000  Uiso   1.00
H582   H     0.49424   0.24203   0.88571   0.00000  Uiso   1.00
H583   H     0.37662   0.06969   0.74881   0.00000  Uiso   1.00
H584   H     0.24462   0.02478   0.75036   0.00000  Uiso   1.00
H585   H     0.42872   0.12202   0.69738   0.00000  Uiso   1.00
H586   H     0.46169   0.04324   0.79545   0.00000  Uiso   1.00
H587   H     0.09016   0.00504   0.75715   0.00000  Uiso   1.00
H588   H     0.47835   0.21006   0.64544   0.00000  Uiso   1.00
H589   H     0.54788   0.04393   0.85223   0.00000  Uiso   1.00
O590   O     0.97538   0.07873   0.77561   0.00000  Uiso   1.00
O591   O     0.48467   0.34772   0.62905   0.00000  Uiso   1.00
O592   O     0.57589   0.12976   0.90036   0.00000  Uiso   1.00
N593   N     0.06726   0.16267   0.78254   0.00000  Uiso   1.00
N594   N     0.43018   0.35436   0.67809   0.00000  Uiso   1.00
N595   N     0.49520   0.19905   0.87143   0.00000  Uiso   1.00
N596   N     0.09612   0.05608   0.76453   0.00000  Uiso   1.00
N597   N     0.45904   0.24776   0.66008   0.00000  Uiso   1.00
N598   N     0.52406   0.09245   0.85341   0.00000  Uiso   1.00
C599   C     0.82832   0.74806   0.27895   0.00000  Uiso   1.00
C600   C     0.76342   0.69847   0.27555   0.00000  Uiso   1.00
C601   C     0.69278   0.71616   0.28271   0.00000  Uiso   1.00
C602   C     0.64117   0.66329   0.27795   0.00000  Uiso   1.00
C603   C     0.53760   0.59667   0.27440   0.00000  Uiso   1.00
C604   C     0.86344   0.75130   0.24676   0.00000  Uiso   1.00
C605   C     0.87690   0.81341   0.22972   0.00000  Uiso   1.00
C606   C     0.90948   0.80501   0.20073   0.00000  Uiso   1.00
C607   C     0.96123   0.82041   0.15248   0.00000  Uiso   1.00
C608   C     0.88135   0.70849   0.30004   0.00000  Uiso   1.00
C609   C     0.90988   0.73462   0.32780   0.00000  Uiso   1.00
C610   C     0.95756   0.69018   0.34367   0.00000  Uiso   1.00
C611   C     0.03711   0.63912   0.37816   0.00000  Uiso   1.00
C612   C     0.86226   0.62270   0.25777   0.00000  Uiso   1.00
C613   C     0.78186   0.63038   0.26404   0.00000  Uiso   1.00
C614   C     0.73034   0.57747   0.25927   0.00000  Uiso   1.00
C615   C     0.65964   0.59508   0.26643   0.00000  Uiso   1.00
C616   C     0.88188   0.68322   0.23525   0.00000  Uiso   1.00
C617   C     0.91445   0.67472   0.20628   0.00000  Uiso   1.00
C618   C     0.92795   0.73680   0.18920   0.00000  Uiso   1.00
C619   C     0.89978   0.64040   0.28853   0.00000  Uiso   1.00
C620   C     0.94743   0.59592   0.30436   0.00000  Uiso   1.00
C621   C     0.97603   0.62197   0.33214   0.00000  Uiso   1.00
H622   H     0.81396   0.80107   0.28791   0.00000  Uiso   1.00
H623   H     0.67854   0.76886   0.29161   0.00000  Uiso   1.00
H624   H     0.86263   0.86610   0.23863   0.00000  Uiso   1.00
H625   H     0.89560   0.78731   0.33670   0.00000  Uiso   1.00
H626   H     0.53652   0.70314   0.29063   0.00000  Uiso   1.00
H627   H     0.92471   0.90816   0.17892   0.00000  Uiso   1.00
H628   H     0.99424   0.74203   0.38571   0.00000  Uiso   1.00
H629   H     0.87662   0.56969   0.24881   0.00000  Uiso   1.00
H630   H     0.74462   0.52478   0.25036   0.00000  Uiso   1.00
H631   H     0.92872   0.62202   0.19738   0.00000  Uiso   1.00
H632   H     0.96169   0.54324   0.29545   0.00000  Uiso   1.00
H633   H     0.59016   0.50504   0.25715   0.00000  Uiso   1.00
H634   H     0.97835   0.71006   0.14544   0.00000  Uiso   1.00
H635   H     0.04788   0.54393   0.35223   0.00000  Uiso   1.00
O636   O     0.47538   0.57873   0.27561   0.00000  Uiso   1.00
O637   O     0.98467   0.84772   0.12905   0.00000  Uiso   1.00
O638   O     0.07589   0.62976   0.40036   0.00000  Uiso   1.00
N639   N     0.56726   0.66267   0.28254   0.00000  Uiso   1.00
N640   N     0.93018   0.85436   0.17809   0.00000  Uiso   1.00
N641   N     0.99520   0.69905   0.37143   0.00000  Uiso   1.00
N642   N     0.59612   0.55608   0.26453   0.00000  Uiso   1.00
N643   N     0.95904   0.74776   0.16008   0.00000  Uiso   1.00
N644   N     0.02406   0.59245   0.35341   0.00000  Uiso   1.00
C645   C     0.17168   0.25194   0.27895   0.00000  Uiso   1.00
C646   C     0.23658   0.30153   0.27555   0.00000  Uiso   1.00
C647   C     0.30722   0.28384   0.28271   0.00000  Uiso   1.00
C648   C     0.35883   0.33671   0.27795   0.00000  Uiso   1.00
C649   C     0.46240   0.40333   0.27440   0.00000  Uiso   1.00
C650   C     0.13656   0.24870   0.24676   0.00000  Uiso   1.00
C651   C     0.12310   0.18659   0.22972   0.00000  Uiso   1.00
C652   C     0.09052   0.19499   0.20073   0.00000  Uiso   1.00
C653   C     0.03877   0.17959   0.15248   0.00000  Uiso   1.00
C654   C     0.11865   0.29151   0.30004   0.00000  Uiso   1.00
C655   C     0.09012   0.26538   0.32780   0.00000  Uiso   1.00
C656   C     0.04244   0.30982   0.34367   0.00000  Uiso   1.00
C657   C     0.96289   0.36088   0.37816   0.00000  Uiso   1.00
C658   C     0.13774   0.37730   0.25777   0.00000  Uiso   1.00
C659   C     0.21814   0.36962   0.26404   0.00000  Uiso   1.00
C660   C     0.26966   0.42253   0.25927   0.00000  Uiso   1.00
C661   C     0.34036   0.40492   0.26643   0.00000  Uiso   1.00
C662   C     0.11812   0.31678   0.23525   0.00000  Uiso   1.00
C663   C     0.08555   0.32528   0.20628   0.00000  Uiso   1.00
C664   C     0.07205   0.26320   0.18920   0.00000  Uiso   1.00
C665   C     0.10022   0.35960   0.28853   0.00000  Uiso   1.00
C666   C     0.05257   0.40408   0.30436   0.00000  Uiso   1.00
C667   C     0.02397   0.37803   0.33214   0.00000  Uiso   1.00
H668   H     0.18604   0.19893   0.28791   0.00000  Uiso   1.00
H669   H     0.32146   0.23114   0.29161   0.00000  Uiso   1.00
H670   H     0.13737   0.13390   0.23863   0.00000  Uiso   1.00
H671   H     0.10440   0.21269   0.33670   0.00000  Uiso   1.00
H672   H     0.46348   0.29686   0.29063   0.00000  Uiso   1.00
H673   H     0.07529   0.09184   0.17892   0.00000  Uiso   1.00
H674   H     0.00576   0.25797   0.38571   0.00000  Uiso   1.00
H675   H     0.12338   0.43031   0.24881   0.00000  Uiso   1.00
H676   H     0.25538   0.47522   0.25036   0.00000  Uiso   1.00
H677   H     0.07128   0.37798   0.19738   0.00000  Uiso   1.00
H678   H     0.03831   0.45676   0.29545   0.00000  Uiso   1.00
H679   H     0.40984   0.49496   0.25715   0.00000  Uiso   1.00
H680   H     0.02165   0.28994   0.14544   0.00000  Uiso   1.00
H681   H     0.95212   0.45607   0.35223   0.00000  Uiso   1.00
O682   O     0.52462   0.42127   0.27561   0.00000  Uiso   1.00
O683   O     0.01533   0.15228   0.12905   0.00000  Uiso   1.00
O684   O     0.92411   0.37024   0.40036   0.00000  Uiso   1.00
N685   N     0.43274   0.33733   0.28254   0.00000  Uiso   1.00
N686   N     0.06982   0.14564   0.17809   0.00000  Uiso   1.00
N687   N     0.00480   0.30095   0.37143   0.00000  Uiso   1.00
N688   N     0.40388   0.44392   0.26453   0.00000  Uiso   1.00
N689   N     0.04096   0.25224   0.16008   0.00000  Uiso   1.00
N690   N     0.97594   0.40755   0.35341   0.00000  Uiso   1.00
C691   C     0.67168   0.75194   0.77895   0.00000  Uiso   1.00
C692   C     0.73658   0.80153   0.77555   0.00000  Uiso   1.00
C693   C     0.80722   0.78384   0.78271   0.00000  Uiso   1.00
C694   C     0.85883   0.83671   0.77795   0.00000  Uiso   1.00
C695   C     0.96240   0.90333   0.77440   0.00000  Uiso   1.00
C696   C     0.63656   0.74870   0.74676   0.00000  Uiso   1.00
C697   C     0.62310   0.68659   0.72972   0.00000  Uiso   1.00
C698   C     0.59052   0.69499   0.70073   0.00000  Uiso   1.00
C699   C     0.53877   0.67959   0.65248   0.00000  Uiso   1.00
C700   C     0.61865   0.79151   0.80004   0.00000  Uiso   1.00
C701   C     0.59012   0.76538   0.82780   0.00000  Uiso   1.00
C702   C     0.54244   0.80982   0.84367   0.00000  Uiso   1.00
C703   C     0.46289   0.86088   0.87816   0.00000  Uiso   1.00
C704   C     0.63774   0.87730   0.75777   0.00000  Uiso   1.00
C705   C     0.71814   0.86962   0.76404   0.00000  Uiso   1.00
C706   C     0.76966   0.92253   0.75927   0.00000  Uiso   1.00
C707   C     0.84036   0.90492   0.76643   0.00000  Uiso   1.00
C708   C     0.61812   0.81678   0.73525   0.00000  Uiso   1.00
C709   C     0.58555   0.82528   0.70628   0.00000  Uiso   1.00
C710   C     0.57205   0.76320   0.68920   0.00000  Uiso   1.00
C711   C     0.60022   0.85960   0.78853   0.00000  Uiso   1.00
C712   C     0.55257   0.90408   0.80436   0.00000  Uiso   1.00
C713   C     0.52397   0.87803   0.83214   0.00000  Uiso   1.00
H714   H     0.68604   0.69893   0.78791   0.00000  Uiso   1.00
H715   H     0.82146   0.73114   0.79161   0.00000  Uiso   1.00
H716   H     0.63737   0.63390   0.73863   0.00000  Uiso   1.00
H717   H     0.60440   0.71269   0.83670   0.00000  Uiso   1.00
H718   H     0.96348   0.79686   0.79063   0.00000  Uiso   1.00
H719   H     0.57529   0.59184   0.67892   0.00000  Uiso   1.00
H720   H     0.50576   0.75797   0.88571   0.00000  Uiso   1.00
H721   H     0.62338   0.93031   0.74881   0.00000  Uiso   1.00
H722   H     0.75538   0.97522   0.75036   0.00000  Uiso   1.00
H723   H     0.57128   0.87798   0.69738   0.00000  Uiso   1.00
H724   H     0.53831   0.95676   0.79545   0.00000  Uiso   1.00
H725   H     0.90984   0.99496   0.75715   0.00000  Uiso   1.00
H726   H     0.52165   0.78994   0.64544   0.00000  Uiso   1.00
H727   H     0.45212   0.95607   0.85223   0.00000  Uiso   1.00
O728   O     0.02462   0.92127   0.77561   0.00000  Uiso   1.00
O729   O     0.51533   0.65228   0.62905   0.00000  Uiso   1.00
O730   O     0.42411   0.87024   0.90036   0.00000  Uiso   1.00
N731   N     0.93274   0.83733   0.78254   0.00000  Uiso   1.00
N732   N     0.56982   0.64564   0.67809   0.00000  Uiso   1.00
N733   N     0.50480   0.80095   0.87143   0.00000  Uiso   1.00
N734   N     0.90388   0.94392   0.76453   0.00000  Uiso   1.00
N735   N     0.54096   0.75224   0.66008   0.00000  Uiso   1.00
N736   N     0.47594   0.90755   0.85341   0.00000  Uiso   1.00
