data_job_04074
_audit_creation_date              2018-12-19
_audit_creation_method            'Materials Studio'
_symmetry_space_group_name_H-M    'P1'
_symmetry_Int_Tables_number       1
_symmetry_cell_setting            triclinic
loop_
_symmetry_equiv_pos_as_xyz
  x,y,z
_cell_length_a                    24.4948
_cell_length_b                    24.4948
_cell_length_c                    17.5117
_cell_angle_alpha                 90.0000
_cell_angle_beta                  90.0000
_cell_angle_gamma                 90.0000
loop_
_atom_site_label
_atom_site_type_symbol
_atom_site_fract_x
_atom_site_fract_y
_atom_site_fract_z
_atom_site_U_iso_or_equiv
_atom_site_adp_type
_atom_site_occupancy
C1     C     0.24662   0.47894   0.57466   0.00000  Uiso   1.00
C2     C     0.29433   0.44241   0.59744   0.00000  Uiso   1.00
C3     C     0.33345   0.42142   0.54820   0.00000  Uiso   1.00
C4     C     0.37379   0.38883   0.58020   0.00000  Uiso   1.00
C5     C     0.44768   0.33378   0.60363   0.00000  Uiso   1.00
C6     C     0.19521   0.44993   0.60234   0.00000  Uiso   1.00
C7     C     0.15100   0.43528   0.55723   0.00000  Uiso   1.00
C8     C     0.10790   0.40903   0.59336   0.00000  Uiso   1.00
C9     C     0.02790   0.36570   0.62442   0.00000  Uiso   1.00
C10    C     0.25175   0.53040   0.62313   0.00000  Uiso   1.00
C11    C     0.25505   0.58340   0.59551   0.00000  Uiso   1.00
C12    C     0.25954   0.62491   0.64914   0.00000  Uiso   1.00
C13    C     0.26732   0.70651   0.71248   0.00000  Uiso   1.00
C14    C     0.24871   0.45840   0.71903   0.00000  Uiso   1.00
C15    C     0.29546   0.43125   0.67586   0.00000  Uiso   1.00
C16    C     0.33576   0.39869   0.70793   0.00000  Uiso   1.00
C17    C     0.37493   0.37765   0.65876   0.00000  Uiso   1.00
C18    C     0.19635   0.43878   0.68076   0.00000  Uiso   1.00
C19    C     0.15331   0.41255   0.71696   0.00000  Uiso   1.00
C20    C     0.10904   0.39785   0.67192   0.00000  Uiso   1.00
C21    C     0.25289   0.51925   0.70155   0.00000  Uiso   1.00
C22    C     0.25737   0.56068   0.75524   0.00000  Uiso   1.00
C23    C     0.26068   0.61373   0.72770   0.00000  Uiso   1.00
H24    H     0.24573   0.48762   0.51361   0.00000  Uiso   1.00
H25    H     0.33255   0.43005   0.48752   0.00000  Uiso   1.00
H26    H     0.15013   0.44392   0.49655   0.00000  Uiso   1.00
H27    H     0.25417   0.59202   0.53482   0.00000  Uiso   1.00
H28    H     0.42929   0.36129   0.49317   0.00000  Uiso   1.00
H29    H     0.04464   0.39054   0.51222   0.00000  Uiso   1.00
H30    H     0.26403   0.70284   0.59292   0.00000  Uiso   1.00
H31    H     0.24959   0.44972   0.78009   0.00000  Uiso   1.00
H32    H     0.33663   0.39007   0.76862   0.00000  Uiso   1.00
H33    H     0.15420   0.40393   0.77765   0.00000  Uiso   1.00
H34    H     0.25824   0.55203   0.81592   0.00000  Uiso   1.00
H35    H     0.43260   0.32883   0.72132   0.00000  Uiso   1.00
H36    H     0.04794   0.35808   0.74037   0.00000  Uiso   1.00
H37    H     0.26733   0.67038   0.82107   0.00000  Uiso   1.00
O38    O     0.48811   0.30649   0.59489   0.00000  Uiso   1.00
O39    O     0.98346   0.34488   0.61988   0.00000  Uiso   1.00
O40    O     0.27130   0.75460   0.72576   0.00000  Uiso   1.00
N41    N     0.41813   0.36185   0.54844   0.00000  Uiso   1.00
N42    N     0.05850   0.38919   0.56625   0.00000  Uiso   1.00
N43    N     0.26360   0.68116   0.64170   0.00000  Uiso   1.00
N44    N     0.41991   0.34438   0.67121   0.00000  Uiso   1.00
N45    N     0.06028   0.37172   0.68902   0.00000  Uiso   1.00
N46    N     0.26538   0.66370   0.76447   0.00000  Uiso   1.00
C47    C     0.74662   0.97894   0.07466   0.00000  Uiso   1.00
C48    C     0.79433   0.94241   0.09744   0.00000  Uiso   1.00
C49    C     0.83345   0.92142   0.04820   0.00000  Uiso   1.00
C50    C     0.87379   0.88883   0.08020   0.00000  Uiso   1.00
C51    C     0.94768   0.83378   0.10363   0.00000  Uiso   1.00
C52    C     0.69521   0.94993   0.10234   0.00000  Uiso   1.00
C53    C     0.65100   0.93528   0.05723   0.00000  Uiso   1.00
C54    C     0.60790   0.90903   0.09336   0.00000  Uiso   1.00
C55    C     0.52790   0.86570   0.12442   0.00000  Uiso   1.00
C56    C     0.75175   0.03040   0.12313   0.00000  Uiso   1.00
C57    C     0.75505   0.08340   0.09551   0.00000  Uiso   1.00
C58    C     0.75954   0.12491   0.14914   0.00000  Uiso   1.00
C59    C     0.76732   0.20651   0.21248   0.00000  Uiso   1.00
C60    C     0.74871   0.95840   0.21903   0.00000  Uiso   1.00
C61    C     0.79546   0.93125   0.17586   0.00000  Uiso   1.00
C62    C     0.83576   0.89869   0.20793   0.00000  Uiso   1.00
C63    C     0.87493   0.87765   0.15876   0.00000  Uiso   1.00
C64    C     0.69635   0.93878   0.18076   0.00000  Uiso   1.00
C65    C     0.65331   0.91255   0.21696   0.00000  Uiso   1.00
C66    C     0.60904   0.89785   0.17192   0.00000  Uiso   1.00
C67    C     0.75289   0.01925   0.20155   0.00000  Uiso   1.00
C68    C     0.75737   0.06068   0.25524   0.00000  Uiso   1.00
C69    C     0.76068   0.11373   0.22770   0.00000  Uiso   1.00
H70    H     0.74573   0.98762   0.01361   0.00000  Uiso   1.00
H71    H     0.83255   0.93005   0.98752   0.00000  Uiso   1.00
H72    H     0.65013   0.94392   0.99655   0.00000  Uiso   1.00
H73    H     0.75417   0.09202   0.03482   0.00000  Uiso   1.00
H74    H     0.92929   0.86129   0.99317   0.00000  Uiso   1.00
H75    H     0.54464   0.89054   0.01222   0.00000  Uiso   1.00
H76    H     0.76403   0.20284   0.09292   0.00000  Uiso   1.00
H77    H     0.74959   0.94972   0.28009   0.00000  Uiso   1.00
H78    H     0.83663   0.89007   0.26862   0.00000  Uiso   1.00
H79    H     0.65420   0.90393   0.27765   0.00000  Uiso   1.00
H80    H     0.75824   0.05203   0.31592   0.00000  Uiso   1.00
H81    H     0.93260   0.82883   0.22132   0.00000  Uiso   1.00
H82    H     0.54794   0.85808   0.24037   0.00000  Uiso   1.00
H83    H     0.76733   0.17038   0.32107   0.00000  Uiso   1.00
O84    O     0.98811   0.80649   0.09489   0.00000  Uiso   1.00
O85    O     0.48346   0.84488   0.11988   0.00000  Uiso   1.00
O86    O     0.77130   0.25460   0.22576   0.00000  Uiso   1.00
N87    N     0.91813   0.86185   0.04844   0.00000  Uiso   1.00
N88    N     0.55850   0.88919   0.06625   0.00000  Uiso   1.00
N89    N     0.76360   0.18116   0.14170   0.00000  Uiso   1.00
N90    N     0.91991   0.84438   0.17121   0.00000  Uiso   1.00
N91    N     0.56028   0.87172   0.18902   0.00000  Uiso   1.00
N92    N     0.76538   0.16370   0.26447   0.00000  Uiso   1.00
C93    C     0.75338   0.52106   0.57466   0.00000  Uiso   1.00
C94    C     0.70567   0.55759   0.59744   0.00000  Uiso   1.00
C95    C     0.66655   0.57858   0.54820   0.00000  Uiso   1.00
C96    C     0.62621   0.61117   0.58020   0.00000  Uiso   1.00
C97    C     0.55232   0.66622   0.60363   0.00000  Uiso   1.00
C98    C     0.80479   0.55007   0.60234   0.00000  Uiso   1.00
C99    C     0.84900   0.56472   0.55723   0.00000  Uiso   1.00
C100   C     0.89210   0.59097   0.59336   0.00000  Uiso   1.00
C101   C     0.97210   0.63430   0.62442   0.00000  Uiso   1.00
C102   C     0.74825   0.46960   0.62313   0.00000  Uiso   1.00
C103   C     0.74495   0.41660   0.59551   0.00000  Uiso   1.00
C104   C     0.74046   0.37509   0.64914   0.00000  Uiso   1.00
C105   C     0.73268   0.29349   0.71248   0.00000  Uiso   1.00
C106   C     0.75129   0.54160   0.71903   0.00000  Uiso   1.00
C107   C     0.70454   0.56875   0.67586   0.00000  Uiso   1.00
C108   C     0.66424   0.60131   0.70793   0.00000  Uiso   1.00
C109   C     0.62507   0.62235   0.65876   0.00000  Uiso   1.00
C110   C     0.80365   0.56122   0.68076   0.00000  Uiso   1.00
C111   C     0.84669   0.58745   0.71696   0.00000  Uiso   1.00
C112   C     0.89096   0.60215   0.67192   0.00000  Uiso   1.00
C113   C     0.74711   0.48075   0.70155   0.00000  Uiso   1.00
C114   C     0.74263   0.43932   0.75524   0.00000  Uiso   1.00
C115   C     0.73932   0.38627   0.72770   0.00000  Uiso   1.00
H116   H     0.75427   0.51238   0.51361   0.00000  Uiso   1.00
H117   H     0.66745   0.56995   0.48752   0.00000  Uiso   1.00
H118   H     0.84987   0.55608   0.49655   0.00000  Uiso   1.00
H119   H     0.74583   0.40798   0.53482   0.00000  Uiso   1.00
H120   H     0.57071   0.63871   0.49317   0.00000  Uiso   1.00
H121   H     0.95536   0.60946   0.51222   0.00000  Uiso   1.00
H122   H     0.73597   0.29716   0.59292   0.00000  Uiso   1.00
H123   H     0.75041   0.55028   0.78009   0.00000  Uiso   1.00
H124   H     0.66337   0.60993   0.76862   0.00000  Uiso   1.00
H125   H     0.84580   0.59607   0.77765   0.00000  Uiso   1.00
H126   H     0.74176   0.44797   0.81592   0.00000  Uiso   1.00
H127   H     0.56740   0.67117   0.72132   0.00000  Uiso   1.00
H128   H     0.95206   0.64192   0.74037   0.00000  Uiso   1.00
H129   H     0.73267   0.32962   0.82107   0.00000  Uiso   1.00
O130   O     0.51189   0.69351   0.59489   0.00000  Uiso   1.00
O131   O     0.01654   0.65512   0.61988   0.00000  Uiso   1.00
O132   O     0.72870   0.24540   0.72576   0.00000  Uiso   1.00
N133   N     0.58187   0.63815   0.54844   0.00000  Uiso   1.00
N134   N     0.94150   0.61081   0.56625   0.00000  Uiso   1.00
N135   N     0.73640   0.31884   0.64170   0.00000  Uiso   1.00
N136   N     0.58009   0.65562   0.67121   0.00000  Uiso   1.00
N137   N     0.93972   0.62828   0.68902   0.00000  Uiso   1.00
N138   N     0.73462   0.33630   0.76447   0.00000  Uiso   1.00
C139   C     0.25338   0.02106   0.07466   0.00000  Uiso   1.00
C140   C     0.20567   0.05759   0.09744   0.00000  Uiso   1.00
C141   C     0.16655   0.07858   0.04820   0.00000  Uiso   1.00
C142   C     0.12621   0.11117   0.08020   0.00000  Uiso   1.00
C143   C     0.05232   0.16622   0.10363   0.00000  Uiso   1.00
C144   C     0.30479   0.05007   0.10234   0.00000  Uiso   1.00
C145   C     0.34900   0.06472   0.05723   0.00000  Uiso   1.00
C146   C     0.39210   0.09097   0.09336   0.00000  Uiso   1.00
C147   C     0.47210   0.13430   0.12442   0.00000  Uiso   1.00
C148   C     0.24825   0.96960   0.12313   0.00000  Uiso   1.00
C149   C     0.24495   0.91660   0.09551   0.00000  Uiso   1.00
C150   C     0.24046   0.87509   0.14914   0.00000  Uiso   1.00
C151   C     0.23268   0.79349   0.21248   0.00000  Uiso   1.00
C152   C     0.25129   0.04160   0.21903   0.00000  Uiso   1.00
C153   C     0.20454   0.06875   0.17586   0.00000  Uiso   1.00
C154   C     0.16424   0.10131   0.20793   0.00000  Uiso   1.00
C155   C     0.12507   0.12235   0.15876   0.00000  Uiso   1.00
C156   C     0.30365   0.06122   0.18076   0.00000  Uiso   1.00
C157   C     0.34669   0.08745   0.21696   0.00000  Uiso   1.00
C158   C     0.39096   0.10215   0.17192   0.00000  Uiso   1.00
C159   C     0.24711   0.98075   0.20155   0.00000  Uiso   1.00
C160   C     0.24263   0.93932   0.25524   0.00000  Uiso   1.00
C161   C     0.23932   0.88627   0.22770   0.00000  Uiso   1.00
H162   H     0.25427   0.01238   0.01361   0.00000  Uiso   1.00
H163   H     0.16745   0.06995   0.98752   0.00000  Uiso   1.00
H164   H     0.34987   0.05608   0.99655   0.00000  Uiso   1.00
H165   H     0.24583   0.90798   0.03482   0.00000  Uiso   1.00
H166   H     0.07071   0.13871   0.99317   0.00000  Uiso   1.00
H167   H     0.45536   0.10946   0.01222   0.00000  Uiso   1.00
H168   H     0.23597   0.79716   0.09292   0.00000  Uiso   1.00
H169   H     0.25041   0.05028   0.28009   0.00000  Uiso   1.00
H170   H     0.16337   0.10993   0.26862   0.00000  Uiso   1.00
H171   H     0.34580   0.09607   0.27765   0.00000  Uiso   1.00
H172   H     0.24176   0.94797   0.31592   0.00000  Uiso   1.00
H173   H     0.06740   0.17117   0.22132   0.00000  Uiso   1.00
H174   H     0.45206   0.14192   0.24037   0.00000  Uiso   1.00
H175   H     0.23267   0.82962   0.32107   0.00000  Uiso   1.00
O176   O     0.01189   0.19351   0.09489   0.00000  Uiso   1.00
O177   O     0.51654   0.15512   0.11988   0.00000  Uiso   1.00
O178   O     0.22870   0.74540   0.22576   0.00000  Uiso   1.00
N179   N     0.08187   0.13815   0.04844   0.00000  Uiso   1.00
N180   N     0.44150   0.11081   0.06625   0.00000  Uiso   1.00
N181   N     0.23640   0.81884   0.14170   0.00000  Uiso   1.00
N182   N     0.08009   0.15562   0.17121   0.00000  Uiso   1.00
N183   N     0.43972   0.12828   0.18902   0.00000  Uiso   1.00
N184   N     0.23462   0.83630   0.26447   0.00000  Uiso   1.00
C185   C     0.47894   0.75338   0.42534   0.00000  Uiso   1.00
C186   C     0.44241   0.70567   0.40256   0.00000  Uiso   1.00
C187   C     0.42142   0.66655   0.45180   0.00000  Uiso   1.00
C188   C     0.38883   0.62621   0.41980   0.00000  Uiso   1.00
C189   C     0.33378   0.55232   0.39637   0.00000  Uiso   1.00
C190   C     0.44993   0.80479   0.39766   0.00000  Uiso   1.00
C191   C     0.43528   0.84900   0.44277   0.00000  Uiso   1.00
C192   C     0.40903   0.89210   0.40664   0.00000  Uiso   1.00
C193   C     0.36570   0.97210   0.37558   0.00000  Uiso   1.00
C194   C     0.53040   0.74825   0.37687   0.00000  Uiso   1.00
C195   C     0.58340   0.74495   0.40449   0.00000  Uiso   1.00
C196   C     0.62491   0.74046   0.35086   0.00000  Uiso   1.00
C197   C     0.70651   0.73268   0.28752   0.00000  Uiso   1.00
C198   C     0.45840   0.75129   0.28097   0.00000  Uiso   1.00
C199   C     0.43125   0.70454   0.32414   0.00000  Uiso   1.00
C200   C     0.39869   0.66424   0.29207   0.00000  Uiso   1.00
C201   C     0.37765   0.62507   0.34124   0.00000  Uiso   1.00
C202   C     0.43878   0.80365   0.31924   0.00000  Uiso   1.00
C203   C     0.41255   0.84669   0.28304   0.00000  Uiso   1.00
C204   C     0.39785   0.89096   0.32808   0.00000  Uiso   1.00
C205   C     0.51925   0.74711   0.29845   0.00000  Uiso   1.00
C206   C     0.56068   0.74263   0.24476   0.00000  Uiso   1.00
C207   C     0.61373   0.73932   0.27230   0.00000  Uiso   1.00
H208   H     0.48762   0.75427   0.48639   0.00000  Uiso   1.00
H209   H     0.43005   0.66745   0.51248   0.00000  Uiso   1.00
H210   H     0.44392   0.84987   0.50345   0.00000  Uiso   1.00
H211   H     0.59202   0.74583   0.46518   0.00000  Uiso   1.00
H212   H     0.36129   0.57071   0.50683   0.00000  Uiso   1.00
H213   H     0.39054   0.95536   0.48778   0.00000  Uiso   1.00
H214   H     0.70284   0.73597   0.40708   0.00000  Uiso   1.00
H215   H     0.44972   0.75041   0.21991   0.00000  Uiso   1.00
H216   H     0.39007   0.66337   0.23138   0.00000  Uiso   1.00
H217   H     0.40393   0.84580   0.22235   0.00000  Uiso   1.00
H218   H     0.55203   0.74176   0.18408   0.00000  Uiso   1.00
H219   H     0.32883   0.56740   0.27868   0.00000  Uiso   1.00
H220   H     0.35808   0.95206   0.25963   0.00000  Uiso   1.00
H221   H     0.67038   0.73267   0.17893   0.00000  Uiso   1.00
O222   O     0.30649   0.51189   0.40511   0.00000  Uiso   1.00
O223   O     0.34488   0.01654   0.38012   0.00000  Uiso   1.00
O224   O     0.75460   0.72870   0.27424   0.00000  Uiso   1.00
N225   N     0.36185   0.58187   0.45156   0.00000  Uiso   1.00
N226   N     0.38919   0.94150   0.43375   0.00000  Uiso   1.00
N227   N     0.68116   0.73640   0.35830   0.00000  Uiso   1.00
N228   N     0.34438   0.58009   0.32879   0.00000  Uiso   1.00
N229   N     0.37172   0.93972   0.31098   0.00000  Uiso   1.00
N230   N     0.66370   0.73462   0.23553   0.00000  Uiso   1.00
C231   C     0.97894   0.25338   0.92534   0.00000  Uiso   1.00
C232   C     0.94241   0.20567   0.90256   0.00000  Uiso   1.00
C233   C     0.92142   0.16655   0.95180   0.00000  Uiso   1.00
C234   C     0.88883   0.12621   0.91980   0.00000  Uiso   1.00
C235   C     0.83378   0.05232   0.89637   0.00000  Uiso   1.00
C236   C     0.94993   0.30479   0.89766   0.00000  Uiso   1.00
C237   C     0.93528   0.34900   0.94277   0.00000  Uiso   1.00
C238   C     0.90903   0.39210   0.90664   0.00000  Uiso   1.00
C239   C     0.86570   0.47210   0.87558   0.00000  Uiso   1.00
C240   C     0.03040   0.24825   0.87687   0.00000  Uiso   1.00
C241   C     0.08340   0.24495   0.90449   0.00000  Uiso   1.00
C242   C     0.12491   0.24046   0.85086   0.00000  Uiso   1.00
C243   C     0.20651   0.23268   0.78752   0.00000  Uiso   1.00
C244   C     0.95840   0.25129   0.78097   0.00000  Uiso   1.00
C245   C     0.93125   0.20454   0.82414   0.00000  Uiso   1.00
C246   C     0.89869   0.16424   0.79207   0.00000  Uiso   1.00
C247   C     0.87765   0.12507   0.84124   0.00000  Uiso   1.00
C248   C     0.93878   0.30365   0.81924   0.00000  Uiso   1.00
C249   C     0.91255   0.34669   0.78304   0.00000  Uiso   1.00
C250   C     0.89785   0.39096   0.82808   0.00000  Uiso   1.00
C251   C     0.01925   0.24711   0.79845   0.00000  Uiso   1.00
C252   C     0.06068   0.24263   0.74476   0.00000  Uiso   1.00
C253   C     0.11373   0.23932   0.77230   0.00000  Uiso   1.00
H254   H     0.98762   0.25427   0.98639   0.00000  Uiso   1.00
H255   H     0.93005   0.16745   0.01248   0.00000  Uiso   1.00
H256   H     0.94392   0.34987   0.00345   0.00000  Uiso   1.00
H257   H     0.09202   0.24583   0.96518   0.00000  Uiso   1.00
H258   H     0.86129   0.07071   0.00683   0.00000  Uiso   1.00
H259   H     0.89054   0.45536   0.98778   0.00000  Uiso   1.00
H260   H     0.20284   0.23597   0.90708   0.00000  Uiso   1.00
H261   H     0.94972   0.25041   0.71991   0.00000  Uiso   1.00
H262   H     0.89007   0.16337   0.73138   0.00000  Uiso   1.00
H263   H     0.90393   0.34580   0.72235   0.00000  Uiso   1.00
H264   H     0.05203   0.24176   0.68408   0.00000  Uiso   1.00
H265   H     0.82883   0.06740   0.77868   0.00000  Uiso   1.00
H266   H     0.85808   0.45206   0.75963   0.00000  Uiso   1.00
H267   H     0.17038   0.23267   0.67893   0.00000  Uiso   1.00
O268   O     0.80649   0.01189   0.90511   0.00000  Uiso   1.00
O269   O     0.84488   0.51654   0.88012   0.00000  Uiso   1.00
O270   O     0.25460   0.22870   0.77424   0.00000  Uiso   1.00
N271   N     0.86185   0.08187   0.95156   0.00000  Uiso   1.00
N272   N     0.88919   0.44150   0.93375   0.00000  Uiso   1.00
N273   N     0.18116   0.23640   0.85830   0.00000  Uiso   1.00
N274   N     0.84438   0.08009   0.82879   0.00000  Uiso   1.00
N275   N     0.87172   0.43972   0.81098   0.00000  Uiso   1.00
N276   N     0.16370   0.23462   0.73553   0.00000  Uiso   1.00
C277   C     0.52106   0.24662   0.42534   0.00000  Uiso   1.00
C278   C     0.55759   0.29433   0.40256   0.00000  Uiso   1.00
C279   C     0.57858   0.33345   0.45180   0.00000  Uiso   1.00
C280   C     0.61117   0.37379   0.41980   0.00000  Uiso   1.00
C281   C     0.66622   0.44768   0.39637   0.00000  Uiso   1.00
C282   C     0.55007   0.19521   0.39766   0.00000  Uiso   1.00
C283   C     0.56472   0.15100   0.44277   0.00000  Uiso   1.00
C284   C     0.59097   0.10790   0.40664   0.00000  Uiso   1.00
C285   C     0.63430   0.02790   0.37558   0.00000  Uiso   1.00
C286   C     0.46960   0.25175   0.37687   0.00000  Uiso   1.00
C287   C     0.41660   0.25505   0.40449   0.00000  Uiso   1.00
C288   C     0.37509   0.25954   0.35086   0.00000  Uiso   1.00
C289   C     0.29349   0.26732   0.28752   0.00000  Uiso   1.00
C290   C     0.54160   0.24871   0.28097   0.00000  Uiso   1.00
C291   C     0.56875   0.29546   0.32414   0.00000  Uiso   1.00
C292   C     0.60131   0.33576   0.29207   0.00000  Uiso   1.00
C293   C     0.62235   0.37493   0.34124   0.00000  Uiso   1.00
C294   C     0.56122   0.19635   0.31924   0.00000  Uiso   1.00
C295   C     0.58745   0.15331   0.28304   0.00000  Uiso   1.00
C296   C     0.60215   0.10904   0.32808   0.00000  Uiso   1.00
C297   C     0.48075   0.25289   0.29845   0.00000  Uiso   1.00
C298   C     0.43932   0.25737   0.24476   0.00000  Uiso   1.00
C299   C     0.38627   0.26068   0.27230   0.00000  Uiso   1.00
H300   H     0.51238   0.24573   0.48639   0.00000  Uiso   1.00
H301   H     0.56995   0.33255   0.51248   0.00000  Uiso   1.00
H302   H     0.55608   0.15013   0.50345   0.00000  Uiso   1.00
H303   H     0.40798   0.25417   0.46518   0.00000  Uiso   1.00
H304   H     0.63871   0.42929   0.50683   0.00000  Uiso   1.00
H305   H     0.60946   0.04464   0.48778   0.00000  Uiso   1.00
H306   H     0.29716   0.26403   0.40708   0.00000  Uiso   1.00
H307   H     0.55028   0.24959   0.21991   0.00000  Uiso   1.00
H308   H     0.60993   0.33663   0.23138   0.00000  Uiso   1.00
H309   H     0.59607   0.15420   0.22235   0.00000  Uiso   1.00
H310   H     0.44797   0.25824   0.18408   0.00000  Uiso   1.00
H311   H     0.67117   0.43260   0.27868   0.00000  Uiso   1.00
H312   H     0.64192   0.04794   0.25963   0.00000  Uiso   1.00
H313   H     0.32962   0.26733   0.17893   0.00000  Uiso   1.00
O314   O     0.69351   0.48811   0.40511   0.00000  Uiso   1.00
O315   O     0.65512   0.98346   0.38012   0.00000  Uiso   1.00
O316   O     0.24540   0.27130   0.27424   0.00000  Uiso   1.00
N317   N     0.63815   0.41813   0.45156   0.00000  Uiso   1.00
N318   N     0.61081   0.05850   0.43375   0.00000  Uiso   1.00
N319   N     0.31884   0.26360   0.35830   0.00000  Uiso   1.00
N320   N     0.65562   0.41991   0.32879   0.00000  Uiso   1.00
N321   N     0.62828   0.06028   0.31098   0.00000  Uiso   1.00
N322   N     0.33630   0.26538   0.23553   0.00000  Uiso   1.00
C323   C     0.02106   0.74662   0.92534   0.00000  Uiso   1.00
C324   C     0.05759   0.79433   0.90256   0.00000  Uiso   1.00
C325   C     0.07858   0.83345   0.95180   0.00000  Uiso   1.00
C326   C     0.11117   0.87379   0.91980   0.00000  Uiso   1.00
C327   C     0.16622   0.94768   0.89637   0.00000  Uiso   1.00
C328   C     0.05007   0.69521   0.89766   0.00000  Uiso   1.00
C329   C     0.06472   0.65100   0.94277   0.00000  Uiso   1.00
C330   C     0.09097   0.60790   0.90664   0.00000  Uiso   1.00
C331   C     0.13430   0.52790   0.87558   0.00000  Uiso   1.00
C332   C     0.96960   0.75175   0.87687   0.00000  Uiso   1.00
C333   C     0.91660   0.75505   0.90449   0.00000  Uiso   1.00
C334   C     0.87509   0.75954   0.85086   0.00000  Uiso   1.00
C335   C     0.79349   0.76732   0.78752   0.00000  Uiso   1.00
C336   C     0.04160   0.74871   0.78097   0.00000  Uiso   1.00
C337   C     0.06875   0.79546   0.82414   0.00000  Uiso   1.00
C338   C     0.10131   0.83576   0.79207   0.00000  Uiso   1.00
C339   C     0.12235   0.87493   0.84124   0.00000  Uiso   1.00
C340   C     0.06122   0.69635   0.81924   0.00000  Uiso   1.00
C341   C     0.08745   0.65331   0.78304   0.00000  Uiso   1.00
C342   C     0.10215   0.60904   0.82808   0.00000  Uiso   1.00
C343   C     0.98075   0.75289   0.79845   0.00000  Uiso   1.00
C344   C     0.93932   0.75737   0.74476   0.00000  Uiso   1.00
C345   C     0.88627   0.76068   0.77230   0.00000  Uiso   1.00
H346   H     0.01238   0.74573   0.98639   0.00000  Uiso   1.00
H347   H     0.06995   0.83255   0.01248   0.00000  Uiso   1.00
H348   H     0.05608   0.65013   0.00345   0.00000  Uiso   1.00
H349   H     0.90798   0.75417   0.96518   0.00000  Uiso   1.00
H350   H     0.13871   0.92929   0.00683   0.00000  Uiso   1.00
H351   H     0.10946   0.54464   0.98778   0.00000  Uiso   1.00
H352   H     0.79716   0.76403   0.90708   0.00000  Uiso   1.00
H353   H     0.05028   0.74959   0.71991   0.00000  Uiso   1.00
H354   H     0.10993   0.83663   0.73138   0.00000  Uiso   1.00
H355   H     0.09607   0.65420   0.72235   0.00000  Uiso   1.00
H356   H     0.94797   0.75824   0.68408   0.00000  Uiso   1.00
H357   H     0.17117   0.93260   0.77868   0.00000  Uiso   1.00
H358   H     0.14192   0.54794   0.75963   0.00000  Uiso   1.00
H359   H     0.82962   0.76733   0.67893   0.00000  Uiso   1.00
O360   O     0.19351   0.98811   0.90511   0.00000  Uiso   1.00
O361   O     0.15512   0.48346   0.88012   0.00000  Uiso   1.00
O362   O     0.74540   0.77130   0.77424   0.00000  Uiso   1.00
N363   N     0.13815   0.91813   0.95156   0.00000  Uiso   1.00
N364   N     0.11081   0.55850   0.93375   0.00000  Uiso   1.00
N365   N     0.81884   0.76360   0.85830   0.00000  Uiso   1.00
N366   N     0.15562   0.91991   0.82879   0.00000  Uiso   1.00
N367   N     0.12828   0.56028   0.81098   0.00000  Uiso   1.00
N368   N     0.83630   0.76538   0.73553   0.00000  Uiso   1.00
C369   C     0.25338   0.47894   0.17534   0.00000  Uiso   1.00
C370   C     0.20567   0.44241   0.15256   0.00000  Uiso   1.00
C371   C     0.16655   0.42142   0.20180   0.00000  Uiso   1.00
C372   C     0.12621   0.38883   0.16980   0.00000  Uiso   1.00
C373   C     0.05232   0.33378   0.14637   0.00000  Uiso   1.00
C374   C     0.30479   0.44993   0.14766   0.00000  Uiso   1.00
C375   C     0.34900   0.43528   0.19277   0.00000  Uiso   1.00
C376   C     0.39210   0.40903   0.15664   0.00000  Uiso   1.00
C377   C     0.47210   0.36570   0.12558   0.00000  Uiso   1.00
C378   C     0.24825   0.53040   0.12687   0.00000  Uiso   1.00
C379   C     0.24495   0.58340   0.15449   0.00000  Uiso   1.00
C380   C     0.24046   0.62491   0.10086   0.00000  Uiso   1.00
C381   C     0.23268   0.70651   0.03752   0.00000  Uiso   1.00
C382   C     0.25129   0.45840   0.03097   0.00000  Uiso   1.00
C383   C     0.20454   0.43125   0.07414   0.00000  Uiso   1.00
C384   C     0.16424   0.39869   0.04207   0.00000  Uiso   1.00
C385   C     0.12507   0.37765   0.09124   0.00000  Uiso   1.00
C386   C     0.30365   0.43878   0.06924   0.00000  Uiso   1.00
C387   C     0.34669   0.41255   0.03304   0.00000  Uiso   1.00
C388   C     0.39096   0.39785   0.07808   0.00000  Uiso   1.00
C389   C     0.24711   0.51925   0.04845   0.00000  Uiso   1.00
C390   C     0.24263   0.56068   0.99476   0.00000  Uiso   1.00
C391   C     0.23932   0.61373   0.02230   0.00000  Uiso   1.00
H392   H     0.25427   0.48762   0.23639   0.00000  Uiso   1.00
H393   H     0.16745   0.43005   0.26248   0.00000  Uiso   1.00
H394   H     0.34987   0.44392   0.25345   0.00000  Uiso   1.00
H395   H     0.24583   0.59202   0.21518   0.00000  Uiso   1.00
H396   H     0.07071   0.36129   0.25683   0.00000  Uiso   1.00
H397   H     0.45536   0.39054   0.23778   0.00000  Uiso   1.00
H398   H     0.23597   0.70284   0.15708   0.00000  Uiso   1.00
H399   H     0.25041   0.44972   0.96991   0.00000  Uiso   1.00
H400   H     0.16337   0.39007   0.98138   0.00000  Uiso   1.00
H401   H     0.34580   0.40393   0.97235   0.00000  Uiso   1.00
H402   H     0.24176   0.55203   0.93408   0.00000  Uiso   1.00
H403   H     0.06740   0.32883   0.02868   0.00000  Uiso   1.00
H404   H     0.45206   0.35808   0.00963   0.00000  Uiso   1.00
H405   H     0.23267   0.67038   0.92893   0.00000  Uiso   1.00
O406   O     0.01189   0.30649   0.15511   0.00000  Uiso   1.00
O407   O     0.51654   0.34488   0.13012   0.00000  Uiso   1.00
O408   O     0.22870   0.75460   0.02424   0.00000  Uiso   1.00
N409   N     0.08187   0.36185   0.20156   0.00000  Uiso   1.00
N410   N     0.44150   0.38919   0.18375   0.00000  Uiso   1.00
N411   N     0.23640   0.68116   0.10830   0.00000  Uiso   1.00
N412   N     0.08009   0.34438   0.07879   0.00000  Uiso   1.00
N413   N     0.43972   0.37172   0.06098   0.00000  Uiso   1.00
N414   N     0.23462   0.66370   0.98553   0.00000  Uiso   1.00
C415   C     0.75338   0.97894   0.67534   0.00000  Uiso   1.00
C416   C     0.70567   0.94241   0.65256   0.00000  Uiso   1.00
C417   C     0.66655   0.92142   0.70180   0.00000  Uiso   1.00
C418   C     0.62621   0.88883   0.66980   0.00000  Uiso   1.00
C419   C     0.55232   0.83378   0.64637   0.00000  Uiso   1.00
C420   C     0.80479   0.94993   0.64766   0.00000  Uiso   1.00
C421   C     0.84900   0.93528   0.69277   0.00000  Uiso   1.00
C422   C     0.89210   0.90903   0.65664   0.00000  Uiso   1.00
C423   C     0.97210   0.86570   0.62558   0.00000  Uiso   1.00
C424   C     0.74825   0.03040   0.62687   0.00000  Uiso   1.00
C425   C     0.74495   0.08340   0.65449   0.00000  Uiso   1.00
C426   C     0.74046   0.12491   0.60086   0.00000  Uiso   1.00
C427   C     0.73268   0.20651   0.53752   0.00000  Uiso   1.00
C428   C     0.75129   0.95840   0.53097   0.00000  Uiso   1.00
C429   C     0.70454   0.93125   0.57414   0.00000  Uiso   1.00
C430   C     0.66424   0.89869   0.54207   0.00000  Uiso   1.00
C431   C     0.62507   0.87765   0.59124   0.00000  Uiso   1.00
C432   C     0.80365   0.93878   0.56924   0.00000  Uiso   1.00
C433   C     0.84669   0.91255   0.53304   0.00000  Uiso   1.00
C434   C     0.89096   0.89785   0.57808   0.00000  Uiso   1.00
C435   C     0.74711   0.01925   0.54845   0.00000  Uiso   1.00
C436   C     0.74263   0.06068   0.49476   0.00000  Uiso   1.00
C437   C     0.73932   0.11373   0.52230   0.00000  Uiso   1.00
H438   H     0.75427   0.98762   0.73639   0.00000  Uiso   1.00
H439   H     0.66745   0.93005   0.76248   0.00000  Uiso   1.00
H440   H     0.84987   0.94392   0.75345   0.00000  Uiso   1.00
H441   H     0.74583   0.09202   0.71518   0.00000  Uiso   1.00
H442   H     0.57071   0.86129   0.75683   0.00000  Uiso   1.00
H443   H     0.95536   0.89054   0.73778   0.00000  Uiso   1.00
H444   H     0.73597   0.20284   0.65708   0.00000  Uiso   1.00
H445   H     0.75041   0.94972   0.46991   0.00000  Uiso   1.00
H446   H     0.66337   0.89007   0.48138   0.00000  Uiso   1.00
H447   H     0.84580   0.90393   0.47235   0.00000  Uiso   1.00
H448   H     0.74176   0.05203   0.43408   0.00000  Uiso   1.00
H449   H     0.56740   0.82883   0.52868   0.00000  Uiso   1.00
H450   H     0.95206   0.85808   0.50963   0.00000  Uiso   1.00
H451   H     0.73267   0.17038   0.42893   0.00000  Uiso   1.00
O452   O     0.51189   0.80649   0.65511   0.00000  Uiso   1.00
O453   O     0.01654   0.84488   0.63012   0.00000  Uiso   1.00
O454   O     0.72870   0.25460   0.52424   0.00000  Uiso   1.00
N455   N     0.58187   0.86185   0.70156   0.00000  Uiso   1.00
N456   N     0.94150   0.88919   0.68375   0.00000  Uiso   1.00
N457   N     0.73640   0.18116   0.60830   0.00000  Uiso   1.00
N458   N     0.58009   0.84438   0.57879   0.00000  Uiso   1.00
N459   N     0.93972   0.87172   0.56098   0.00000  Uiso   1.00
N460   N     0.73462   0.16370   0.48553   0.00000  Uiso   1.00
C461   C     0.74662   0.52106   0.17534   0.00000  Uiso   1.00
C462   C     0.79433   0.55759   0.15256   0.00000  Uiso   1.00
C463   C     0.83345   0.57858   0.20180   0.00000  Uiso   1.00
C464   C     0.87379   0.61117   0.16980   0.00000  Uiso   1.00
C465   C     0.94768   0.66622   0.14637   0.00000  Uiso   1.00
C466   C     0.69521   0.55007   0.14766   0.00000  Uiso   1.00
C467   C     0.65100   0.56472   0.19277   0.00000  Uiso   1.00
C468   C     0.60790   0.59097   0.15664   0.00000  Uiso   1.00
C469   C     0.52790   0.63430   0.12558   0.00000  Uiso   1.00
C470   C     0.75175   0.46960   0.12687   0.00000  Uiso   1.00
C471   C     0.75505   0.41660   0.15449   0.00000  Uiso   1.00
C472   C     0.75954   0.37509   0.10086   0.00000  Uiso   1.00
C473   C     0.76732   0.29349   0.03752   0.00000  Uiso   1.00
C474   C     0.74871   0.54160   0.03097   0.00000  Uiso   1.00
C475   C     0.79546   0.56875   0.07414   0.00000  Uiso   1.00
C476   C     0.83576   0.60131   0.04207   0.00000  Uiso   1.00
C477   C     0.87493   0.62235   0.09124   0.00000  Uiso   1.00
C478   C     0.69635   0.56122   0.06924   0.00000  Uiso   1.00
C479   C     0.65331   0.58745   0.03304   0.00000  Uiso   1.00
C480   C     0.60904   0.60215   0.07808   0.00000  Uiso   1.00
C481   C     0.75289   0.48075   0.04845   0.00000  Uiso   1.00
C482   C     0.75737   0.43932   0.99476   0.00000  Uiso   1.00
C483   C     0.76068   0.38627   0.02230   0.00000  Uiso   1.00
H484   H     0.74573   0.51238   0.23639   0.00000  Uiso   1.00
H485   H     0.83255   0.56995   0.26248   0.00000  Uiso   1.00
H486   H     0.65013   0.55608   0.25345   0.00000  Uiso   1.00
H487   H     0.75417   0.40798   0.21518   0.00000  Uiso   1.00
H488   H     0.92929   0.63871   0.25683   0.00000  Uiso   1.00
H489   H     0.54464   0.60946   0.23778   0.00000  Uiso   1.00
H490   H     0.76403   0.29716   0.15708   0.00000  Uiso   1.00
H491   H     0.74959   0.55028   0.96991   0.00000  Uiso   1.00
H492   H     0.83663   0.60993   0.98138   0.00000  Uiso   1.00
H493   H     0.65420   0.59607   0.97235   0.00000  Uiso   1.00
H494   H     0.75824   0.44797   0.93408   0.00000  Uiso   1.00
H495   H     0.93260   0.67117   0.02868   0.00000  Uiso   1.00
H496   H     0.54794   0.64192   0.00963   0.00000  Uiso   1.00
H497   H     0.76733   0.32962   0.92893   0.00000  Uiso   1.00
O498   O     0.98811   0.69351   0.15511   0.00000  Uiso   1.00
O499   O     0.48346   0.65512   0.13012   0.00000  Uiso   1.00
O500   O     0.77130   0.24540   0.02424   0.00000  Uiso   1.00
N501   N     0.91813   0.63815   0.20156   0.00000  Uiso   1.00
N502   N     0.55850   0.61081   0.18375   0.00000  Uiso   1.00
N503   N     0.76360   0.31884   0.10830   0.00000  Uiso   1.00
N504   N     0.91991   0.65562   0.07879   0.00000  Uiso   1.00
N505   N     0.56028   0.62828   0.06098   0.00000  Uiso   1.00
N506   N     0.76538   0.33630   0.98553   0.00000  Uiso   1.00
C507   C     0.24662   0.02106   0.67534   0.00000  Uiso   1.00
C508   C     0.29433   0.05759   0.65256   0.00000  Uiso   1.00
C509   C     0.33345   0.07858   0.70180   0.00000  Uiso   1.00
C510   C     0.37379   0.11117   0.66980   0.00000  Uiso   1.00
C511   C     0.44768   0.16622   0.64637   0.00000  Uiso   1.00
C512   C     0.19521   0.05007   0.64766   0.00000  Uiso   1.00
C513   C     0.15100   0.06472   0.69277   0.00000  Uiso   1.00
C514   C     0.10790   0.09097   0.65664   0.00000  Uiso   1.00
C515   C     0.02790   0.13430   0.62558   0.00000  Uiso   1.00
C516   C     0.25175   0.96960   0.62687   0.00000  Uiso   1.00
C517   C     0.25505   0.91660   0.65449   0.00000  Uiso   1.00
C518   C     0.25954   0.87509   0.60086   0.00000  Uiso   1.00
C519   C     0.26732   0.79349   0.53752   0.00000  Uiso   1.00
C520   C     0.24871   0.04160   0.53097   0.00000  Uiso   1.00
C521   C     0.29546   0.06875   0.57414   0.00000  Uiso   1.00
C522   C     0.33576   0.10131   0.54207   0.00000  Uiso   1.00
C523   C     0.37493   0.12235   0.59124   0.00000  Uiso   1.00
C524   C     0.19635   0.06122   0.56924   0.00000  Uiso   1.00
C525   C     0.15331   0.08745   0.53304   0.00000  Uiso   1.00
C526   C     0.10904   0.10215   0.57808   0.00000  Uiso   1.00
C527   C     0.25289   0.98075   0.54845   0.00000  Uiso   1.00
C528   C     0.25737   0.93932   0.49476   0.00000  Uiso   1.00
C529   C     0.26068   0.88627   0.52230   0.00000  Uiso   1.00
H530   H     0.24573   0.01238   0.73639   0.00000  Uiso   1.00
H531   H     0.33255   0.06995   0.76248   0.00000  Uiso   1.00
H532   H     0.15013   0.05608   0.75345   0.00000  Uiso   1.00
H533   H     0.25417   0.90798   0.71518   0.00000  Uiso   1.00
H534   H     0.42929   0.13871   0.75683   0.00000  Uiso   1.00
H535   H     0.04464   0.10946   0.73778   0.00000  Uiso   1.00
H536   H     0.26403   0.79716   0.65708   0.00000  Uiso   1.00
H537   H     0.24959   0.05028   0.46991   0.00000  Uiso   1.00
H538   H     0.33663   0.10993   0.48138   0.00000  Uiso   1.00
H539   H     0.15420   0.09607   0.47235   0.00000  Uiso   1.00
H540   H     0.25824   0.94797   0.43408   0.00000  Uiso   1.00
H541   H     0.43260   0.17117   0.52868   0.00000  Uiso   1.00
H542   H     0.04794   0.14192   0.50963   0.00000  Uiso   1.00
H543   H     0.26733   0.82962   0.42893   0.00000  Uiso   1.00
O544   O     0.48811   0.19351   0.65511   0.00000  Uiso   1.00
O545   O     0.98346   0.15512   0.63012   0.00000  Uiso   1.00
O546   O     0.27130   0.74540   0.52424   0.00000  Uiso   1.00
N547   N     0.41813   0.13815   0.70156   0.00000  Uiso   1.00
N548   N     0.05850   0.11081   0.68375   0.00000  Uiso   1.00
N549   N     0.26360   0.81884   0.60830   0.00000  Uiso   1.00
N550   N     0.41991   0.15562   0.57879   0.00000  Uiso   1.00
N551   N     0.06028   0.12828   0.56098   0.00000  Uiso   1.00
N552   N     0.26538   0.83630   0.48553   0.00000  Uiso   1.00
C553   C     0.02106   0.75338   0.32466   0.00000  Uiso   1.00
C554   C     0.05759   0.70567   0.34744   0.00000  Uiso   1.00
C555   C     0.07858   0.66655   0.29820   0.00000  Uiso   1.00
C556   C     0.11117   0.62621   0.33020   0.00000  Uiso   1.00
C557   C     0.16622   0.55232   0.35363   0.00000  Uiso   1.00
C558   C     0.05007   0.80479   0.35234   0.00000  Uiso   1.00
C559   C     0.06472   0.84900   0.30723   0.00000  Uiso   1.00
C560   C     0.09097   0.89210   0.34336   0.00000  Uiso   1.00
C561   C     0.13430   0.97210   0.37442   0.00000  Uiso   1.00
C562   C     0.96960   0.74825   0.37313   0.00000  Uiso   1.00
C563   C     0.91660   0.74495   0.34551   0.00000  Uiso   1.00
C564   C     0.87509   0.74046   0.39914   0.00000  Uiso   1.00
C565   C     0.79349   0.73268   0.46248   0.00000  Uiso   1.00
C566   C     0.04160   0.75129   0.46903   0.00000  Uiso   1.00
C567   C     0.06875   0.70454   0.42586   0.00000  Uiso   1.00
C568   C     0.10131   0.66424   0.45793   0.00000  Uiso   1.00
C569   C     0.12235   0.62507   0.40876   0.00000  Uiso   1.00
C570   C     0.06122   0.80365   0.43076   0.00000  Uiso   1.00
C571   C     0.08745   0.84669   0.46696   0.00000  Uiso   1.00
C572   C     0.10215   0.89096   0.42192   0.00000  Uiso   1.00
C573   C     0.98075   0.74711   0.45155   0.00000  Uiso   1.00
C574   C     0.93932   0.74263   0.50524   0.00000  Uiso   1.00
C575   C     0.88627   0.73932   0.47770   0.00000  Uiso   1.00
H576   H     0.01238   0.75427   0.26361   0.00000  Uiso   1.00
H577   H     0.06995   0.66745   0.23752   0.00000  Uiso   1.00
H578   H     0.05608   0.84987   0.24655   0.00000  Uiso   1.00
H579   H     0.90798   0.74583   0.28482   0.00000  Uiso   1.00
H580   H     0.13871   0.57071   0.24317   0.00000  Uiso   1.00
H581   H     0.10946   0.95536   0.26222   0.00000  Uiso   1.00
H582   H     0.79716   0.73597   0.34292   0.00000  Uiso   1.00
H583   H     0.05028   0.75041   0.53009   0.00000  Uiso   1.00
H584   H     0.10993   0.66337   0.51862   0.00000  Uiso   1.00
H585   H     0.09607   0.84580   0.52765   0.00000  Uiso   1.00
H586   H     0.94797   0.74176   0.56592   0.00000  Uiso   1.00
H587   H     0.17117   0.56740   0.47132   0.00000  Uiso   1.00
H588   H     0.14192   0.95206   0.49037   0.00000  Uiso   1.00
H589   H     0.82962   0.73267   0.57107   0.00000  Uiso   1.00
O590   O     0.19351   0.51189   0.34489   0.00000  Uiso   1.00
O591   O     0.15512   0.01654   0.36988   0.00000  Uiso   1.00
O592   O     0.74540   0.72870   0.47576   0.00000  Uiso   1.00
N593   N     0.13815   0.58187   0.29844   0.00000  Uiso   1.00
N594   N     0.11081   0.94150   0.31625   0.00000  Uiso   1.00
N595   N     0.81884   0.73640   0.39170   0.00000  Uiso   1.00
N596   N     0.15562   0.58009   0.42121   0.00000  Uiso   1.00
N597   N     0.12828   0.93972   0.43902   0.00000  Uiso   1.00
N598   N     0.83630   0.73462   0.51447   0.00000  Uiso   1.00
C599   C     0.52106   0.25338   0.82466   0.00000  Uiso   1.00
C600   C     0.55759   0.20567   0.84744   0.00000  Uiso   1.00
C601   C     0.57858   0.16655   0.79820   0.00000  Uiso   1.00
C602   C     0.61117   0.12621   0.83020   0.00000  Uiso   1.00
C603   C     0.66622   0.05232   0.85363   0.00000  Uiso   1.00
C604   C     0.55007   0.30479   0.85234   0.00000  Uiso   1.00
C605   C     0.56472   0.34900   0.80723   0.00000  Uiso   1.00
C606   C     0.59097   0.39210   0.84336   0.00000  Uiso   1.00
C607   C     0.63430   0.47210   0.87442   0.00000  Uiso   1.00
C608   C     0.46960   0.24825   0.87313   0.00000  Uiso   1.00
C609   C     0.41660   0.24495   0.84551   0.00000  Uiso   1.00
C610   C     0.37509   0.24046   0.89914   0.00000  Uiso   1.00
C611   C     0.29349   0.23268   0.96248   0.00000  Uiso   1.00
C612   C     0.54160   0.25129   0.96903   0.00000  Uiso   1.00
C613   C     0.56875   0.20454   0.92586   0.00000  Uiso   1.00
C614   C     0.60131   0.16424   0.95793   0.00000  Uiso   1.00
C615   C     0.62235   0.12507   0.90876   0.00000  Uiso   1.00
C616   C     0.56122   0.30365   0.93076   0.00000  Uiso   1.00
C617   C     0.58745   0.34669   0.96696   0.00000  Uiso   1.00
C618   C     0.60215   0.39096   0.92192   0.00000  Uiso   1.00
C619   C     0.48075   0.24711   0.95155   0.00000  Uiso   1.00
C620   C     0.43932   0.24263   0.00524   0.00000  Uiso   1.00
C621   C     0.38627   0.23932   0.97770   0.00000  Uiso   1.00
H622   H     0.51238   0.25427   0.76361   0.00000  Uiso   1.00
H623   H     0.56995   0.16745   0.73752   0.00000  Uiso   1.00
H624   H     0.55608   0.34987   0.74655   0.00000  Uiso   1.00
H625   H     0.40798   0.24583   0.78482   0.00000  Uiso   1.00
H626   H     0.63871   0.07071   0.74317   0.00000  Uiso   1.00
H627   H     0.60946   0.45536   0.76222   0.00000  Uiso   1.00
H628   H     0.29716   0.23597   0.84292   0.00000  Uiso   1.00
H629   H     0.55028   0.25041   0.03009   0.00000  Uiso   1.00
H630   H     0.60993   0.16337   0.01862   0.00000  Uiso   1.00
H631   H     0.59607   0.34580   0.02765   0.00000  Uiso   1.00
H632   H     0.44797   0.24176   0.06592   0.00000  Uiso   1.00
H633   H     0.67117   0.06740   0.97132   0.00000  Uiso   1.00
H634   H     0.64192   0.45206   0.99037   0.00000  Uiso   1.00
H635   H     0.32962   0.23267   0.07107   0.00000  Uiso   1.00
O636   O     0.69351   0.01189   0.84489   0.00000  Uiso   1.00
O637   O     0.65512   0.51654   0.86988   0.00000  Uiso   1.00
O638   O     0.24540   0.22870   0.97576   0.00000  Uiso   1.00
N639   N     0.63815   0.08187   0.79844   0.00000  Uiso   1.00
N640   N     0.61081   0.44150   0.81625   0.00000  Uiso   1.00
N641   N     0.31884   0.23640   0.89170   0.00000  Uiso   1.00
N642   N     0.65562   0.08009   0.92121   0.00000  Uiso   1.00
N643   N     0.62828   0.43972   0.93902   0.00000  Uiso   1.00
N644   N     0.33630   0.23462   0.01447   0.00000  Uiso   1.00
C645   C     0.97894   0.24662   0.32466   0.00000  Uiso   1.00
C646   C     0.94241   0.29433   0.34744   0.00000  Uiso   1.00
C647   C     0.92142   0.33345   0.29820   0.00000  Uiso   1.00
C648   C     0.88883   0.37379   0.33020   0.00000  Uiso   1.00
C649   C     0.83378   0.44768   0.35363   0.00000  Uiso   1.00
C650   C     0.94993   0.19521   0.35234   0.00000  Uiso   1.00
C651   C     0.93528   0.15100   0.30723   0.00000  Uiso   1.00
C652   C     0.90903   0.10790   0.34336   0.00000  Uiso   1.00
C653   C     0.86570   0.02790   0.37442   0.00000  Uiso   1.00
C654   C     0.03040   0.25175   0.37313   0.00000  Uiso   1.00
C655   C     0.08340   0.25505   0.34551   0.00000  Uiso   1.00
C656   C     0.12491   0.25954   0.39914   0.00000  Uiso   1.00
C657   C     0.20651   0.26732   0.46248   0.00000  Uiso   1.00
C658   C     0.95840   0.24871   0.46903   0.00000  Uiso   1.00
C659   C     0.93125   0.29546   0.42586   0.00000  Uiso   1.00
C660   C     0.89869   0.33576   0.45793   0.00000  Uiso   1.00
C661   C     0.87765   0.37493   0.40876   0.00000  Uiso   1.00
C662   C     0.93878   0.19635   0.43076   0.00000  Uiso   1.00
C663   C     0.91255   0.15331   0.46696   0.00000  Uiso   1.00
C664   C     0.89785   0.10904   0.42192   0.00000  Uiso   1.00
C665   C     0.01925   0.25289   0.45155   0.00000  Uiso   1.00
C666   C     0.06068   0.25737   0.50524   0.00000  Uiso   1.00
C667   C     0.11373   0.26068   0.47770   0.00000  Uiso   1.00
H668   H     0.98762   0.24573   0.26361   0.00000  Uiso   1.00
H669   H     0.93005   0.33255   0.23752   0.00000  Uiso   1.00
H670   H     0.94392   0.15013   0.24655   0.00000  Uiso   1.00
H671   H     0.09202   0.25417   0.28482   0.00000  Uiso   1.00
H672   H     0.86129   0.42929   0.24317   0.00000  Uiso   1.00
H673   H     0.89054   0.04464   0.26222   0.00000  Uiso   1.00
H674   H     0.20284   0.26403   0.34292   0.00000  Uiso   1.00
H675   H     0.94972   0.24959   0.53009   0.00000  Uiso   1.00
H676   H     0.89007   0.33663   0.51862   0.00000  Uiso   1.00
H677   H     0.90393   0.15420   0.52765   0.00000  Uiso   1.00
H678   H     0.05203   0.25824   0.56592   0.00000  Uiso   1.00
H679   H     0.82883   0.43260   0.47132   0.00000  Uiso   1.00
H680   H     0.85808   0.04794   0.49037   0.00000  Uiso   1.00
H681   H     0.17038   0.26733   0.57107   0.00000  Uiso   1.00
O682   O     0.80649   0.48811   0.34489   0.00000  Uiso   1.00
O683   O     0.84488   0.98346   0.36988   0.00000  Uiso   1.00
O684   O     0.25460   0.27130   0.47576   0.00000  Uiso   1.00
N685   N     0.86185   0.41813   0.29844   0.00000  Uiso   1.00
N686   N     0.88919   0.05850   0.31625   0.00000  Uiso   1.00
N687   N     0.18116   0.26360   0.39170   0.00000  Uiso   1.00
N688   N     0.84438   0.41991   0.42121   0.00000  Uiso   1.00
N689   N     0.87172   0.06028   0.43902   0.00000  Uiso   1.00
N690   N     0.16370   0.26538   0.51447   0.00000  Uiso   1.00
C691   C     0.47894   0.74662   0.82466   0.00000  Uiso   1.00
C692   C     0.44241   0.79433   0.84744   0.00000  Uiso   1.00
C693   C     0.42142   0.83345   0.79820   0.00000  Uiso   1.00
C694   C     0.38883   0.87379   0.83020   0.00000  Uiso   1.00
C695   C     0.33378   0.94768   0.85363   0.00000  Uiso   1.00
C696   C     0.44993   0.69521   0.85234   0.00000  Uiso   1.00
C697   C     0.43528   0.65100   0.80723   0.00000  Uiso   1.00
C698   C     0.40903   0.60790   0.84336   0.00000  Uiso   1.00
C699   C     0.36570   0.52790   0.87442   0.00000  Uiso   1.00
C700   C     0.53040   0.75175   0.87313   0.00000  Uiso   1.00
C701   C     0.58340   0.75505   0.84551   0.00000  Uiso   1.00
C702   C     0.62491   0.75954   0.89914   0.00000  Uiso   1.00
C703   C     0.70651   0.76732   0.96248   0.00000  Uiso   1.00
C704   C     0.45840   0.74871   0.96903   0.00000  Uiso   1.00
C705   C     0.43125   0.79546   0.92586   0.00000  Uiso   1.00
C706   C     0.39869   0.83576   0.95793   0.00000  Uiso   1.00
C707   C     0.37765   0.87493   0.90876   0.00000  Uiso   1.00
C708   C     0.43878   0.69635   0.93076   0.00000  Uiso   1.00
C709   C     0.41255   0.65331   0.96696   0.00000  Uiso   1.00
C710   C     0.39785   0.60904   0.92192   0.00000  Uiso   1.00
C711   C     0.51925   0.75289   0.95155   0.00000  Uiso   1.00
C712   C     0.56068   0.75737   0.00524   0.00000  Uiso   1.00
C713   C     0.61373   0.76068   0.97770   0.00000  Uiso   1.00
H714   H     0.48762   0.74573   0.76361   0.00000  Uiso   1.00
H715   H     0.43005   0.83255   0.73752   0.00000  Uiso   1.00
H716   H     0.44392   0.65013   0.74655   0.00000  Uiso   1.00
H717   H     0.59202   0.75417   0.78482   0.00000  Uiso   1.00
H718   H     0.36129   0.92929   0.74317   0.00000  Uiso   1.00
H719   H     0.39054   0.54464   0.76222   0.00000  Uiso   1.00
H720   H     0.70284   0.76403   0.84292   0.00000  Uiso   1.00
H721   H     0.44972   0.74959   0.03009   0.00000  Uiso   1.00
H722   H     0.39007   0.83663   0.01862   0.00000  Uiso   1.00
H723   H     0.40393   0.65420   0.02765   0.00000  Uiso   1.00
H724   H     0.55203   0.75824   0.06592   0.00000  Uiso   1.00
H725   H     0.32883   0.93260   0.97132   0.00000  Uiso   1.00
H726   H     0.35808   0.54794   0.99037   0.00000  Uiso   1.00
H727   H     0.67038   0.76733   0.07107   0.00000  Uiso   1.00
O728   O     0.30649   0.98811   0.84489   0.00000  Uiso   1.00
O729   O     0.34488   0.48346   0.86988   0.00000  Uiso   1.00
O730   O     0.75460   0.77130   0.97576   0.00000  Uiso   1.00
N731   N     0.36185   0.91813   0.79844   0.00000  Uiso   1.00
N732   N     0.38919   0.55850   0.81625   0.00000  Uiso   1.00
N733   N     0.68116   0.76360   0.89170   0.00000  Uiso   1.00
N734   N     0.34438   0.91991   0.92121   0.00000  Uiso   1.00
N735   N     0.37172   0.56028   0.93902   0.00000  Uiso   1.00
N736   N     0.66370   0.76538   0.01447   0.00000  Uiso   1.00
