data_job_06781
_audit_creation_date              2018-12-19
_audit_creation_method            'Materials Studio'
_symmetry_space_group_name_H-M    'P1'
_symmetry_Int_Tables_number       1
_symmetry_cell_setting            triclinic
loop_
_symmetry_equiv_pos_as_xyz
  x,y,z
_cell_length_a                    27.8863
_cell_length_b                    42.0997
_cell_length_c                    23.6642
_cell_angle_alpha                 90.0000
_cell_angle_beta                  130.5425
_cell_angle_gamma                 90.0000
loop_
_atom_site_label
_atom_site_type_symbol
_atom_site_fract_x
_atom_site_fract_y
_atom_site_fract_z
_atom_site_U_iso_or_equiv
_atom_site_adp_type
_atom_site_occupancy
C1     C     0.89782   0.65025   0.89914   0.00000  Uiso   1.00
C2     C     0.94193   0.62193   0.92551   0.00000  Uiso   1.00
C3     C     0.92337   0.59067   0.90300   0.00000  Uiso   1.00
C4     C     0.97094   0.56823   0.93359   0.00000  Uiso   1.00
C5     C     0.02972   0.52296   0.96677   0.00000  Uiso   1.00
C6     C     0.41592   0.16555   0.96912   0.00000  Uiso   1.00
C7     C     0.87550   0.67095   0.98328   0.00000  Uiso   1.00
C8     C     0.40117   0.18523   0.05057   0.00000  Uiso   1.00
C9     C     0.41956   0.20769   0.15144   0.00000  Uiso   1.00
C10    C     0.41612   0.17406   0.86744   0.00000  Uiso   1.00
C11    C     0.87585   0.68663   0.79611   0.00000  Uiso   1.00
C12    C     0.40168   0.20808   0.77780   0.00000  Uiso   1.00
C13    C     0.42038   0.24375   0.72079   0.00000  Uiso   1.00
C14    C     0.51530   0.16600   0.99347   0.00000  Uiso   1.00
C15    C     0.50574   0.13049   0.97675   0.00000  Uiso   1.00
C16    C     0.55335   0.10809   0.00737   0.00000  Uiso   1.00
C17    C     0.53486   0.07680   0.98492   0.00000  Uiso   1.00
C18    C     0.47973   0.17410   0.02036   0.00000  Uiso   1.00
C19    C     0.50547   0.18838   0.08764   0.00000  Uiso   1.00
C20    C     0.46509   0.19380   0.10190   0.00000  Uiso   1.00
C21    C     0.47993   0.18261   0.91868   0.00000  Uiso   1.00
C22    C     0.50583   0.20405   0.90048   0.00000  Uiso   1.00
C23    C     0.46561   0.21665   0.82913   0.00000  Uiso   1.00
H24    H     0.84815   0.64359   0.85925   0.00000  Uiso   1.00
H25    H     0.87399   0.58406   0.86336   0.00000  Uiso   1.00
H26    H     0.82612   0.66433   0.94361   0.00000  Uiso   1.00
H27    H     0.82648   0.68000   0.75648   0.00000  Uiso   1.00
H28    H     0.93078   0.52182   0.89052   0.00000  Uiso   1.00
H29    H     0.82984   0.69110   0.05974   0.00000  Uiso   1.00
H30    H     0.83059   0.72414   0.66512   0.00000  Uiso   1.00
H31    H     0.56498   0.17266   0.03336   0.00000  Uiso   1.00
H32    H     0.60272   0.11472   0.04702   0.00000  Uiso   1.00
H33    H     0.55485   0.19500   0.12728   0.00000  Uiso   1.00
H34    H     0.55520   0.21066   0.94014   0.00000  Uiso   1.00
H35    H     0.61642   0.04671   0.03959   0.00000  Uiso   1.00
H36    H     0.51548   0.21599   0.20881   0.00000  Uiso   1.00
H37    H     0.51623   0.24903   0.81419   0.00000  Uiso   1.00
O38    O     0.04452   0.49563   0.97092   0.00000  Uiso   1.00
O39    O     0.41208   0.21771   0.19292   0.00000  Uiso   1.00
O40    O     0.41307   0.26106   0.67519   0.00000  Uiso   1.00
N41    N     0.96929   0.53563   0.92372   0.00000  Uiso   1.00
N42    N     0.87492   0.69389   0.08194   0.00000  Uiso   1.00
N43    N     0.37562   0.22479   0.71300   0.00000  Uiso   1.00
N44    N     0.56919   0.04902   0.00393   0.00000  Uiso   1.00
N45    N     0.47481   0.20728   0.16215   0.00000  Uiso   1.00
N46    N     0.47551   0.23818   0.79322   0.00000  Uiso   1.00
C47    C     0.79911   0.93560   0.02156   0.00000  Uiso   1.00
C48    C     0.85304   0.95687   0.04318   0.00000  Uiso   1.00
C49    C     0.85333   0.97521   0.99467   0.00000  Uiso   1.00
C50    C     0.90719   0.99303   0.02537   0.00000  Uiso   1.00
C51    C     0.98309   0.02612   0.04730   0.00000  Uiso   1.00
C52    C     0.82724   0.90249   0.04995   0.00000  Uiso   1.00
C53    C     0.80583   0.87510   0.00713   0.00000  Uiso   1.00
C54    C     0.83797   0.84713   0.04352   0.00000  Uiso   1.00
C55    C     0.87379   0.79579   0.07596   0.00000  Uiso   1.00
C56    C     0.78223   0.94678   0.06803   0.00000  Uiso   1.00
C57    C     0.72297   0.95663   0.04043   0.00000  Uiso   1.00
C58    C     0.71720   0.96595   0.09206   0.00000  Uiso   1.00
C59    C     0.68313   0.98338   0.15259   0.00000  Uiso   1.00
C60    C     0.89423   0.93463   0.16233   0.00000  Uiso   1.00
C61    C     0.90471   0.95634   0.11964   0.00000  Uiso   1.00
C62    C     0.95858   0.97414   0.15042   0.00000  Uiso   1.00
C63    C     0.95895   0.99250   0.10197   0.00000  Uiso   1.00
C64    C     0.87891   0.90196   0.12640   0.00000  Uiso   1.00
C65    C     0.91108   0.87403   0.16287   0.00000  Uiso   1.00
C66    C     0.88973   0.84660   0.12012   0.00000  Uiso   1.00
C67    C     0.83390   0.94626   0.14450   0.00000  Uiso   1.00
C68    C     0.82822   0.95556   0.19618   0.00000  Uiso   1.00
C69    C     0.76897   0.96542   0.16866   0.00000  Uiso   1.00
H70    H     0.75888   0.93601   0.96204   0.00000  Uiso   1.00
H71    H     0.81334   0.97561   0.93550   0.00000  Uiso   1.00
H72    H     0.76585   0.87551   0.94796   0.00000  Uiso   1.00
H73    H     0.68300   0.95704   0.98126   0.00000  Uiso   1.00
H74    H     0.89651   0.01927   0.93980   0.00000  Uiso   1.00
H75    H     0.79636   0.80821   0.96607   0.00000  Uiso   1.00
H76    H     0.62165   0.98012   0.03629   0.00000  Uiso   1.00
H77    H     0.93446   0.93422   0.22186   0.00000  Uiso   1.00
H78    H     0.99856   0.97373   0.20959   0.00000  Uiso   1.00
H79    H     0.95106   0.87363   0.22204   0.00000  Uiso   1.00
H80    H     0.86821   0.95515   0.25534   0.00000  Uiso   1.00
H81    H     0.04685   0.01774   0.16226   0.00000  Uiso   1.00
H82    H     0.44668   0.30668   0.18853   0.00000  Uiso   1.00
H83    H     0.77198   0.97858   0.25875   0.00000  Uiso   1.00
O84    O     0.01068   0.04452   0.03827   0.00000  Uiso   1.00
O85    O     0.37927   0.26761   0.07273   0.00000  Uiso   1.00
O86    O     0.65006   0.99315   0.16485   0.00000  Uiso   1.00
N87    N     0.92309   0.01350   0.99385   0.00000  Uiso   1.00
N88    N     0.82946   0.81617   0.01840   0.00000  Uiso   1.00
N89    N     0.66612   0.97687   0.08405   0.00000  Uiso   1.00
N90    N     0.00398   0.01267   0.11355   0.00000  Uiso   1.00
N91    N     0.41035   0.31534   0.13811   0.00000  Uiso   1.00
N92    N     0.74701   0.97605   0.20375   0.00000  Uiso   1.00
C93    C     0.16983   0.17194   0.21694   0.00000  Uiso   1.00
C94    C     0.20363   0.17975   0.29800   0.00000  Uiso   1.00
C95    C     0.17527   0.19108   0.32514   0.00000  Uiso   1.00
C96    C     0.21437   0.19677   0.40107   0.00000  Uiso   1.00
C97    C     0.25695   0.20973   0.51977   0.00000  Uiso   1.00
C98    C     0.20213   0.19176   0.19615   0.00000  Uiso   1.00
C99    C     0.17250   0.21319   0.13765   0.00000  Uiso   1.00
C100   C     0.21034   0.22898   0.12784   0.00000  Uiso   1.00
C101   C     0.25059   0.26057   0.08838   0.00000  Uiso   1.00
C102   C     0.18588   0.13743   0.21601   0.00000  Uiso   1.00
C103   C     0.14259   0.11317   0.17419   0.00000  Uiso   1.00
C104   C     0.66675   0.58322   0.18109   0.00000  Uiso   1.00
C105   C     0.68176   0.53046   0.17246   0.00000  Uiso   1.00
C106   C     0.78970   0.66188   0.30353   0.00000  Uiso   1.00
C107   C     0.76874   0.67428   0.34503   0.00000  Uiso   1.00
C108   C     0.80789   0.67995   0.42094   0.00000  Uiso   1.00
C109   C     0.77959   0.69129   0.44818   0.00000  Uiso   1.00
C110   C     0.26723   0.18629   0.24318   0.00000  Uiso   1.00
C111   C     0.80513   0.70205   0.23345   0.00000  Uiso   1.00
C112   C     0.27557   0.22350   0.17495   0.00000  Uiso   1.00
C113   C     0.75099   0.63196   0.26304   0.00000  Uiso   1.00
C114   C     0.77522   0.60204   0.26999   0.00000  Uiso   1.00
C115   C     0.73198   0.57774   0.22820   0.00000  Uiso   1.00
H116   H     0.11914   0.17620   0.18033   0.00000  Uiso   1.00
H117   H     0.12488   0.19531   0.28873   0.00000  Uiso   1.00
H118   H     0.12212   0.21741   0.10126   0.00000  Uiso   1.00
H119   H     0.09221   0.11741   0.13780   0.00000  Uiso   1.00
H120   H     0.15996   0.21411   0.42964   0.00000  Uiso   1.00
H121   H     0.15413   0.26069   0.03435   0.00000  Uiso   1.00
H122   H     0.09107   0.04982   0.11140   0.00000  Uiso   1.00
H123   H     0.84039   0.65762   0.34014   0.00000  Uiso   1.00
H124   H     0.85827   0.67571   0.45732   0.00000  Uiso   1.00
H125   H     0.85551   0.69781   0.26985   0.00000  Uiso   1.00
H126   H     0.82560   0.59781   0.30639   0.00000  Uiso   1.00
H127   H     0.84939   0.69820   0.56648   0.00000  Uiso   1.00
H128   H     0.34356   0.24478   0.17118   0.00000  Uiso   1.00
H129   H     0.78050   0.53392   0.24823   0.00000  Uiso   1.00
O130   O     0.26245   0.21840   0.57225   0.00000  Uiso   1.00
O131   O     0.25480   0.27951   0.05363   0.00000  Uiso   1.00
O132   O     0.67206   0.50286   0.15473   0.00000  Uiso   1.00
N133   N     0.20209   0.20787   0.44577   0.00000  Uiso   1.00
N134   N     0.19664   0.25143   0.07620   0.00000  Uiso   1.00
N135   N     0.63768   0.55429   0.14822   0.00000  Uiso   1.00
N136   N     0.80402   0.69931   0.51940   0.00000  Uiso   1.00
N137   N     0.29857   0.24287   0.14983   0.00000  Uiso   1.00
N138   N     0.73961   0.54573   0.22185   0.00000  Uiso   1.00
C139   C     0.39782   0.15025   0.89914   0.00000  Uiso   1.00
C140   C     0.44193   0.12193   0.92551   0.00000  Uiso   1.00
C141   C     0.42337   0.09067   0.90300   0.00000  Uiso   1.00
C142   C     0.47094   0.06823   0.93359   0.00000  Uiso   1.00
C143   C     0.52972   0.02296   0.96677   0.00000  Uiso   1.00
C144   C     0.91592   0.66555   0.96912   0.00000  Uiso   1.00
C145   C     0.37550   0.17095   0.98328   0.00000  Uiso   1.00
C146   C     0.90117   0.68523   0.05057   0.00000  Uiso   1.00
C147   C     0.91956   0.70769   0.15144   0.00000  Uiso   1.00
C148   C     0.91612   0.67406   0.86744   0.00000  Uiso   1.00
C149   C     0.37585   0.18663   0.79611   0.00000  Uiso   1.00
C150   C     0.90168   0.70808   0.77780   0.00000  Uiso   1.00
C151   C     0.92038   0.74375   0.72079   0.00000  Uiso   1.00
C152   C     0.01530   0.66600   0.99347   0.00000  Uiso   1.00
C153   C     0.00574   0.63049   0.97675   0.00000  Uiso   1.00
C154   C     0.05335   0.60809   0.00737   0.00000  Uiso   1.00
C155   C     0.03486   0.57680   0.98492   0.00000  Uiso   1.00
C156   C     0.97973   0.67410   0.02036   0.00000  Uiso   1.00
C157   C     0.00547   0.68838   0.08764   0.00000  Uiso   1.00
C158   C     0.96509   0.69380   0.10190   0.00000  Uiso   1.00
C159   C     0.97993   0.68261   0.91868   0.00000  Uiso   1.00
C160   C     0.00583   0.70405   0.90048   0.00000  Uiso   1.00
C161   C     0.96561   0.71665   0.82913   0.00000  Uiso   1.00
H162   H     0.34815   0.14359   0.85925   0.00000  Uiso   1.00
H163   H     0.37399   0.08406   0.86336   0.00000  Uiso   1.00
H164   H     0.32612   0.16433   0.94361   0.00000  Uiso   1.00
H165   H     0.32648   0.18000   0.75648   0.00000  Uiso   1.00
H166   H     0.43078   0.02182   0.89052   0.00000  Uiso   1.00
H167   H     0.32984   0.19110   0.05974   0.00000  Uiso   1.00
H168   H     0.33059   0.22414   0.66512   0.00000  Uiso   1.00
H169   H     0.06498   0.67266   0.03336   0.00000  Uiso   1.00
H170   H     0.10272   0.61472   0.04702   0.00000  Uiso   1.00
H171   H     0.05485   0.69500   0.12728   0.00000  Uiso   1.00
H172   H     0.05520   0.71066   0.94014   0.00000  Uiso   1.00
H173   H     0.11642   0.54671   0.03959   0.00000  Uiso   1.00
H174   H     0.01548   0.71599   0.20881   0.00000  Uiso   1.00
H175   H     0.01623   0.74903   0.81419   0.00000  Uiso   1.00
O176   O     0.54452   0.99563   0.97092   0.00000  Uiso   1.00
O177   O     0.91208   0.71771   0.19292   0.00000  Uiso   1.00
O178   O     0.91307   0.76106   0.67519   0.00000  Uiso   1.00
N179   N     0.46929   0.03563   0.92372   0.00000  Uiso   1.00
N180   N     0.37492   0.19389   0.08194   0.00000  Uiso   1.00
N181   N     0.87562   0.72479   0.71300   0.00000  Uiso   1.00
N182   N     0.06919   0.54902   0.00393   0.00000  Uiso   1.00
N183   N     0.97481   0.70728   0.16215   0.00000  Uiso   1.00
N184   N     0.97551   0.73818   0.79322   0.00000  Uiso   1.00
C185   C     0.29911   0.43560   0.02156   0.00000  Uiso   1.00
C186   C     0.35304   0.45687   0.04318   0.00000  Uiso   1.00
C187   C     0.35333   0.47521   0.99467   0.00000  Uiso   1.00
C188   C     0.40719   0.49303   0.02537   0.00000  Uiso   1.00
C189   C     0.48309   0.52612   0.04730   0.00000  Uiso   1.00
C190   C     0.32724   0.40249   0.04995   0.00000  Uiso   1.00
C191   C     0.30583   0.37510   0.00713   0.00000  Uiso   1.00
C192   C     0.33797   0.34713   0.04352   0.00000  Uiso   1.00
C193   C     0.37379   0.29579   0.07596   0.00000  Uiso   1.00
C194   C     0.28223   0.44678   0.06803   0.00000  Uiso   1.00
C195   C     0.22297   0.45663   0.04043   0.00000  Uiso   1.00
C196   C     0.21720   0.46595   0.09206   0.00000  Uiso   1.00
C197   C     0.18313   0.48338   0.15259   0.00000  Uiso   1.00
C198   C     0.39423   0.43463   0.16233   0.00000  Uiso   1.00
C199   C     0.40471   0.45634   0.11964   0.00000  Uiso   1.00
C200   C     0.45858   0.47414   0.15042   0.00000  Uiso   1.00
C201   C     0.45895   0.49250   0.10197   0.00000  Uiso   1.00
C202   C     0.37891   0.40196   0.12640   0.00000  Uiso   1.00
C203   C     0.41108   0.37403   0.16287   0.00000  Uiso   1.00
C204   C     0.38973   0.34660   0.12012   0.00000  Uiso   1.00
C205   C     0.33390   0.44626   0.14450   0.00000  Uiso   1.00
C206   C     0.32822   0.45556   0.19618   0.00000  Uiso   1.00
C207   C     0.26897   0.46542   0.16866   0.00000  Uiso   1.00
H208   H     0.25888   0.43601   0.96204   0.00000  Uiso   1.00
H209   H     0.31334   0.47561   0.93550   0.00000  Uiso   1.00
H210   H     0.26585   0.37551   0.94796   0.00000  Uiso   1.00
H211   H     0.18300   0.45704   0.98126   0.00000  Uiso   1.00
H212   H     0.39651   0.51927   0.93980   0.00000  Uiso   1.00
H213   H     0.29636   0.30821   0.96607   0.00000  Uiso   1.00
H214   H     0.12165   0.48012   0.03629   0.00000  Uiso   1.00
H215   H     0.43446   0.43422   0.22186   0.00000  Uiso   1.00
H216   H     0.49856   0.47373   0.20959   0.00000  Uiso   1.00
H217   H     0.45106   0.37363   0.22204   0.00000  Uiso   1.00
H218   H     0.36821   0.45515   0.25534   0.00000  Uiso   1.00
H219   H     0.54685   0.51774   0.16226   0.00000  Uiso   1.00
H220   H     0.94668   0.80668   0.18853   0.00000  Uiso   1.00
H221   H     0.27198   0.47858   0.25875   0.00000  Uiso   1.00
O222   O     0.51068   0.54452   0.03827   0.00000  Uiso   1.00
O223   O     0.87927   0.76761   0.07273   0.00000  Uiso   1.00
O224   O     0.15006   0.49315   0.16485   0.00000  Uiso   1.00
N225   N     0.42309   0.51350   0.99385   0.00000  Uiso   1.00
N226   N     0.32946   0.31617   0.01840   0.00000  Uiso   1.00
N227   N     0.16612   0.47687   0.08405   0.00000  Uiso   1.00
N228   N     0.50398   0.51267   0.11355   0.00000  Uiso   1.00
N229   N     0.91035   0.81534   0.13811   0.00000  Uiso   1.00
N230   N     0.24701   0.47605   0.20375   0.00000  Uiso   1.00
C231   C     0.66983   0.67194   0.21694   0.00000  Uiso   1.00
C232   C     0.70363   0.67975   0.29800   0.00000  Uiso   1.00
C233   C     0.67527   0.69108   0.32514   0.00000  Uiso   1.00
C234   C     0.71437   0.69677   0.40107   0.00000  Uiso   1.00
C235   C     0.75695   0.70973   0.51977   0.00000  Uiso   1.00
C236   C     0.70213   0.69176   0.19615   0.00000  Uiso   1.00
C237   C     0.67250   0.71319   0.13765   0.00000  Uiso   1.00
C238   C     0.71034   0.72898   0.12784   0.00000  Uiso   1.00
C239   C     0.75059   0.76057   0.08838   0.00000  Uiso   1.00
C240   C     0.68588   0.63743   0.21601   0.00000  Uiso   1.00
C241   C     0.64259   0.61317   0.17419   0.00000  Uiso   1.00
C242   C     0.16675   0.08322   0.18109   0.00000  Uiso   1.00
C243   C     0.18176   0.03046   0.17246   0.00000  Uiso   1.00
C244   C     0.28970   0.16188   0.30353   0.00000  Uiso   1.00
C245   C     0.26874   0.17428   0.34503   0.00000  Uiso   1.00
C246   C     0.30789   0.17995   0.42094   0.00000  Uiso   1.00
C247   C     0.27959   0.19129   0.44818   0.00000  Uiso   1.00
C248   C     0.76723   0.68629   0.24318   0.00000  Uiso   1.00
C249   C     0.30513   0.20205   0.23345   0.00000  Uiso   1.00
C250   C     0.77557   0.72350   0.17495   0.00000  Uiso   1.00
C251   C     0.25099   0.13196   0.26304   0.00000  Uiso   1.00
C252   C     0.27522   0.10204   0.26999   0.00000  Uiso   1.00
C253   C     0.23198   0.07774   0.22820   0.00000  Uiso   1.00
H254   H     0.61914   0.67620   0.18033   0.00000  Uiso   1.00
H255   H     0.62488   0.69531   0.28873   0.00000  Uiso   1.00
H256   H     0.62212   0.71741   0.10126   0.00000  Uiso   1.00
H257   H     0.59221   0.61741   0.13780   0.00000  Uiso   1.00
H258   H     0.65996   0.71411   0.42964   0.00000  Uiso   1.00
H259   H     0.65413   0.76069   0.03435   0.00000  Uiso   1.00
H260   H     0.59107   0.54982   0.11140   0.00000  Uiso   1.00
H261   H     0.34039   0.15762   0.34014   0.00000  Uiso   1.00
H262   H     0.35827   0.17571   0.45732   0.00000  Uiso   1.00
H263   H     0.35551   0.19781   0.26985   0.00000  Uiso   1.00
H264   H     0.32560   0.09781   0.30639   0.00000  Uiso   1.00
H265   H     0.34939   0.19820   0.56648   0.00000  Uiso   1.00
H266   H     0.84356   0.74478   0.17118   0.00000  Uiso   1.00
H267   H     0.28050   0.03392   0.24823   0.00000  Uiso   1.00
O268   O     0.76245   0.71840   0.57225   0.00000  Uiso   1.00
O269   O     0.75480   0.77951   0.05363   0.00000  Uiso   1.00
O270   O     0.17206   0.00286   0.15473   0.00000  Uiso   1.00
N271   N     0.70209   0.70787   0.44577   0.00000  Uiso   1.00
N272   N     0.69664   0.75143   0.07620   0.00000  Uiso   1.00
N273   N     0.13768   0.05429   0.14822   0.00000  Uiso   1.00
N274   N     0.30402   0.19931   0.51940   0.00000  Uiso   1.00
N275   N     0.79857   0.74287   0.14983   0.00000  Uiso   1.00
N276   N     0.23961   0.04573   0.22185   0.00000  Uiso   1.00
C277   C     0.10218   0.65025   0.60086   0.00000  Uiso   1.00
C278   C     0.05807   0.62193   0.57449   0.00000  Uiso   1.00
C279   C     0.07663   0.59067   0.59700   0.00000  Uiso   1.00
C280   C     0.02906   0.56823   0.56641   0.00000  Uiso   1.00
C281   C     0.97028   0.52296   0.53323   0.00000  Uiso   1.00
C282   C     0.58408   0.16555   0.53088   0.00000  Uiso   1.00
C283   C     0.12450   0.67095   0.51672   0.00000  Uiso   1.00
C284   C     0.59883   0.18523   0.44943   0.00000  Uiso   1.00
C285   C     0.58044   0.20769   0.34856   0.00000  Uiso   1.00
C286   C     0.58388   0.17406   0.63256   0.00000  Uiso   1.00
C287   C     0.12415   0.68663   0.70389   0.00000  Uiso   1.00
C288   C     0.59832   0.20808   0.72220   0.00000  Uiso   1.00
C289   C     0.57962   0.24375   0.77921   0.00000  Uiso   1.00
C290   C     0.48470   0.16600   0.50653   0.00000  Uiso   1.00
C291   C     0.49426   0.13049   0.52325   0.00000  Uiso   1.00
C292   C     0.44665   0.10809   0.49263   0.00000  Uiso   1.00
C293   C     0.46514   0.07680   0.51508   0.00000  Uiso   1.00
C294   C     0.52027   0.17410   0.47964   0.00000  Uiso   1.00
C295   C     0.49453   0.18838   0.41236   0.00000  Uiso   1.00
C296   C     0.53491   0.19380   0.39810   0.00000  Uiso   1.00
C297   C     0.52007   0.18261   0.58132   0.00000  Uiso   1.00
C298   C     0.49417   0.20405   0.59952   0.00000  Uiso   1.00
C299   C     0.53439   0.21665   0.67087   0.00000  Uiso   1.00
H300   H     0.15185   0.64359   0.64075   0.00000  Uiso   1.00
H301   H     0.12601   0.58406   0.63664   0.00000  Uiso   1.00
H302   H     0.17388   0.66433   0.55639   0.00000  Uiso   1.00
H303   H     0.17352   0.68000   0.74352   0.00000  Uiso   1.00
H304   H     0.06922   0.52182   0.60948   0.00000  Uiso   1.00
H305   H     0.17016   0.69110   0.44026   0.00000  Uiso   1.00
H306   H     0.16941   0.72414   0.83488   0.00000  Uiso   1.00
H307   H     0.43502   0.17266   0.46664   0.00000  Uiso   1.00
H308   H     0.39728   0.11472   0.45298   0.00000  Uiso   1.00
H309   H     0.44515   0.19500   0.37272   0.00000  Uiso   1.00
H310   H     0.44480   0.21066   0.55986   0.00000  Uiso   1.00
H311   H     0.38358   0.04671   0.46041   0.00000  Uiso   1.00
H312   H     0.48452   0.21599   0.29119   0.00000  Uiso   1.00
H313   H     0.48377   0.24903   0.68581   0.00000  Uiso   1.00
O314   O     0.95548   0.49563   0.52908   0.00000  Uiso   1.00
O315   O     0.58792   0.21771   0.30708   0.00000  Uiso   1.00
O316   O     0.58693   0.26106   0.82481   0.00000  Uiso   1.00
N317   N     0.03071   0.53563   0.57628   0.00000  Uiso   1.00
N318   N     0.12508   0.69389   0.41806   0.00000  Uiso   1.00
N319   N     0.62438   0.22479   0.78700   0.00000  Uiso   1.00
N320   N     0.43081   0.04902   0.49607   0.00000  Uiso   1.00
N321   N     0.52519   0.20728   0.33785   0.00000  Uiso   1.00
N322   N     0.52449   0.23818   0.70678   0.00000  Uiso   1.00
C323   C     0.20089   0.93560   0.47844   0.00000  Uiso   1.00
C324   C     0.14696   0.95687   0.45682   0.00000  Uiso   1.00
C325   C     0.14667   0.97521   0.50533   0.00000  Uiso   1.00
C326   C     0.09281   0.99303   0.47463   0.00000  Uiso   1.00
C327   C     0.01691   0.02612   0.45270   0.00000  Uiso   1.00
C328   C     0.17276   0.90249   0.45005   0.00000  Uiso   1.00
C329   C     0.19417   0.87510   0.49287   0.00000  Uiso   1.00
C330   C     0.16203   0.84713   0.45648   0.00000  Uiso   1.00
C331   C     0.12621   0.79579   0.42404   0.00000  Uiso   1.00
C332   C     0.21777   0.94678   0.43197   0.00000  Uiso   1.00
C333   C     0.27703   0.95663   0.45957   0.00000  Uiso   1.00
C334   C     0.28280   0.96595   0.40794   0.00000  Uiso   1.00
C335   C     0.31687   0.98338   0.34741   0.00000  Uiso   1.00
C336   C     0.10577   0.93463   0.33767   0.00000  Uiso   1.00
C337   C     0.09529   0.95634   0.38036   0.00000  Uiso   1.00
C338   C     0.04142   0.97414   0.34958   0.00000  Uiso   1.00
C339   C     0.04105   0.99250   0.39803   0.00000  Uiso   1.00
C340   C     0.12109   0.90196   0.37360   0.00000  Uiso   1.00
C341   C     0.08892   0.87403   0.33713   0.00000  Uiso   1.00
C342   C     0.11027   0.84660   0.37988   0.00000  Uiso   1.00
C343   C     0.16610   0.94626   0.35550   0.00000  Uiso   1.00
C344   C     0.17178   0.95556   0.30382   0.00000  Uiso   1.00
C345   C     0.23103   0.96542   0.33134   0.00000  Uiso   1.00
H346   H     0.24112   0.93601   0.53796   0.00000  Uiso   1.00
H347   H     0.18666   0.97561   0.56450   0.00000  Uiso   1.00
H348   H     0.23415   0.87551   0.55204   0.00000  Uiso   1.00
H349   H     0.31700   0.95704   0.51874   0.00000  Uiso   1.00
H350   H     0.10349   0.01927   0.56020   0.00000  Uiso   1.00
H351   H     0.20364   0.80821   0.53393   0.00000  Uiso   1.00
H352   H     0.37835   0.98012   0.46371   0.00000  Uiso   1.00
H353   H     0.06554   0.93422   0.27814   0.00000  Uiso   1.00
H354   H     0.00144   0.97373   0.29041   0.00000  Uiso   1.00
H355   H     0.04894   0.87363   0.27796   0.00000  Uiso   1.00
H356   H     0.13179   0.95515   0.24466   0.00000  Uiso   1.00
H357   H     0.95315   0.01774   0.33774   0.00000  Uiso   1.00
H358   H     0.55332   0.30668   0.31147   0.00000  Uiso   1.00
H359   H     0.22802   0.97858   0.24125   0.00000  Uiso   1.00
O360   O     0.98932   0.04452   0.46173   0.00000  Uiso   1.00
O361   O     0.62073   0.26761   0.42727   0.00000  Uiso   1.00
O362   O     0.34994   0.99315   0.33515   0.00000  Uiso   1.00
N363   N     0.07691   0.01350   0.50615   0.00000  Uiso   1.00
N364   N     0.17054   0.81617   0.48160   0.00000  Uiso   1.00
N365   N     0.33388   0.97687   0.41595   0.00000  Uiso   1.00
N366   N     0.99602   0.01267   0.38645   0.00000  Uiso   1.00
N367   N     0.58965   0.31534   0.36189   0.00000  Uiso   1.00
N368   N     0.25299   0.97605   0.29625   0.00000  Uiso   1.00
C369   C     0.83017   0.17194   0.28306   0.00000  Uiso   1.00
C370   C     0.79637   0.17975   0.20200   0.00000  Uiso   1.00
C371   C     0.82473   0.19108   0.17486   0.00000  Uiso   1.00
C372   C     0.78563   0.19677   0.09893   0.00000  Uiso   1.00
C373   C     0.74305   0.20973   0.98023   0.00000  Uiso   1.00
C374   C     0.79787   0.19176   0.30385   0.00000  Uiso   1.00
C375   C     0.82750   0.21319   0.36235   0.00000  Uiso   1.00
C376   C     0.78966   0.22898   0.37216   0.00000  Uiso   1.00
C377   C     0.74941   0.26057   0.41162   0.00000  Uiso   1.00
C378   C     0.81412   0.13743   0.28399   0.00000  Uiso   1.00
C379   C     0.85741   0.11317   0.32581   0.00000  Uiso   1.00
C380   C     0.33325   0.58322   0.31891   0.00000  Uiso   1.00
C381   C     0.31824   0.53046   0.32754   0.00000  Uiso   1.00
C382   C     0.21030   0.66188   0.19647   0.00000  Uiso   1.00
C383   C     0.23126   0.67428   0.15497   0.00000  Uiso   1.00
C384   C     0.19211   0.67995   0.07906   0.00000  Uiso   1.00
C385   C     0.22041   0.69129   0.05182   0.00000  Uiso   1.00
C386   C     0.73277   0.18629   0.25682   0.00000  Uiso   1.00
C387   C     0.19487   0.70205   0.26655   0.00000  Uiso   1.00
C388   C     0.72443   0.22350   0.32505   0.00000  Uiso   1.00
C389   C     0.24901   0.63196   0.23696   0.00000  Uiso   1.00
C390   C     0.22478   0.60204   0.23001   0.00000  Uiso   1.00
C391   C     0.26802   0.57774   0.27180   0.00000  Uiso   1.00
H392   H     0.88086   0.17620   0.31967   0.00000  Uiso   1.00
H393   H     0.87512   0.19531   0.21127   0.00000  Uiso   1.00
H394   H     0.87788   0.21741   0.39874   0.00000  Uiso   1.00
H395   H     0.90779   0.11741   0.36220   0.00000  Uiso   1.00
H396   H     0.84004   0.21411   0.07036   0.00000  Uiso   1.00
H397   H     0.84587   0.26069   0.46565   0.00000  Uiso   1.00
H398   H     0.90893   0.04982   0.38860   0.00000  Uiso   1.00
H399   H     0.15961   0.65762   0.15986   0.00000  Uiso   1.00
H400   H     0.14173   0.67571   0.04268   0.00000  Uiso   1.00
H401   H     0.14449   0.69781   0.23015   0.00000  Uiso   1.00
H402   H     0.17440   0.59781   0.19361   0.00000  Uiso   1.00
H403   H     0.15061   0.69820   0.93352   0.00000  Uiso   1.00
H404   H     0.65644   0.24478   0.32882   0.00000  Uiso   1.00
H405   H     0.21950   0.53392   0.25177   0.00000  Uiso   1.00
O406   O     0.73755   0.21840   0.92775   0.00000  Uiso   1.00
O407   O     0.74520   0.27951   0.44637   0.00000  Uiso   1.00
O408   O     0.32794   0.50286   0.34527   0.00000  Uiso   1.00
N409   N     0.79791   0.20787   0.05423   0.00000  Uiso   1.00
N410   N     0.80336   0.25143   0.42380   0.00000  Uiso   1.00
N411   N     0.36232   0.55429   0.35178   0.00000  Uiso   1.00
N412   N     0.19598   0.69931   0.98060   0.00000  Uiso   1.00
N413   N     0.70143   0.24287   0.35017   0.00000  Uiso   1.00
N414   N     0.26039   0.54573   0.27815   0.00000  Uiso   1.00
C415   C     0.60218   0.15025   0.60086   0.00000  Uiso   1.00
C416   C     0.55807   0.12193   0.57449   0.00000  Uiso   1.00
C417   C     0.57663   0.09067   0.59700   0.00000  Uiso   1.00
C418   C     0.52906   0.06823   0.56641   0.00000  Uiso   1.00
C419   C     0.47028   0.02296   0.53323   0.00000  Uiso   1.00
C420   C     0.08408   0.66555   0.53088   0.00000  Uiso   1.00
C421   C     0.62450   0.17095   0.51672   0.00000  Uiso   1.00
C422   C     0.09883   0.68523   0.44943   0.00000  Uiso   1.00
C423   C     0.08044   0.70769   0.34856   0.00000  Uiso   1.00
C424   C     0.08388   0.67406   0.63256   0.00000  Uiso   1.00
C425   C     0.62415   0.18663   0.70389   0.00000  Uiso   1.00
C426   C     0.09832   0.70808   0.72220   0.00000  Uiso   1.00
C427   C     0.07962   0.74375   0.77921   0.00000  Uiso   1.00
C428   C     0.98470   0.66600   0.50653   0.00000  Uiso   1.00
C429   C     0.99426   0.63049   0.52325   0.00000  Uiso   1.00
C430   C     0.94665   0.60809   0.49263   0.00000  Uiso   1.00
C431   C     0.96514   0.57680   0.51508   0.00000  Uiso   1.00
C432   C     0.02027   0.67410   0.47964   0.00000  Uiso   1.00
C433   C     0.99453   0.68838   0.41236   0.00000  Uiso   1.00
C434   C     0.03491   0.69380   0.39810   0.00000  Uiso   1.00
C435   C     0.02007   0.68261   0.58132   0.00000  Uiso   1.00
C436   C     0.99417   0.70405   0.59952   0.00000  Uiso   1.00
C437   C     0.03439   0.71665   0.67087   0.00000  Uiso   1.00
H438   H     0.65185   0.14359   0.64075   0.00000  Uiso   1.00
H439   H     0.62601   0.08406   0.63664   0.00000  Uiso   1.00
H440   H     0.67388   0.16433   0.55639   0.00000  Uiso   1.00
H441   H     0.67352   0.18000   0.74352   0.00000  Uiso   1.00
H442   H     0.56922   0.02182   0.60948   0.00000  Uiso   1.00
H443   H     0.67016   0.19110   0.44026   0.00000  Uiso   1.00
H444   H     0.66941   0.22414   0.83488   0.00000  Uiso   1.00
H445   H     0.93502   0.67266   0.46664   0.00000  Uiso   1.00
H446   H     0.89728   0.61472   0.45298   0.00000  Uiso   1.00
H447   H     0.94515   0.69500   0.37272   0.00000  Uiso   1.00
H448   H     0.94480   0.71066   0.55986   0.00000  Uiso   1.00
H449   H     0.88358   0.54671   0.46041   0.00000  Uiso   1.00
H450   H     0.98452   0.71599   0.29119   0.00000  Uiso   1.00
H451   H     0.98377   0.74903   0.68581   0.00000  Uiso   1.00
O452   O     0.45548   0.99563   0.52908   0.00000  Uiso   1.00
O453   O     0.08792   0.71771   0.30708   0.00000  Uiso   1.00
O454   O     0.08693   0.76106   0.82481   0.00000  Uiso   1.00
N455   N     0.53071   0.03563   0.57628   0.00000  Uiso   1.00
N456   N     0.62508   0.19389   0.41806   0.00000  Uiso   1.00
N457   N     0.12438   0.72479   0.78700   0.00000  Uiso   1.00
N458   N     0.93081   0.54902   0.49607   0.00000  Uiso   1.00
N459   N     0.02519   0.70728   0.33785   0.00000  Uiso   1.00
N460   N     0.02449   0.73818   0.70678   0.00000  Uiso   1.00
C461   C     0.70089   0.43560   0.47844   0.00000  Uiso   1.00
C462   C     0.64696   0.45687   0.45682   0.00000  Uiso   1.00
C463   C     0.64667   0.47521   0.50533   0.00000  Uiso   1.00
C464   C     0.59281   0.49303   0.47463   0.00000  Uiso   1.00
C465   C     0.51691   0.52612   0.45270   0.00000  Uiso   1.00
C466   C     0.67276   0.40249   0.45005   0.00000  Uiso   1.00
C467   C     0.69417   0.37510   0.49287   0.00000  Uiso   1.00
C468   C     0.66203   0.34713   0.45648   0.00000  Uiso   1.00
C469   C     0.62621   0.29579   0.42404   0.00000  Uiso   1.00
C470   C     0.71777   0.44678   0.43197   0.00000  Uiso   1.00
C471   C     0.77703   0.45663   0.45957   0.00000  Uiso   1.00
C472   C     0.78280   0.46595   0.40794   0.00000  Uiso   1.00
C473   C     0.81687   0.48338   0.34741   0.00000  Uiso   1.00
C474   C     0.60577   0.43463   0.33767   0.00000  Uiso   1.00
C475   C     0.59529   0.45634   0.38036   0.00000  Uiso   1.00
C476   C     0.54142   0.47414   0.34958   0.00000  Uiso   1.00
C477   C     0.54105   0.49250   0.39803   0.00000  Uiso   1.00
C478   C     0.62109   0.40196   0.37360   0.00000  Uiso   1.00
C479   C     0.58892   0.37403   0.33713   0.00000  Uiso   1.00
C480   C     0.61027   0.34660   0.37988   0.00000  Uiso   1.00
C481   C     0.66610   0.44626   0.35550   0.00000  Uiso   1.00
C482   C     0.67178   0.45556   0.30382   0.00000  Uiso   1.00
C483   C     0.73103   0.46542   0.33134   0.00000  Uiso   1.00
H484   H     0.74112   0.43601   0.53796   0.00000  Uiso   1.00
H485   H     0.68666   0.47561   0.56450   0.00000  Uiso   1.00
H486   H     0.73415   0.37551   0.55204   0.00000  Uiso   1.00
H487   H     0.81700   0.45704   0.51874   0.00000  Uiso   1.00
H488   H     0.60349   0.51927   0.56020   0.00000  Uiso   1.00
H489   H     0.70364   0.30821   0.53393   0.00000  Uiso   1.00
H490   H     0.87835   0.48012   0.46371   0.00000  Uiso   1.00
H491   H     0.56554   0.43422   0.27814   0.00000  Uiso   1.00
H492   H     0.50144   0.47373   0.29041   0.00000  Uiso   1.00
H493   H     0.54894   0.37363   0.27796   0.00000  Uiso   1.00
H494   H     0.63179   0.45515   0.24466   0.00000  Uiso   1.00
H495   H     0.45315   0.51774   0.33774   0.00000  Uiso   1.00
H496   H     0.05332   0.80668   0.31147   0.00000  Uiso   1.00
H497   H     0.72802   0.47858   0.24125   0.00000  Uiso   1.00
O498   O     0.48932   0.54452   0.46173   0.00000  Uiso   1.00
O499   O     0.12073   0.76761   0.42727   0.00000  Uiso   1.00
O500   O     0.84994   0.49315   0.33515   0.00000  Uiso   1.00
N501   N     0.57691   0.51350   0.50615   0.00000  Uiso   1.00
N502   N     0.67054   0.31617   0.48160   0.00000  Uiso   1.00
N503   N     0.83388   0.47687   0.41595   0.00000  Uiso   1.00
N504   N     0.49602   0.51267   0.38645   0.00000  Uiso   1.00
N505   N     0.08965   0.81534   0.36189   0.00000  Uiso   1.00
N506   N     0.75299   0.47605   0.29625   0.00000  Uiso   1.00
C507   C     0.33017   0.67194   0.28306   0.00000  Uiso   1.00
C508   C     0.29637   0.67975   0.20200   0.00000  Uiso   1.00
C509   C     0.32473   0.69108   0.17486   0.00000  Uiso   1.00
C510   C     0.28563   0.69677   0.09893   0.00000  Uiso   1.00
C511   C     0.24305   0.70973   0.98023   0.00000  Uiso   1.00
C512   C     0.29787   0.69176   0.30385   0.00000  Uiso   1.00
C513   C     0.32750   0.71319   0.36235   0.00000  Uiso   1.00
C514   C     0.28966   0.72898   0.37216   0.00000  Uiso   1.00
C515   C     0.24941   0.76057   0.41162   0.00000  Uiso   1.00
C516   C     0.31412   0.63743   0.28399   0.00000  Uiso   1.00
C517   C     0.35741   0.61317   0.32581   0.00000  Uiso   1.00
C518   C     0.83325   0.08322   0.31891   0.00000  Uiso   1.00
C519   C     0.81824   0.03046   0.32754   0.00000  Uiso   1.00
C520   C     0.71030   0.16188   0.19647   0.00000  Uiso   1.00
C521   C     0.73126   0.17428   0.15497   0.00000  Uiso   1.00
C522   C     0.69211   0.17995   0.07906   0.00000  Uiso   1.00
C523   C     0.72041   0.19129   0.05182   0.00000  Uiso   1.00
C524   C     0.23277   0.68629   0.25682   0.00000  Uiso   1.00
C525   C     0.69487   0.20205   0.26655   0.00000  Uiso   1.00
C526   C     0.22443   0.72350   0.32505   0.00000  Uiso   1.00
C527   C     0.74901   0.13196   0.23696   0.00000  Uiso   1.00
C528   C     0.72478   0.10204   0.23001   0.00000  Uiso   1.00
C529   C     0.76802   0.07774   0.27180   0.00000  Uiso   1.00
H530   H     0.38086   0.67620   0.31967   0.00000  Uiso   1.00
H531   H     0.37512   0.69531   0.21127   0.00000  Uiso   1.00
H532   H     0.37788   0.71741   0.39874   0.00000  Uiso   1.00
H533   H     0.40779   0.61741   0.36220   0.00000  Uiso   1.00
H534   H     0.34004   0.71411   0.07036   0.00000  Uiso   1.00
H535   H     0.34587   0.76069   0.46565   0.00000  Uiso   1.00
H536   H     0.40893   0.54982   0.38860   0.00000  Uiso   1.00
H537   H     0.65961   0.15762   0.15986   0.00000  Uiso   1.00
H538   H     0.64173   0.17571   0.04268   0.00000  Uiso   1.00
H539   H     0.64449   0.19781   0.23015   0.00000  Uiso   1.00
H540   H     0.67440   0.09781   0.19361   0.00000  Uiso   1.00
H541   H     0.65061   0.19820   0.93352   0.00000  Uiso   1.00
H542   H     0.15644   0.74478   0.32882   0.00000  Uiso   1.00
H543   H     0.71950   0.03392   0.25177   0.00000  Uiso   1.00
O544   O     0.23755   0.71840   0.92775   0.00000  Uiso   1.00
O545   O     0.24520   0.77951   0.44637   0.00000  Uiso   1.00
O546   O     0.82794   0.00286   0.34527   0.00000  Uiso   1.00
N547   N     0.29791   0.70787   0.05423   0.00000  Uiso   1.00
N548   N     0.30336   0.75143   0.42380   0.00000  Uiso   1.00
N549   N     0.86232   0.05429   0.35178   0.00000  Uiso   1.00
N550   N     0.69598   0.19931   0.98060   0.00000  Uiso   1.00
N551   N     0.20143   0.74287   0.35017   0.00000  Uiso   1.00
N552   N     0.76039   0.04573   0.27815   0.00000  Uiso   1.00
C553   C     0.10218   0.34975   0.10086   0.00000  Uiso   1.00
C554   C     0.05807   0.37807   0.07449   0.00000  Uiso   1.00
C555   C     0.07663   0.40933   0.09700   0.00000  Uiso   1.00
C556   C     0.02906   0.43177   0.06641   0.00000  Uiso   1.00
C557   C     0.97028   0.47704   0.03323   0.00000  Uiso   1.00
C558   C     0.58408   0.83445   0.03088   0.00000  Uiso   1.00
C559   C     0.12450   0.32905   0.01672   0.00000  Uiso   1.00
C560   C     0.59883   0.81477   0.94943   0.00000  Uiso   1.00
C561   C     0.58044   0.79231   0.84856   0.00000  Uiso   1.00
C562   C     0.58388   0.82594   0.13256   0.00000  Uiso   1.00
C563   C     0.12415   0.31337   0.20389   0.00000  Uiso   1.00
C564   C     0.59832   0.79192   0.22220   0.00000  Uiso   1.00
C565   C     0.57962   0.75625   0.27921   0.00000  Uiso   1.00
C566   C     0.48470   0.83400   0.00653   0.00000  Uiso   1.00
C567   C     0.49426   0.86951   0.02325   0.00000  Uiso   1.00
C568   C     0.44665   0.89191   0.99263   0.00000  Uiso   1.00
C569   C     0.46514   0.92320   0.01508   0.00000  Uiso   1.00
C570   C     0.52027   0.82590   0.97964   0.00000  Uiso   1.00
C571   C     0.49453   0.81162   0.91236   0.00000  Uiso   1.00
C572   C     0.53491   0.80620   0.89810   0.00000  Uiso   1.00
C573   C     0.52007   0.81739   0.08132   0.00000  Uiso   1.00
C574   C     0.49417   0.79595   0.09952   0.00000  Uiso   1.00
C575   C     0.53439   0.78335   0.17087   0.00000  Uiso   1.00
H576   H     0.15185   0.35641   0.14075   0.00000  Uiso   1.00
H577   H     0.12601   0.41594   0.13664   0.00000  Uiso   1.00
H578   H     0.17388   0.33567   0.05639   0.00000  Uiso   1.00
H579   H     0.17352   0.32000   0.24352   0.00000  Uiso   1.00
H580   H     0.06922   0.47818   0.10948   0.00000  Uiso   1.00
H581   H     0.17016   0.30890   0.94026   0.00000  Uiso   1.00
H582   H     0.16941   0.27586   0.33488   0.00000  Uiso   1.00
H583   H     0.43502   0.82734   0.96664   0.00000  Uiso   1.00
H584   H     0.39728   0.88528   0.95298   0.00000  Uiso   1.00
H585   H     0.44515   0.80500   0.87272   0.00000  Uiso   1.00
H586   H     0.44480   0.78934   0.05986   0.00000  Uiso   1.00
H587   H     0.38358   0.95329   0.96041   0.00000  Uiso   1.00
H588   H     0.48452   0.78401   0.79119   0.00000  Uiso   1.00
H589   H     0.48377   0.75097   0.18581   0.00000  Uiso   1.00
O590   O     0.95548   0.50437   0.02908   0.00000  Uiso   1.00
O591   O     0.58792   0.78229   0.80708   0.00000  Uiso   1.00
O592   O     0.58693   0.73894   0.32481   0.00000  Uiso   1.00
N593   N     0.03071   0.46437   0.07628   0.00000  Uiso   1.00
N594   N     0.12508   0.30611   0.91806   0.00000  Uiso   1.00
N595   N     0.62438   0.77521   0.28700   0.00000  Uiso   1.00
N596   N     0.43081   0.95098   0.99607   0.00000  Uiso   1.00
N597   N     0.52519   0.79272   0.83785   0.00000  Uiso   1.00
N598   N     0.52449   0.76182   0.20678   0.00000  Uiso   1.00
C599   C     0.20089   0.06440   0.97844   0.00000  Uiso   1.00
C600   C     0.14696   0.04313   0.95682   0.00000  Uiso   1.00
C601   C     0.14667   0.02479   0.00533   0.00000  Uiso   1.00
C602   C     0.09281   0.00697   0.97463   0.00000  Uiso   1.00
C603   C     0.01691   0.97388   0.95270   0.00000  Uiso   1.00
C604   C     0.17276   0.09751   0.95005   0.00000  Uiso   1.00
C605   C     0.19417   0.12490   0.99287   0.00000  Uiso   1.00
C606   C     0.16203   0.15287   0.95648   0.00000  Uiso   1.00
C607   C     0.12621   0.20421   0.92404   0.00000  Uiso   1.00
C608   C     0.21777   0.05322   0.93197   0.00000  Uiso   1.00
C609   C     0.27703   0.04337   0.95957   0.00000  Uiso   1.00
C610   C     0.28280   0.03405   0.90794   0.00000  Uiso   1.00
C611   C     0.31687   0.01662   0.84741   0.00000  Uiso   1.00
C612   C     0.10577   0.06537   0.83767   0.00000  Uiso   1.00
C613   C     0.09529   0.04366   0.88036   0.00000  Uiso   1.00
C614   C     0.04142   0.02586   0.84958   0.00000  Uiso   1.00
C615   C     0.04105   0.00750   0.89803   0.00000  Uiso   1.00
C616   C     0.12109   0.09804   0.87360   0.00000  Uiso   1.00
C617   C     0.08892   0.12597   0.83713   0.00000  Uiso   1.00
C618   C     0.11027   0.15340   0.87988   0.00000  Uiso   1.00
C619   C     0.16610   0.05374   0.85550   0.00000  Uiso   1.00
C620   C     0.17178   0.04444   0.80382   0.00000  Uiso   1.00
C621   C     0.23103   0.03458   0.83134   0.00000  Uiso   1.00
H622   H     0.24112   0.06399   0.03796   0.00000  Uiso   1.00
H623   H     0.18666   0.02439   0.06450   0.00000  Uiso   1.00
H624   H     0.23415   0.12449   0.05204   0.00000  Uiso   1.00
H625   H     0.31700   0.04296   0.01874   0.00000  Uiso   1.00
H626   H     0.10349   0.98073   0.06020   0.00000  Uiso   1.00
H627   H     0.20364   0.19179   0.03393   0.00000  Uiso   1.00
H628   H     0.37835   0.01988   0.96371   0.00000  Uiso   1.00
H629   H     0.06554   0.06578   0.77814   0.00000  Uiso   1.00
H630   H     0.00144   0.02627   0.79041   0.00000  Uiso   1.00
H631   H     0.04894   0.12637   0.77796   0.00000  Uiso   1.00
H632   H     0.13179   0.04485   0.74466   0.00000  Uiso   1.00
H633   H     0.95315   0.98226   0.83774   0.00000  Uiso   1.00
H634   H     0.55332   0.69332   0.81147   0.00000  Uiso   1.00
H635   H     0.22802   0.02142   0.74125   0.00000  Uiso   1.00
O636   O     0.98932   0.95548   0.96173   0.00000  Uiso   1.00
O637   O     0.62073   0.73239   0.92727   0.00000  Uiso   1.00
O638   O     0.34994   0.00685   0.83515   0.00000  Uiso   1.00
N639   N     0.07691   0.98650   0.00615   0.00000  Uiso   1.00
N640   N     0.17054   0.18383   0.98160   0.00000  Uiso   1.00
N641   N     0.33388   0.02313   0.91595   0.00000  Uiso   1.00
N642   N     0.99602   0.98733   0.88645   0.00000  Uiso   1.00
N643   N     0.58965   0.68466   0.86189   0.00000  Uiso   1.00
N644   N     0.25299   0.02395   0.79625   0.00000  Uiso   1.00
C645   C     0.83017   0.82806   0.78306   0.00000  Uiso   1.00
C646   C     0.79637   0.82025   0.70200   0.00000  Uiso   1.00
C647   C     0.82473   0.80892   0.67486   0.00000  Uiso   1.00
C648   C     0.78563   0.80323   0.59893   0.00000  Uiso   1.00
C649   C     0.74305   0.79027   0.48023   0.00000  Uiso   1.00
C650   C     0.79787   0.80824   0.80385   0.00000  Uiso   1.00
C651   C     0.82750   0.78681   0.86235   0.00000  Uiso   1.00
C652   C     0.78966   0.77102   0.87216   0.00000  Uiso   1.00
C653   C     0.74941   0.73943   0.91162   0.00000  Uiso   1.00
C654   C     0.81412   0.86257   0.78399   0.00000  Uiso   1.00
C655   C     0.85741   0.88683   0.82581   0.00000  Uiso   1.00
C656   C     0.33325   0.41678   0.81891   0.00000  Uiso   1.00
C657   C     0.31824   0.46954   0.82754   0.00000  Uiso   1.00
C658   C     0.21030   0.33812   0.69647   0.00000  Uiso   1.00
C659   C     0.23126   0.32572   0.65497   0.00000  Uiso   1.00
C660   C     0.19211   0.32005   0.57906   0.00000  Uiso   1.00
C661   C     0.22041   0.30871   0.55182   0.00000  Uiso   1.00
C662   C     0.73277   0.81371   0.75682   0.00000  Uiso   1.00
C663   C     0.19487   0.29795   0.76655   0.00000  Uiso   1.00
C664   C     0.72443   0.77650   0.82505   0.00000  Uiso   1.00
C665   C     0.24901   0.36804   0.73696   0.00000  Uiso   1.00
C666   C     0.22478   0.39796   0.73001   0.00000  Uiso   1.00
C667   C     0.26802   0.42226   0.77180   0.00000  Uiso   1.00
H668   H     0.88086   0.82380   0.81967   0.00000  Uiso   1.00
H669   H     0.87512   0.80469   0.71127   0.00000  Uiso   1.00
H670   H     0.87788   0.78259   0.89874   0.00000  Uiso   1.00
H671   H     0.90779   0.88259   0.86220   0.00000  Uiso   1.00
H672   H     0.84004   0.78589   0.57036   0.00000  Uiso   1.00
H673   H     0.84587   0.73931   0.96565   0.00000  Uiso   1.00
H674   H     0.90893   0.95018   0.88860   0.00000  Uiso   1.00
H675   H     0.15961   0.34238   0.65986   0.00000  Uiso   1.00
H676   H     0.14173   0.32429   0.54268   0.00000  Uiso   1.00
H677   H     0.14449   0.30219   0.73015   0.00000  Uiso   1.00
H678   H     0.17440   0.40219   0.69361   0.00000  Uiso   1.00
H679   H     0.15061   0.30180   0.43352   0.00000  Uiso   1.00
H680   H     0.65644   0.75522   0.82882   0.00000  Uiso   1.00
H681   H     0.21950   0.46608   0.75177   0.00000  Uiso   1.00
O682   O     0.73755   0.78160   0.42775   0.00000  Uiso   1.00
O683   O     0.74520   0.72049   0.94637   0.00000  Uiso   1.00
O684   O     0.32794   0.49714   0.84527   0.00000  Uiso   1.00
N685   N     0.79791   0.79213   0.55423   0.00000  Uiso   1.00
N686   N     0.80336   0.74857   0.92380   0.00000  Uiso   1.00
N687   N     0.36232   0.44571   0.85178   0.00000  Uiso   1.00
N688   N     0.19598   0.30069   0.48060   0.00000  Uiso   1.00
N689   N     0.70143   0.75713   0.85017   0.00000  Uiso   1.00
N690   N     0.26039   0.45427   0.77815   0.00000  Uiso   1.00
C691   C     0.60218   0.84975   0.10086   0.00000  Uiso   1.00
C692   C     0.55807   0.87807   0.07449   0.00000  Uiso   1.00
C693   C     0.57663   0.90933   0.09700   0.00000  Uiso   1.00
C694   C     0.52906   0.93177   0.06641   0.00000  Uiso   1.00
C695   C     0.47028   0.97704   0.03323   0.00000  Uiso   1.00
C696   C     0.08408   0.33445   0.03088   0.00000  Uiso   1.00
C697   C     0.62450   0.82905   0.01672   0.00000  Uiso   1.00
C698   C     0.09883   0.31477   0.94943   0.00000  Uiso   1.00
C699   C     0.08044   0.29231   0.84856   0.00000  Uiso   1.00
C700   C     0.08388   0.32594   0.13256   0.00000  Uiso   1.00
C701   C     0.62415   0.81337   0.20389   0.00000  Uiso   1.00
C702   C     0.09832   0.29192   0.22220   0.00000  Uiso   1.00
C703   C     0.07962   0.25625   0.27921   0.00000  Uiso   1.00
C704   C     0.98470   0.33400   0.00653   0.00000  Uiso   1.00
C705   C     0.99426   0.36951   0.02325   0.00000  Uiso   1.00
C706   C     0.94665   0.39191   0.99263   0.00000  Uiso   1.00
C707   C     0.96514   0.42320   0.01508   0.00000  Uiso   1.00
C708   C     0.02027   0.32590   0.97964   0.00000  Uiso   1.00
C709   C     0.99453   0.31162   0.91236   0.00000  Uiso   1.00
C710   C     0.03491   0.30620   0.89810   0.00000  Uiso   1.00
C711   C     0.02007   0.31739   0.08132   0.00000  Uiso   1.00
C712   C     0.99417   0.29595   0.09952   0.00000  Uiso   1.00
C713   C     0.03439   0.28335   0.17087   0.00000  Uiso   1.00
H714   H     0.65185   0.85641   0.14075   0.00000  Uiso   1.00
H715   H     0.62601   0.91594   0.13664   0.00000  Uiso   1.00
H716   H     0.67388   0.83567   0.05639   0.00000  Uiso   1.00
H717   H     0.67352   0.82000   0.24352   0.00000  Uiso   1.00
H718   H     0.56922   0.97818   0.10948   0.00000  Uiso   1.00
H719   H     0.67016   0.80890   0.94026   0.00000  Uiso   1.00
H720   H     0.66941   0.77586   0.33488   0.00000  Uiso   1.00
H721   H     0.93502   0.32734   0.96664   0.00000  Uiso   1.00
H722   H     0.89728   0.38528   0.95298   0.00000  Uiso   1.00
H723   H     0.94515   0.30500   0.87272   0.00000  Uiso   1.00
H724   H     0.94480   0.28934   0.05986   0.00000  Uiso   1.00
H725   H     0.88358   0.45329   0.96041   0.00000  Uiso   1.00
H726   H     0.98452   0.28401   0.79119   0.00000  Uiso   1.00
H727   H     0.98377   0.25097   0.18581   0.00000  Uiso   1.00
O728   O     0.45548   0.00437   0.02908   0.00000  Uiso   1.00
O729   O     0.08792   0.28229   0.80708   0.00000  Uiso   1.00
O730   O     0.08693   0.23894   0.32481   0.00000  Uiso   1.00
N731   N     0.53071   0.96437   0.07628   0.00000  Uiso   1.00
N732   N     0.62508   0.80611   0.91806   0.00000  Uiso   1.00
N733   N     0.12438   0.27521   0.28700   0.00000  Uiso   1.00
N734   N     0.93081   0.45098   0.99607   0.00000  Uiso   1.00
N735   N     0.02519   0.29272   0.83785   0.00000  Uiso   1.00
N736   N     0.02449   0.26182   0.20678   0.00000  Uiso   1.00
C737   C     0.70089   0.56440   0.97844   0.00000  Uiso   1.00
C738   C     0.64696   0.54313   0.95682   0.00000  Uiso   1.00
C739   C     0.64667   0.52479   0.00533   0.00000  Uiso   1.00
C740   C     0.59281   0.50697   0.97463   0.00000  Uiso   1.00
C741   C     0.51691   0.47388   0.95270   0.00000  Uiso   1.00
C742   C     0.67276   0.59751   0.95005   0.00000  Uiso   1.00
C743   C     0.69417   0.62490   0.99287   0.00000  Uiso   1.00
C744   C     0.66203   0.65287   0.95648   0.00000  Uiso   1.00
C745   C     0.62621   0.70421   0.92404   0.00000  Uiso   1.00
C746   C     0.71777   0.55322   0.93197   0.00000  Uiso   1.00
C747   C     0.77703   0.54337   0.95957   0.00000  Uiso   1.00
C748   C     0.78280   0.53405   0.90794   0.00000  Uiso   1.00
C749   C     0.81687   0.51662   0.84741   0.00000  Uiso   1.00
C750   C     0.60577   0.56537   0.83767   0.00000  Uiso   1.00
C751   C     0.59529   0.54366   0.88036   0.00000  Uiso   1.00
C752   C     0.54142   0.52586   0.84958   0.00000  Uiso   1.00
C753   C     0.54105   0.50750   0.89803   0.00000  Uiso   1.00
C754   C     0.62109   0.59804   0.87360   0.00000  Uiso   1.00
C755   C     0.58892   0.62597   0.83713   0.00000  Uiso   1.00
C756   C     0.61027   0.65340   0.87988   0.00000  Uiso   1.00
C757   C     0.66610   0.55374   0.85550   0.00000  Uiso   1.00
C758   C     0.67178   0.54444   0.80382   0.00000  Uiso   1.00
C759   C     0.73103   0.53458   0.83134   0.00000  Uiso   1.00
H760   H     0.74112   0.56399   0.03796   0.00000  Uiso   1.00
H761   H     0.68666   0.52439   0.06450   0.00000  Uiso   1.00
H762   H     0.73415   0.62449   0.05204   0.00000  Uiso   1.00
H763   H     0.81700   0.54296   0.01874   0.00000  Uiso   1.00
H764   H     0.60349   0.48073   0.06020   0.00000  Uiso   1.00
H765   H     0.70364   0.69179   0.03393   0.00000  Uiso   1.00
H766   H     0.87835   0.51988   0.96371   0.00000  Uiso   1.00
H767   H     0.56554   0.56578   0.77814   0.00000  Uiso   1.00
H768   H     0.50144   0.52627   0.79041   0.00000  Uiso   1.00
H769   H     0.54894   0.62637   0.77796   0.00000  Uiso   1.00
H770   H     0.63179   0.54485   0.74466   0.00000  Uiso   1.00
H771   H     0.45315   0.48226   0.83774   0.00000  Uiso   1.00
H772   H     0.05332   0.19332   0.81147   0.00000  Uiso   1.00
H773   H     0.72802   0.52142   0.74125   0.00000  Uiso   1.00
O774   O     0.48932   0.45548   0.96173   0.00000  Uiso   1.00
O775   O     0.12073   0.23239   0.92727   0.00000  Uiso   1.00
O776   O     0.84994   0.50685   0.83515   0.00000  Uiso   1.00
N777   N     0.57691   0.48650   0.00615   0.00000  Uiso   1.00
N778   N     0.67054   0.68383   0.98160   0.00000  Uiso   1.00
N779   N     0.83388   0.52313   0.91595   0.00000  Uiso   1.00
N780   N     0.49602   0.48733   0.88645   0.00000  Uiso   1.00
N781   N     0.08965   0.18466   0.86189   0.00000  Uiso   1.00
N782   N     0.75299   0.52395   0.79625   0.00000  Uiso   1.00
C783   C     0.33017   0.32806   0.78306   0.00000  Uiso   1.00
C784   C     0.29637   0.32025   0.70200   0.00000  Uiso   1.00
C785   C     0.32473   0.30892   0.67486   0.00000  Uiso   1.00
C786   C     0.28563   0.30323   0.59893   0.00000  Uiso   1.00
C787   C     0.24305   0.29027   0.48023   0.00000  Uiso   1.00
C788   C     0.29787   0.30824   0.80385   0.00000  Uiso   1.00
C789   C     0.32750   0.28681   0.86235   0.00000  Uiso   1.00
C790   C     0.28966   0.27102   0.87216   0.00000  Uiso   1.00
C791   C     0.24941   0.23943   0.91162   0.00000  Uiso   1.00
C792   C     0.31412   0.36257   0.78399   0.00000  Uiso   1.00
C793   C     0.35741   0.38683   0.82581   0.00000  Uiso   1.00
C794   C     0.83325   0.91678   0.81891   0.00000  Uiso   1.00
C795   C     0.81824   0.96954   0.82754   0.00000  Uiso   1.00
C796   C     0.71030   0.83812   0.69647   0.00000  Uiso   1.00
C797   C     0.73126   0.82572   0.65497   0.00000  Uiso   1.00
C798   C     0.69211   0.82005   0.57906   0.00000  Uiso   1.00
C799   C     0.72041   0.80871   0.55182   0.00000  Uiso   1.00
C800   C     0.23277   0.31371   0.75682   0.00000  Uiso   1.00
C801   C     0.69487   0.79795   0.76655   0.00000  Uiso   1.00
C802   C     0.22443   0.27650   0.82505   0.00000  Uiso   1.00
C803   C     0.74901   0.86804   0.73696   0.00000  Uiso   1.00
C804   C     0.72478   0.89796   0.73001   0.00000  Uiso   1.00
C805   C     0.76802   0.92226   0.77180   0.00000  Uiso   1.00
H806   H     0.38086   0.32380   0.81967   0.00000  Uiso   1.00
H807   H     0.37512   0.30469   0.71127   0.00000  Uiso   1.00
H808   H     0.37788   0.28259   0.89874   0.00000  Uiso   1.00
H809   H     0.40779   0.38259   0.86220   0.00000  Uiso   1.00
H810   H     0.34004   0.28589   0.57036   0.00000  Uiso   1.00
H811   H     0.34587   0.23931   0.96565   0.00000  Uiso   1.00
H812   H     0.40893   0.45018   0.88860   0.00000  Uiso   1.00
H813   H     0.65961   0.84238   0.65986   0.00000  Uiso   1.00
H814   H     0.64173   0.82429   0.54268   0.00000  Uiso   1.00
H815   H     0.64449   0.80219   0.73015   0.00000  Uiso   1.00
H816   H     0.67440   0.90219   0.69361   0.00000  Uiso   1.00
H817   H     0.65061   0.80180   0.43352   0.00000  Uiso   1.00
H818   H     0.15644   0.25522   0.82882   0.00000  Uiso   1.00
H819   H     0.71950   0.96608   0.75177   0.00000  Uiso   1.00
O820   O     0.23755   0.28160   0.42775   0.00000  Uiso   1.00
O821   O     0.24520   0.22049   0.94637   0.00000  Uiso   1.00
O822   O     0.82794   0.99714   0.84527   0.00000  Uiso   1.00
N823   N     0.29791   0.29213   0.55423   0.00000  Uiso   1.00
N824   N     0.30336   0.24857   0.92380   0.00000  Uiso   1.00
N825   N     0.86232   0.94571   0.85178   0.00000  Uiso   1.00
N826   N     0.69598   0.80069   0.48060   0.00000  Uiso   1.00
N827   N     0.20143   0.25713   0.85017   0.00000  Uiso   1.00
N828   N     0.76039   0.95427   0.77815   0.00000  Uiso   1.00
C829   C     0.89782   0.34975   0.39914   0.00000  Uiso   1.00
C830   C     0.94193   0.37807   0.42551   0.00000  Uiso   1.00
C831   C     0.92337   0.40933   0.40300   0.00000  Uiso   1.00
C832   C     0.97094   0.43177   0.43359   0.00000  Uiso   1.00
C833   C     0.02972   0.47704   0.46677   0.00000  Uiso   1.00
C834   C     0.41592   0.83445   0.46912   0.00000  Uiso   1.00
C835   C     0.87550   0.32905   0.48328   0.00000  Uiso   1.00
C836   C     0.40117   0.81477   0.55057   0.00000  Uiso   1.00
C837   C     0.41956   0.79231   0.65144   0.00000  Uiso   1.00
C838   C     0.41612   0.82594   0.36744   0.00000  Uiso   1.00
C839   C     0.87585   0.31337   0.29611   0.00000  Uiso   1.00
C840   C     0.40168   0.79192   0.27780   0.00000  Uiso   1.00
C841   C     0.42038   0.75625   0.22079   0.00000  Uiso   1.00
C842   C     0.51530   0.83400   0.49347   0.00000  Uiso   1.00
C843   C     0.50574   0.86951   0.47675   0.00000  Uiso   1.00
C844   C     0.55335   0.89191   0.50737   0.00000  Uiso   1.00
C845   C     0.53486   0.92320   0.48492   0.00000  Uiso   1.00
C846   C     0.47973   0.82590   0.52036   0.00000  Uiso   1.00
C847   C     0.50547   0.81162   0.58764   0.00000  Uiso   1.00
C848   C     0.46509   0.80620   0.60190   0.00000  Uiso   1.00
C849   C     0.47993   0.81739   0.41868   0.00000  Uiso   1.00
C850   C     0.50583   0.79595   0.40048   0.00000  Uiso   1.00
C851   C     0.46561   0.78335   0.32913   0.00000  Uiso   1.00
H852   H     0.84815   0.35641   0.35925   0.00000  Uiso   1.00
H853   H     0.87399   0.41594   0.36336   0.00000  Uiso   1.00
H854   H     0.82612   0.33567   0.44361   0.00000  Uiso   1.00
H855   H     0.82648   0.32000   0.25648   0.00000  Uiso   1.00
H856   H     0.93078   0.47818   0.39052   0.00000  Uiso   1.00
H857   H     0.82984   0.30890   0.55974   0.00000  Uiso   1.00
H858   H     0.83059   0.27586   0.16512   0.00000  Uiso   1.00
H859   H     0.56498   0.82734   0.53336   0.00000  Uiso   1.00
H860   H     0.60272   0.88528   0.54702   0.00000  Uiso   1.00
H861   H     0.55485   0.80500   0.62728   0.00000  Uiso   1.00
H862   H     0.55520   0.78934   0.44014   0.00000  Uiso   1.00
H863   H     0.61642   0.95329   0.53959   0.00000  Uiso   1.00
H864   H     0.51548   0.78401   0.70881   0.00000  Uiso   1.00
H865   H     0.51623   0.75097   0.31419   0.00000  Uiso   1.00
O866   O     0.04452   0.50437   0.47092   0.00000  Uiso   1.00
O867   O     0.41208   0.78229   0.69292   0.00000  Uiso   1.00
O868   O     0.41307   0.73894   0.17519   0.00000  Uiso   1.00
N869   N     0.96929   0.46437   0.42372   0.00000  Uiso   1.00
N870   N     0.87492   0.30611   0.58194   0.00000  Uiso   1.00
N871   N     0.37562   0.77521   0.21300   0.00000  Uiso   1.00
N872   N     0.56919   0.95098   0.50393   0.00000  Uiso   1.00
N873   N     0.47481   0.79272   0.66215   0.00000  Uiso   1.00
N874   N     0.47551   0.76182   0.29322   0.00000  Uiso   1.00
C875   C     0.79911   0.06440   0.52156   0.00000  Uiso   1.00
C876   C     0.85304   0.04313   0.54318   0.00000  Uiso   1.00
C877   C     0.85333   0.02479   0.49467   0.00000  Uiso   1.00
C878   C     0.90719   0.00697   0.52537   0.00000  Uiso   1.00
C879   C     0.98309   0.97388   0.54730   0.00000  Uiso   1.00
C880   C     0.82724   0.09751   0.54995   0.00000  Uiso   1.00
C881   C     0.80583   0.12490   0.50713   0.00000  Uiso   1.00
C882   C     0.83797   0.15287   0.54352   0.00000  Uiso   1.00
C883   C     0.87379   0.20421   0.57596   0.00000  Uiso   1.00
C884   C     0.78223   0.05322   0.56803   0.00000  Uiso   1.00
C885   C     0.72297   0.04337   0.54043   0.00000  Uiso   1.00
C886   C     0.71720   0.03405   0.59206   0.00000  Uiso   1.00
C887   C     0.68313   0.01662   0.65259   0.00000  Uiso   1.00
C888   C     0.89423   0.06537   0.66233   0.00000  Uiso   1.00
C889   C     0.90471   0.04366   0.61964   0.00000  Uiso   1.00
C890   C     0.95858   0.02586   0.65042   0.00000  Uiso   1.00
C891   C     0.95895   0.00750   0.60197   0.00000  Uiso   1.00
C892   C     0.87891   0.09804   0.62640   0.00000  Uiso   1.00
C893   C     0.91108   0.12597   0.66287   0.00000  Uiso   1.00
C894   C     0.88973   0.15340   0.62012   0.00000  Uiso   1.00
C895   C     0.83390   0.05374   0.64450   0.00000  Uiso   1.00
C896   C     0.82822   0.04444   0.69618   0.00000  Uiso   1.00
C897   C     0.76897   0.03458   0.66866   0.00000  Uiso   1.00
H898   H     0.75888   0.06399   0.46204   0.00000  Uiso   1.00
H899   H     0.81334   0.02439   0.43550   0.00000  Uiso   1.00
H900   H     0.76585   0.12449   0.44796   0.00000  Uiso   1.00
H901   H     0.68300   0.04296   0.48126   0.00000  Uiso   1.00
H902   H     0.89651   0.98073   0.43980   0.00000  Uiso   1.00
H903   H     0.79636   0.19179   0.46607   0.00000  Uiso   1.00
H904   H     0.62165   0.01988   0.53629   0.00000  Uiso   1.00
H905   H     0.93446   0.06578   0.72186   0.00000  Uiso   1.00
H906   H     0.99856   0.02627   0.70959   0.00000  Uiso   1.00
H907   H     0.95106   0.12637   0.72204   0.00000  Uiso   1.00
H908   H     0.86821   0.04485   0.75534   0.00000  Uiso   1.00
H909   H     0.04685   0.98226   0.66226   0.00000  Uiso   1.00
H910   H     0.44668   0.69332   0.68853   0.00000  Uiso   1.00
H911   H     0.77198   0.02142   0.75875   0.00000  Uiso   1.00
O912   O     0.01068   0.95548   0.53827   0.00000  Uiso   1.00
O913   O     0.37927   0.73239   0.57273   0.00000  Uiso   1.00
O914   O     0.65006   0.00685   0.66485   0.00000  Uiso   1.00
N915   N     0.92309   0.98650   0.49385   0.00000  Uiso   1.00
N916   N     0.82946   0.18383   0.51840   0.00000  Uiso   1.00
N917   N     0.66612   0.02313   0.58405   0.00000  Uiso   1.00
N918   N     0.00398   0.98733   0.61355   0.00000  Uiso   1.00
N919   N     0.41035   0.68466   0.63811   0.00000  Uiso   1.00
N920   N     0.74701   0.02395   0.70375   0.00000  Uiso   1.00
C921   C     0.16983   0.82806   0.71694   0.00000  Uiso   1.00
C922   C     0.20363   0.82025   0.79800   0.00000  Uiso   1.00
C923   C     0.17527   0.80892   0.82514   0.00000  Uiso   1.00
C924   C     0.21437   0.80323   0.90107   0.00000  Uiso   1.00
C925   C     0.25695   0.79027   0.01977   0.00000  Uiso   1.00
C926   C     0.20213   0.80824   0.69615   0.00000  Uiso   1.00
C927   C     0.17250   0.78681   0.63765   0.00000  Uiso   1.00
C928   C     0.21034   0.77102   0.62784   0.00000  Uiso   1.00
C929   C     0.25059   0.73943   0.58838   0.00000  Uiso   1.00
C930   C     0.18588   0.86257   0.71601   0.00000  Uiso   1.00
C931   C     0.14259   0.88683   0.67419   0.00000  Uiso   1.00
C932   C     0.66675   0.41678   0.68109   0.00000  Uiso   1.00
C933   C     0.68176   0.46954   0.67246   0.00000  Uiso   1.00
C934   C     0.78970   0.33812   0.80353   0.00000  Uiso   1.00
C935   C     0.76874   0.32572   0.84503   0.00000  Uiso   1.00
C936   C     0.80789   0.32005   0.92094   0.00000  Uiso   1.00
C937   C     0.77959   0.30871   0.94818   0.00000  Uiso   1.00
C938   C     0.26723   0.81371   0.74318   0.00000  Uiso   1.00
C939   C     0.80513   0.29795   0.73345   0.00000  Uiso   1.00
C940   C     0.27557   0.77650   0.67495   0.00000  Uiso   1.00
C941   C     0.75099   0.36804   0.76304   0.00000  Uiso   1.00
C942   C     0.77522   0.39796   0.76999   0.00000  Uiso   1.00
C943   C     0.73198   0.42226   0.72820   0.00000  Uiso   1.00
H944   H     0.11914   0.82380   0.68033   0.00000  Uiso   1.00
H945   H     0.12488   0.80469   0.78873   0.00000  Uiso   1.00
H946   H     0.12212   0.78259   0.60126   0.00000  Uiso   1.00
H947   H     0.09221   0.88259   0.63780   0.00000  Uiso   1.00
H948   H     0.15996   0.78589   0.92964   0.00000  Uiso   1.00
H949   H     0.15413   0.73931   0.53435   0.00000  Uiso   1.00
H950   H     0.09107   0.95018   0.61140   0.00000  Uiso   1.00
H951   H     0.84039   0.34238   0.84014   0.00000  Uiso   1.00
H952   H     0.85827   0.32429   0.95732   0.00000  Uiso   1.00
H953   H     0.85551   0.30219   0.76985   0.00000  Uiso   1.00
H954   H     0.82560   0.40219   0.80639   0.00000  Uiso   1.00
H955   H     0.84939   0.30180   0.06648   0.00000  Uiso   1.00
H956   H     0.34356   0.75522   0.67118   0.00000  Uiso   1.00
H957   H     0.78050   0.46608   0.74823   0.00000  Uiso   1.00
O958   O     0.26245   0.78160   0.07225   0.00000  Uiso   1.00
O959   O     0.25480   0.72049   0.55363   0.00000  Uiso   1.00
O960   O     0.67206   0.49714   0.65473   0.00000  Uiso   1.00
N961   N     0.20209   0.79213   0.94577   0.00000  Uiso   1.00
N962   N     0.19664   0.74857   0.57620   0.00000  Uiso   1.00
N963   N     0.63768   0.44571   0.64822   0.00000  Uiso   1.00
N964   N     0.80402   0.30069   0.01940   0.00000  Uiso   1.00
N965   N     0.29857   0.75713   0.64983   0.00000  Uiso   1.00
N966   N     0.73961   0.45427   0.72185   0.00000  Uiso   1.00
C967   C     0.39782   0.84975   0.39914   0.00000  Uiso   1.00
C968   C     0.44193   0.87807   0.42551   0.00000  Uiso   1.00
C969   C     0.42337   0.90933   0.40300   0.00000  Uiso   1.00
C970   C     0.47094   0.93177   0.43359   0.00000  Uiso   1.00
C971   C     0.52972   0.97704   0.46677   0.00000  Uiso   1.00
C972   C     0.91592   0.33445   0.46912   0.00000  Uiso   1.00
C973   C     0.37550   0.82905   0.48328   0.00000  Uiso   1.00
C974   C     0.90117   0.31477   0.55057   0.00000  Uiso   1.00
C975   C     0.91956   0.29231   0.65144   0.00000  Uiso   1.00
C976   C     0.91612   0.32594   0.36744   0.00000  Uiso   1.00
C977   C     0.37585   0.81337   0.29611   0.00000  Uiso   1.00
C978   C     0.90168   0.29192   0.27780   0.00000  Uiso   1.00
C979   C     0.92038   0.25625   0.22079   0.00000  Uiso   1.00
C980   C     0.01530   0.33400   0.49347   0.00000  Uiso   1.00
C981   C     0.00574   0.36951   0.47675   0.00000  Uiso   1.00
C982   C     0.05335   0.39191   0.50737   0.00000  Uiso   1.00
C983   C     0.03486   0.42320   0.48492   0.00000  Uiso   1.00
C984   C     0.97973   0.32590   0.52036   0.00000  Uiso   1.00
C985   C     0.00547   0.31162   0.58764   0.00000  Uiso   1.00
C986   C     0.96509   0.30620   0.60190   0.00000  Uiso   1.00
C987   C     0.97993   0.31739   0.41868   0.00000  Uiso   1.00
C988   C     0.00583   0.29595   0.40048   0.00000  Uiso   1.00
C989   C     0.96561   0.28335   0.32913   0.00000  Uiso   1.00
H990   H     0.34815   0.85641   0.35925   0.00000  Uiso   1.00
H991   H     0.37399   0.91594   0.36336   0.00000  Uiso   1.00
H992   H     0.32612   0.83567   0.44361   0.00000  Uiso   1.00
H993   H     0.32648   0.82000   0.25648   0.00000  Uiso   1.00
H994   H     0.43078   0.97818   0.39052   0.00000  Uiso   1.00
H995   H     0.32984   0.80890   0.55974   0.00000  Uiso   1.00
H996   H     0.33059   0.77586   0.16512   0.00000  Uiso   1.00
H997   H     0.06498   0.32734   0.53336   0.00000  Uiso   1.00
H998   H     0.10272   0.38528   0.54702   0.00000  Uiso   1.00
H999   H     0.05485   0.30500   0.62728   0.00000  Uiso   1.00
H1000  H     0.05520   0.28934   0.44014   0.00000  Uiso   1.00
H1001  H     0.11642   0.45329   0.53959   0.00000  Uiso   1.00
H1002  H     0.01548   0.28401   0.70881   0.00000  Uiso   1.00
H1003  H     0.01623   0.25097   0.31419   0.00000  Uiso   1.00
O1004  O     0.54452   0.00437   0.47092   0.00000  Uiso   1.00
O1005  O     0.91208   0.28229   0.69292   0.00000  Uiso   1.00
O1006  O     0.91307   0.23894   0.17519   0.00000  Uiso   1.00
N1007  N     0.46929   0.96437   0.42372   0.00000  Uiso   1.00
N1008  N     0.37492   0.80611   0.58194   0.00000  Uiso   1.00
N1009  N     0.87562   0.27521   0.21300   0.00000  Uiso   1.00
N1010  N     0.06919   0.45098   0.50393   0.00000  Uiso   1.00
N1011  N     0.97481   0.29272   0.66215   0.00000  Uiso   1.00
N1012  N     0.97551   0.26182   0.29322   0.00000  Uiso   1.00
C1013  C     0.29911   0.56440   0.52156   0.00000  Uiso   1.00
C1014  C     0.35304   0.54313   0.54318   0.00000  Uiso   1.00
C1015  C     0.35333   0.52479   0.49467   0.00000  Uiso   1.00
C1016  C     0.40719   0.50697   0.52537   0.00000  Uiso   1.00
C1017  C     0.48309   0.47388   0.54730   0.00000  Uiso   1.00
C1018  C     0.32724   0.59751   0.54995   0.00000  Uiso   1.00
C1019  C     0.30583   0.62490   0.50713   0.00000  Uiso   1.00
C1020  C     0.33797   0.65287   0.54352   0.00000  Uiso   1.00
C1021  C     0.37379   0.70421   0.57596   0.00000  Uiso   1.00
C1022  C     0.28223   0.55322   0.56803   0.00000  Uiso   1.00
C1023  C     0.22297   0.54337   0.54043   0.00000  Uiso   1.00
C1024  C     0.21720   0.53405   0.59206   0.00000  Uiso   1.00
C1025  C     0.18313   0.51662   0.65259   0.00000  Uiso   1.00
C1026  C     0.39423   0.56537   0.66233   0.00000  Uiso   1.00
C1027  C     0.40471   0.54366   0.61964   0.00000  Uiso   1.00
C1028  C     0.45858   0.52586   0.65042   0.00000  Uiso   1.00
C1029  C     0.45895   0.50750   0.60197   0.00000  Uiso   1.00
C1030  C     0.37891   0.59804   0.62640   0.00000  Uiso   1.00
C1031  C     0.41108   0.62597   0.66287   0.00000  Uiso   1.00
C1032  C     0.38973   0.65340   0.62012   0.00000  Uiso   1.00
C1033  C     0.33390   0.55374   0.64450   0.00000  Uiso   1.00
C1034  C     0.32822   0.54444   0.69618   0.00000  Uiso   1.00
C1035  C     0.26897   0.53458   0.66866   0.00000  Uiso   1.00
H1036  H     0.25888   0.56399   0.46204   0.00000  Uiso   1.00
H1037  H     0.31334   0.52439   0.43550   0.00000  Uiso   1.00
H1038  H     0.26585   0.62449   0.44796   0.00000  Uiso   1.00
H1039  H     0.18300   0.54296   0.48126   0.00000  Uiso   1.00
H1040  H     0.39651   0.48073   0.43980   0.00000  Uiso   1.00
H1041  H     0.29636   0.69179   0.46607   0.00000  Uiso   1.00
H1042  H     0.12165   0.51988   0.53629   0.00000  Uiso   1.00
H1043  H     0.43446   0.56578   0.72186   0.00000  Uiso   1.00
H1044  H     0.49856   0.52627   0.70959   0.00000  Uiso   1.00
H1045  H     0.45106   0.62637   0.72204   0.00000  Uiso   1.00
H1046  H     0.36821   0.54485   0.75534   0.00000  Uiso   1.00
H1047  H     0.54685   0.48226   0.66226   0.00000  Uiso   1.00
H1048  H     0.94668   0.19332   0.68853   0.00000  Uiso   1.00
H1049  H     0.27198   0.52142   0.75875   0.00000  Uiso   1.00
O1050  O     0.51068   0.45548   0.53827   0.00000  Uiso   1.00
O1051  O     0.87927   0.23239   0.57273   0.00000  Uiso   1.00
O1052  O     0.15006   0.50685   0.66485   0.00000  Uiso   1.00
N1053  N     0.42309   0.48650   0.49385   0.00000  Uiso   1.00
N1054  N     0.32946   0.68383   0.51840   0.00000  Uiso   1.00
N1055  N     0.16612   0.52313   0.58405   0.00000  Uiso   1.00
N1056  N     0.50398   0.48733   0.61355   0.00000  Uiso   1.00
N1057  N     0.91035   0.18466   0.63811   0.00000  Uiso   1.00
N1058  N     0.24701   0.52395   0.70375   0.00000  Uiso   1.00
C1059  C     0.66983   0.32806   0.71694   0.00000  Uiso   1.00
C1060  C     0.70363   0.32025   0.79800   0.00000  Uiso   1.00
C1061  C     0.67527   0.30892   0.82514   0.00000  Uiso   1.00
C1062  C     0.71437   0.30323   0.90107   0.00000  Uiso   1.00
C1063  C     0.75695   0.29027   0.01977   0.00000  Uiso   1.00
C1064  C     0.70213   0.30824   0.69615   0.00000  Uiso   1.00
C1065  C     0.67250   0.28681   0.63765   0.00000  Uiso   1.00
C1066  C     0.71034   0.27102   0.62784   0.00000  Uiso   1.00
C1067  C     0.75059   0.23943   0.58838   0.00000  Uiso   1.00
C1068  C     0.68588   0.36257   0.71601   0.00000  Uiso   1.00
C1069  C     0.64259   0.38683   0.67419   0.00000  Uiso   1.00
C1070  C     0.16675   0.91678   0.68109   0.00000  Uiso   1.00
C1071  C     0.18176   0.96954   0.67246   0.00000  Uiso   1.00
C1072  C     0.28970   0.83812   0.80353   0.00000  Uiso   1.00
C1073  C     0.26874   0.82572   0.84503   0.00000  Uiso   1.00
C1074  C     0.30789   0.82005   0.92094   0.00000  Uiso   1.00
C1075  C     0.27959   0.80871   0.94818   0.00000  Uiso   1.00
C1076  C     0.76723   0.31371   0.74318   0.00000  Uiso   1.00
C1077  C     0.30513   0.79795   0.73345   0.00000  Uiso   1.00
C1078  C     0.77557   0.27650   0.67495   0.00000  Uiso   1.00
C1079  C     0.25099   0.86804   0.76304   0.00000  Uiso   1.00
C1080  C     0.27522   0.89796   0.76999   0.00000  Uiso   1.00
C1081  C     0.23198   0.92226   0.72820   0.00000  Uiso   1.00
H1082  H     0.61914   0.32380   0.68033   0.00000  Uiso   1.00
H1083  H     0.62488   0.30469   0.78873   0.00000  Uiso   1.00
H1084  H     0.62212   0.28259   0.60126   0.00000  Uiso   1.00
H1085  H     0.59221   0.38259   0.63780   0.00000  Uiso   1.00
H1086  H     0.65996   0.28589   0.92964   0.00000  Uiso   1.00
H1087  H     0.65413   0.23931   0.53435   0.00000  Uiso   1.00
H1088  H     0.59107   0.45018   0.61140   0.00000  Uiso   1.00
H1089  H     0.34039   0.84238   0.84014   0.00000  Uiso   1.00
H1090  H     0.35827   0.82429   0.95732   0.00000  Uiso   1.00
H1091  H     0.35551   0.80219   0.76985   0.00000  Uiso   1.00
H1092  H     0.32560   0.90219   0.80639   0.00000  Uiso   1.00
H1093  H     0.34939   0.80180   0.06648   0.00000  Uiso   1.00
H1094  H     0.84356   0.25522   0.67118   0.00000  Uiso   1.00
H1095  H     0.28050   0.96608   0.74823   0.00000  Uiso   1.00
O1096  O     0.76245   0.28160   0.07225   0.00000  Uiso   1.00
O1097  O     0.75480   0.22049   0.55363   0.00000  Uiso   1.00
O1098  O     0.17206   0.99714   0.65473   0.00000  Uiso   1.00
N1099  N     0.70209   0.29213   0.94577   0.00000  Uiso   1.00
N1100  N     0.69664   0.24857   0.57620   0.00000  Uiso   1.00
N1101  N     0.13768   0.94571   0.64822   0.00000  Uiso   1.00
N1102  N     0.30402   0.80069   0.01940   0.00000  Uiso   1.00
N1103  N     0.79857   0.25713   0.64983   0.00000  Uiso   1.00
N1104  N     0.23961   0.95427   0.72185   0.00000  Uiso   1.00
