data_job_06670
_audit_creation_date              2018-12-19
_audit_creation_method            'Materials Studio'
_symmetry_space_group_name_H-M    'P1'
_symmetry_Int_Tables_number       1
_symmetry_cell_setting            triclinic
loop_
_symmetry_equiv_pos_as_xyz
  x,y,z
_cell_length_a                    37.0790
_cell_length_b                    17.5229
_cell_length_c                    64.8379
_cell_angle_alpha                 90.0000
_cell_angle_beta                  148.8574
_cell_angle_gamma                 90.0000
loop_
_atom_site_label
_atom_site_type_symbol
_atom_site_fract_x
_atom_site_fract_y
_atom_site_fract_z
_atom_site_U_iso_or_equiv
_atom_site_adp_type
_atom_site_occupancy
C1     C     0.42421   0.48215   0.77891   0.00000  Uiso   1.00
C2     C     0.41940   0.56190   0.78586   0.00000  Uiso   1.00
C3     C     0.40573   0.62863   0.76837   0.00000  Uiso   1.00
C4     C     0.40351   0.69583   0.77861   0.00000  Uiso   1.00
C5     C     0.39440   0.81961   0.78535   0.00000  Uiso   1.00
C6     C     0.49585   0.45153   0.81995   0.00000  Uiso   1.00
C7     C     0.04644   0.92545   0.83113   0.00000  Uiso   1.00
C8     C     0.10855   0.89973   0.87006   0.00000  Uiso   1.00
C9     C     0.21810   0.85211   0.92972   0.00000  Uiso   1.00
C10    C     0.37134   0.43349   0.76468   0.00000  Uiso   1.00
C11    C     0.81725   0.89222   0.72938   0.00000  Uiso   1.00
C12    C     0.77456   0.85130   0.72177   0.00000  Uiso   1.00
C13    C     0.69079   0.77566   0.69561   0.00000  Uiso   1.00
C14    C     0.44457   0.48283   0.82818   0.00000  Uiso   1.00
C15    C     0.43047   0.56227   0.81262   0.00000  Uiso   1.00
C16    C     0.42826   0.62939   0.82288   0.00000  Uiso   1.00
C17    C     0.41458   0.69621   0.80541   0.00000  Uiso   1.00
C18    C     0.50691   0.45190   0.84671   0.00000  Uiso   1.00
C19    C     0.56896   0.42621   0.88564   0.00000  Uiso   1.00
C20    C     0.61963   0.40011   0.89687   0.00000  Uiso   1.00
C21    C     0.38240   0.43386   0.79144   0.00000  Uiso   1.00
C22    C     0.33978   0.39299   0.78389   0.00000  Uiso   1.00
C23    C     0.28563   0.35167   0.74858   0.00000  Uiso   1.00
H24    H     0.41561   0.48185   0.75807   0.00000  Uiso   1.00
H25    H     0.39718   0.62832   0.74766   0.00000  Uiso   1.00
H26    H     0.03786   0.92516   0.81041   0.00000  Uiso   1.00
H27    H     0.80871   0.89194   0.70867   0.00000  Uiso   1.00
H28    H     0.38166   0.79086   0.74794   0.00000  Uiso   1.00
H29    H     0.17828   0.86248   0.88023   0.00000  Uiso   1.00
H30    H     0.69508   0.79243   0.66571   0.00000  Uiso   1.00
H31    H     0.45318   0.48312   0.84901   0.00000  Uiso   1.00
H32    H     0.43682   0.62966   0.84360   0.00000  Uiso   1.00
H33    H     0.57750   0.42651   0.90634   0.00000  Uiso   1.00
H34    H     0.34835   0.39329   0.80461   0.00000  Uiso   1.00
H35    H     0.41383   0.79196   0.82580   0.00000  Uiso   1.00
H36    H     0.71045   0.36357   0.95810   0.00000  Uiso   1.00
H37    H     0.22725   0.29352   0.74357   0.00000  Uiso   1.00
O38    O     0.38633   0.88779   0.78168   0.00000  Uiso   1.00
O39    O     0.27547   0.82575   0.95524   0.00000  Uiso   1.00
O40    O     0.64152   0.73385   0.67378   0.00000  Uiso   1.00
N41    N     0.39146   0.77101   0.76700   0.00000  Uiso   1.00
N42    N     0.16879   0.87051   0.89069   0.00000  Uiso   1.00
N43    N     0.71705   0.80500   0.69013   0.00000  Uiso   1.00
N44    N     0.40877   0.77160   0.80890   0.00000  Uiso   1.00
N45    N     0.68610   0.37109   0.93259   0.00000  Uiso   1.00
N46    N     0.73436   0.80559   0.73203   0.00000  Uiso   1.00
C47    C     0.30890   0.13381   0.83890   0.00000  Uiso   1.00
C48    C     0.29847   0.06700   0.84855   0.00000  Uiso   1.00
C49    C     0.24763   0.06213   0.83884   0.00000  Uiso   1.00
C50    C     0.24675   0.99628   0.85031   0.00000  Uiso   1.00
C51    C     0.22324   0.90151   0.86221   0.00000  Uiso   1.00
C52    C     0.38411   0.15990   0.87864   0.00000  Uiso   1.00
C53    C     0.90527   0.73314   0.89422   0.00000  Uiso   1.00
C54    C     0.97649   0.74548   0.93102   0.00000  Uiso   1.00
C55    C     0.08595   0.79495   0.98960   0.00000  Uiso   1.00
C56    C     0.30500   0.10032   0.81532   0.00000  Uiso   1.00
C57    C     0.25965   0.12347   0.77766   0.00000  Uiso   1.00
C58    C     0.26427   0.08567   0.76115   0.00000  Uiso   1.00
C59    C     0.25089   0.04264   0.72142   0.00000  Uiso   1.00
C60    C     0.39776   0.02552   0.87655   0.00000  Uiso   1.00
C61    C     0.34674   0.00819   0.86901   0.00000  Uiso   1.00
C62    C     0.34594   0.94232   0.88050   0.00000  Uiso   1.00
C63    C     0.29510   0.93735   0.87080   0.00000  Uiso   1.00
C64    C     0.43238   0.10108   0.89909   0.00000  Uiso   1.00
C65    C     0.50358   0.11333   0.93587   0.00000  Uiso   1.00
C66    C     0.02484   0.68656   0.95150   0.00000  Uiso   1.00
C67    C     0.35326   0.04150   0.83577   0.00000  Uiso   1.00
C68    C     0.35796   0.00366   0.81932   0.00000  Uiso   1.00
C69    C     0.31262   0.02675   0.78164   0.00000  Uiso   1.00
H70    H     0.77132   0.67960   0.82298   0.00000  Uiso   1.00
H71    H     0.21029   0.10766   0.82302   0.00000  Uiso   1.00
H72    H     0.86791   0.77864   0.87838   0.00000  Uiso   1.00
H73    H     0.22231   0.16899   0.76184   0.00000  Uiso   1.00
H74    H     0.16392   0.00198   0.83209   0.00000  Uiso   1.00
H75    H     0.99627   0.86250   0.94882   0.00000  Uiso   1.00
H76    H     0.18925   0.13129   0.70307   0.00000  Uiso   1.00
H77    H     0.43533   0.97973   0.89248   0.00000  Uiso   1.00
H78    H     0.38330   0.89681   0.89632   0.00000  Uiso   1.00
H79    H     0.54092   0.06780   0.95169   0.00000  Uiso   1.00
H80    H     0.39532   0.95815   0.83515   0.00000  Uiso   1.00
H81    H     0.30434   0.83085   0.89159   0.00000  Uiso   1.00
H82    H     0.13670   0.69137   0.00832   0.00000  Uiso   1.00
H83    H     0.32967   0.96016   0.76258   0.00000  Uiso   1.00
O84    O     0.19695   0.86549   0.86312   0.00000  Uiso   1.00
O85    O     0.13299   0.83848   0.01627   0.00000  Uiso   1.00
O86    O     0.23017   0.03514   0.69386   0.00000  Uiso   1.00
N87    N     0.20410   0.97308   0.84555   0.00000  Uiso   1.00
N88    N     0.01483   0.81014   0.95470   0.00000  Uiso   1.00
N89    N     0.22780   0.09399   0.72495   0.00000  Uiso   1.00
N90    N     0.27966   0.88099   0.87757   0.00000  Uiso   1.00
N91    N     0.09039   0.71805   0.98672   0.00000  Uiso   1.00
N92    N     0.30336   0.00190   0.75697   0.00000  Uiso   1.00
C93    C     0.51666   0.00790   0.81386   0.00000  Uiso   1.00
C94    C     0.54801   0.97550   0.80944   0.00000  Uiso   1.00
C95    C     0.54888   0.89908   0.80426   0.00000  Uiso   1.00
C96    C     0.58006   0.88102   0.80082   0.00000  Uiso   1.00
C97    C     0.62432   0.82213   0.79373   0.00000  Uiso   1.00
C98    C     0.57526   0.05169   0.85316   0.00000  Uiso   1.00
C99    C     0.59902   0.03932   0.88473   0.00000  Uiso   1.00
C100   C     0.65314   0.08540   0.91809   0.00000  Uiso   1.00
C101   C     0.73967   0.14482   0.97886   0.00000  Uiso   1.00
C102   C     0.46362   0.06768   0.78111   0.00000  Uiso   1.00
C103   C     0.39351   0.06877   0.75211   0.00000  Uiso   1.00
C104   C     0.85364   0.62833   0.72482   0.00000  Uiso   1.00
C105   C     0.76683   0.71257   0.67372   0.00000  Uiso   1.00
C106   C     0.07050   0.61174   0.81697   0.00000  Uiso   1.00
C107   C     0.07726   0.53191   0.81113   0.00000  Uiso   1.00
C108   C     0.10845   0.51396   0.80770   0.00000  Uiso   1.00
C109   C     0.60936   0.93752   0.80252   0.00000  Uiso   1.00
C110   C     0.10450   0.60809   0.85485   0.00000  Uiso   1.00
C111   C     0.15859   0.65420   0.88817   0.00000  Uiso   1.00
C112   C     0.18244   0.64191   0.91979   0.00000  Uiso   1.00
C113   C     0.99286   0.62408   0.78280   0.00000  Uiso   1.00
C114   C     0.95309   0.68365   0.75555   0.00000  Uiso   1.00
C115   C     0.88294   0.68483   0.72651   0.00000  Uiso   1.00
H116   H     0.49390   0.96399   0.81254   0.00000  Uiso   1.00
H117   H     0.52625   0.85544   0.80296   0.00000  Uiso   1.00
H118   H     0.57638   0.99567   0.88341   0.00000  Uiso   1.00
H119   H     0.37090   0.02511   0.75081   0.00000  Uiso   1.00
H120   H     0.57503   0.75996   0.79309   0.00000  Uiso   1.00
H121   H     0.68072   0.05566   0.96273   0.00000  Uiso   1.00
H122   H     0.74744   0.61774   0.68311   0.00000  Uiso   1.00
H123   H     0.09327   0.65566   0.81829   0.00000  Uiso   1.00
H124   H     0.13107   0.55762   0.80901   0.00000  Uiso   1.00
H125   H     0.18121   0.69785   0.88947   0.00000  Uiso   1.00
H126   H     0.97573   0.72729   0.75687   0.00000  Uiso   1.00
H127   H     0.16012   0.42406   0.79800   0.00000  Uiso   1.00
H128   H     0.26581   0.71976   0.96764   0.00000  Uiso   1.00
H129   H     0.83252   0.78184   0.68803   0.00000  Uiso   1.00
O130   O     0.64067   0.77406   0.78935   0.00000  Uiso   1.00
O131   O     0.77932   0.16201   0.01191   0.00000  Uiso   1.00
O132   O     0.71086   0.74346   0.64506   0.00000  Uiso   1.00
N133   N     0.58985   0.81204   0.79551   0.00000  Uiso   1.00
N134   N     0.68868   0.08849   0.95412   0.00000  Uiso   1.00
N135   N     0.78360   0.64654   0.69271   0.00000  Uiso   1.00
N136   N     0.63564   0.90034   0.79815   0.00000  Uiso   1.00
N137   N     0.23446   0.67679   0.95676   0.00000  Uiso   1.00
N138   N     0.82938   0.73484   0.69535   0.00000  Uiso   1.00
C139   C     0.92421   0.98215   0.77891   0.00000  Uiso   1.00
C140   C     0.91940   0.06190   0.78586   0.00000  Uiso   1.00
C141   C     0.90573   0.12863   0.76837   0.00000  Uiso   1.00
C142   C     0.90351   0.19583   0.77861   0.00000  Uiso   1.00
C143   C     0.89440   0.31961   0.78535   0.00000  Uiso   1.00
C144   C     0.99585   0.95153   0.81995   0.00000  Uiso   1.00
C145   C     0.54644   0.42545   0.83113   0.00000  Uiso   1.00
C146   C     0.60855   0.39973   0.87006   0.00000  Uiso   1.00
C147   C     0.71810   0.35211   0.92972   0.00000  Uiso   1.00
C148   C     0.87134   0.93349   0.76468   0.00000  Uiso   1.00
C149   C     0.31725   0.39222   0.72938   0.00000  Uiso   1.00
C150   C     0.27456   0.35130   0.72177   0.00000  Uiso   1.00
C151   C     0.19079   0.27566   0.69561   0.00000  Uiso   1.00
C152   C     0.94457   0.98283   0.82818   0.00000  Uiso   1.00
C153   C     0.93047   0.06227   0.81262   0.00000  Uiso   1.00
C154   C     0.92826   0.12939   0.82288   0.00000  Uiso   1.00
C155   C     0.91458   0.19621   0.80541   0.00000  Uiso   1.00
C156   C     0.00691   0.95190   0.84671   0.00000  Uiso   1.00
C157   C     0.06896   0.92621   0.88564   0.00000  Uiso   1.00
C158   C     0.11963   0.90011   0.89687   0.00000  Uiso   1.00
C159   C     0.88240   0.93386   0.79144   0.00000  Uiso   1.00
C160   C     0.83978   0.89299   0.78389   0.00000  Uiso   1.00
C161   C     0.78563   0.85167   0.74858   0.00000  Uiso   1.00
H162   H     0.91561   0.98185   0.75807   0.00000  Uiso   1.00
H163   H     0.89718   0.12832   0.74766   0.00000  Uiso   1.00
H164   H     0.53786   0.42516   0.81041   0.00000  Uiso   1.00
H165   H     0.30871   0.39194   0.70867   0.00000  Uiso   1.00
H166   H     0.88166   0.29086   0.74794   0.00000  Uiso   1.00
H167   H     0.67828   0.36248   0.88023   0.00000  Uiso   1.00
H168   H     0.19508   0.29243   0.66571   0.00000  Uiso   1.00
H169   H     0.95318   0.98312   0.84901   0.00000  Uiso   1.00
H170   H     0.93682   0.12966   0.84360   0.00000  Uiso   1.00
H171   H     0.07750   0.92651   0.90634   0.00000  Uiso   1.00
H172   H     0.84835   0.89329   0.80461   0.00000  Uiso   1.00
H173   H     0.91383   0.29196   0.82580   0.00000  Uiso   1.00
H174   H     0.21045   0.86357   0.95810   0.00000  Uiso   1.00
H175   H     0.72725   0.79352   0.74357   0.00000  Uiso   1.00
O176   O     0.88633   0.38779   0.78168   0.00000  Uiso   1.00
O177   O     0.77547   0.32575   0.95524   0.00000  Uiso   1.00
O178   O     0.14152   0.23385   0.67378   0.00000  Uiso   1.00
N179   N     0.89146   0.27101   0.76700   0.00000  Uiso   1.00
N180   N     0.66879   0.37051   0.89069   0.00000  Uiso   1.00
N181   N     0.21705   0.30500   0.69013   0.00000  Uiso   1.00
N182   N     0.90877   0.27160   0.80890   0.00000  Uiso   1.00
N183   N     0.18610   0.87109   0.93259   0.00000  Uiso   1.00
N184   N     0.23436   0.30559   0.73203   0.00000  Uiso   1.00
C185   C     0.80890   0.63381   0.83890   0.00000  Uiso   1.00
C186   C     0.79847   0.56700   0.84855   0.00000  Uiso   1.00
C187   C     0.74763   0.56213   0.83884   0.00000  Uiso   1.00
C188   C     0.74675   0.49628   0.85031   0.00000  Uiso   1.00
C189   C     0.72324   0.40151   0.86221   0.00000  Uiso   1.00
C190   C     0.88411   0.65990   0.87864   0.00000  Uiso   1.00
C191   C     0.40527   0.23314   0.89422   0.00000  Uiso   1.00
C192   C     0.47649   0.24548   0.93102   0.00000  Uiso   1.00
C193   C     0.58595   0.29495   0.98960   0.00000  Uiso   1.00
C194   C     0.80500   0.60032   0.81532   0.00000  Uiso   1.00
C195   C     0.75965   0.62347   0.77766   0.00000  Uiso   1.00
C196   C     0.76427   0.58567   0.76115   0.00000  Uiso   1.00
C197   C     0.75089   0.54264   0.72142   0.00000  Uiso   1.00
C198   C     0.89776   0.52552   0.87655   0.00000  Uiso   1.00
C199   C     0.84674   0.50819   0.86901   0.00000  Uiso   1.00
C200   C     0.84594   0.44232   0.88050   0.00000  Uiso   1.00
C201   C     0.79510   0.43735   0.87080   0.00000  Uiso   1.00
C202   C     0.93238   0.60108   0.89909   0.00000  Uiso   1.00
C203   C     0.00358   0.61333   0.93587   0.00000  Uiso   1.00
C204   C     0.52484   0.18656   0.95150   0.00000  Uiso   1.00
C205   C     0.85326   0.54150   0.83577   0.00000  Uiso   1.00
C206   C     0.85796   0.50366   0.81932   0.00000  Uiso   1.00
C207   C     0.81262   0.52675   0.78164   0.00000  Uiso   1.00
H208   H     0.27132   0.17960   0.82298   0.00000  Uiso   1.00
H209   H     0.71029   0.60766   0.82302   0.00000  Uiso   1.00
H210   H     0.36791   0.27864   0.87838   0.00000  Uiso   1.00
H211   H     0.72231   0.66899   0.76184   0.00000  Uiso   1.00
H212   H     0.66392   0.50198   0.83209   0.00000  Uiso   1.00
H213   H     0.49627   0.36250   0.94882   0.00000  Uiso   1.00
H214   H     0.68925   0.63129   0.70307   0.00000  Uiso   1.00
H215   H     0.93533   0.47973   0.89248   0.00000  Uiso   1.00
H216   H     0.88330   0.39681   0.89632   0.00000  Uiso   1.00
H217   H     0.04092   0.56780   0.95169   0.00000  Uiso   1.00
H218   H     0.89532   0.45815   0.83515   0.00000  Uiso   1.00
H219   H     0.80434   0.33085   0.89159   0.00000  Uiso   1.00
H220   H     0.63670   0.19137   0.00832   0.00000  Uiso   1.00
H221   H     0.82967   0.46016   0.76258   0.00000  Uiso   1.00
O222   O     0.69695   0.36549   0.86312   0.00000  Uiso   1.00
O223   O     0.63299   0.33848   0.01627   0.00000  Uiso   1.00
O224   O     0.73017   0.53514   0.69386   0.00000  Uiso   1.00
N225   N     0.70410   0.47308   0.84555   0.00000  Uiso   1.00
N226   N     0.51483   0.31014   0.95470   0.00000  Uiso   1.00
N227   N     0.72780   0.59399   0.72495   0.00000  Uiso   1.00
N228   N     0.77966   0.38099   0.87757   0.00000  Uiso   1.00
N229   N     0.59039   0.21805   0.98672   0.00000  Uiso   1.00
N230   N     0.80336   0.50190   0.75697   0.00000  Uiso   1.00
C231   C     0.01666   0.50790   0.81386   0.00000  Uiso   1.00
C232   C     0.04801   0.47550   0.80944   0.00000  Uiso   1.00
C233   C     0.04888   0.39908   0.80426   0.00000  Uiso   1.00
C234   C     0.08006   0.38102   0.80082   0.00000  Uiso   1.00
C235   C     0.12432   0.32213   0.79373   0.00000  Uiso   1.00
C236   C     0.07526   0.55169   0.85316   0.00000  Uiso   1.00
C237   C     0.09902   0.53932   0.88473   0.00000  Uiso   1.00
C238   C     0.15314   0.58540   0.91809   0.00000  Uiso   1.00
C239   C     0.23967   0.64482   0.97886   0.00000  Uiso   1.00
C240   C     0.96362   0.56768   0.78111   0.00000  Uiso   1.00
C241   C     0.89351   0.56877   0.75211   0.00000  Uiso   1.00
C242   C     0.35364   0.12833   0.72482   0.00000  Uiso   1.00
C243   C     0.26683   0.21257   0.67372   0.00000  Uiso   1.00
C244   C     0.57050   0.11174   0.81697   0.00000  Uiso   1.00
C245   C     0.57726   0.03191   0.81113   0.00000  Uiso   1.00
C246   C     0.60845   0.01396   0.80770   0.00000  Uiso   1.00
C247   C     0.10936   0.43752   0.80252   0.00000  Uiso   1.00
C248   C     0.60450   0.10809   0.85485   0.00000  Uiso   1.00
C249   C     0.65859   0.15420   0.88817   0.00000  Uiso   1.00
C250   C     0.68244   0.14191   0.91979   0.00000  Uiso   1.00
C251   C     0.49286   0.12408   0.78280   0.00000  Uiso   1.00
C252   C     0.45309   0.18365   0.75555   0.00000  Uiso   1.00
C253   C     0.38294   0.18483   0.72651   0.00000  Uiso   1.00
H254   H     0.99390   0.46399   0.81254   0.00000  Uiso   1.00
H255   H     0.02625   0.35544   0.80296   0.00000  Uiso   1.00
H256   H     0.07638   0.49567   0.88341   0.00000  Uiso   1.00
H257   H     0.87090   0.52511   0.75081   0.00000  Uiso   1.00
H258   H     0.07503   0.25996   0.79309   0.00000  Uiso   1.00
H259   H     0.18072   0.55566   0.96273   0.00000  Uiso   1.00
H260   H     0.24744   0.11774   0.68311   0.00000  Uiso   1.00
H261   H     0.59327   0.15566   0.81829   0.00000  Uiso   1.00
H262   H     0.63107   0.05762   0.80901   0.00000  Uiso   1.00
H263   H     0.68121   0.19785   0.88947   0.00000  Uiso   1.00
H264   H     0.47573   0.22729   0.75687   0.00000  Uiso   1.00
H265   H     0.66012   0.92406   0.79800   0.00000  Uiso   1.00
H266   H     0.76581   0.21976   0.96764   0.00000  Uiso   1.00
H267   H     0.33252   0.28184   0.68803   0.00000  Uiso   1.00
O268   O     0.14067   0.27406   0.78935   0.00000  Uiso   1.00
O269   O     0.27932   0.66201   0.01191   0.00000  Uiso   1.00
O270   O     0.21086   0.24346   0.64506   0.00000  Uiso   1.00
N271   N     0.08985   0.31204   0.79551   0.00000  Uiso   1.00
N272   N     0.18868   0.58849   0.95412   0.00000  Uiso   1.00
N273   N     0.28360   0.14654   0.69271   0.00000  Uiso   1.00
N274   N     0.13564   0.40034   0.79815   0.00000  Uiso   1.00
N275   N     0.73446   0.17679   0.95676   0.00000  Uiso   1.00
N276   N     0.32938   0.23484   0.69535   0.00000  Uiso   1.00
C277   C     0.57579   0.48215   0.72109   0.00000  Uiso   1.00
C278   C     0.58060   0.56190   0.71414   0.00000  Uiso   1.00
C279   C     0.59427   0.62863   0.73163   0.00000  Uiso   1.00
C280   C     0.59649   0.69583   0.72139   0.00000  Uiso   1.00
C281   C     0.60560   0.81961   0.71465   0.00000  Uiso   1.00
C282   C     0.50415   0.45153   0.68005   0.00000  Uiso   1.00
C283   C     0.95356   0.92545   0.66887   0.00000  Uiso   1.00
C284   C     0.89145   0.89973   0.62994   0.00000  Uiso   1.00
C285   C     0.78190   0.85211   0.57028   0.00000  Uiso   1.00
C286   C     0.62866   0.43349   0.73532   0.00000  Uiso   1.00
C287   C     0.18275   0.89222   0.77062   0.00000  Uiso   1.00
C288   C     0.22544   0.85130   0.77823   0.00000  Uiso   1.00
C289   C     0.30921   0.77566   0.80439   0.00000  Uiso   1.00
C290   C     0.55543   0.48283   0.67182   0.00000  Uiso   1.00
C291   C     0.56953   0.56227   0.68738   0.00000  Uiso   1.00
C292   C     0.57174   0.62939   0.67712   0.00000  Uiso   1.00
C293   C     0.58542   0.69621   0.69459   0.00000  Uiso   1.00
C294   C     0.49309   0.45190   0.65329   0.00000  Uiso   1.00
C295   C     0.43104   0.42621   0.61436   0.00000  Uiso   1.00
C296   C     0.38037   0.40011   0.60313   0.00000  Uiso   1.00
C297   C     0.61760   0.43386   0.70856   0.00000  Uiso   1.00
C298   C     0.66022   0.39299   0.71611   0.00000  Uiso   1.00
C299   C     0.71437   0.35167   0.75142   0.00000  Uiso   1.00
H300   H     0.58439   0.48185   0.74193   0.00000  Uiso   1.00
H301   H     0.60282   0.62832   0.75234   0.00000  Uiso   1.00
H302   H     0.96214   0.92516   0.68959   0.00000  Uiso   1.00
H303   H     0.19129   0.89194   0.79133   0.00000  Uiso   1.00
H304   H     0.61834   0.79086   0.75206   0.00000  Uiso   1.00
H305   H     0.82172   0.86248   0.61977   0.00000  Uiso   1.00
H306   H     0.30492   0.79243   0.83429   0.00000  Uiso   1.00
H307   H     0.54682   0.48312   0.65099   0.00000  Uiso   1.00
H308   H     0.56318   0.62966   0.65640   0.00000  Uiso   1.00
H309   H     0.42250   0.42651   0.59366   0.00000  Uiso   1.00
H310   H     0.65165   0.39329   0.69539   0.00000  Uiso   1.00
H311   H     0.58617   0.79196   0.67420   0.00000  Uiso   1.00
H312   H     0.28955   0.36357   0.54190   0.00000  Uiso   1.00
H313   H     0.77275   0.29352   0.75643   0.00000  Uiso   1.00
O314   O     0.61367   0.88779   0.71832   0.00000  Uiso   1.00
O315   O     0.72453   0.82575   0.54476   0.00000  Uiso   1.00
O316   O     0.35848   0.73385   0.82622   0.00000  Uiso   1.00
N317   N     0.60854   0.77101   0.73300   0.00000  Uiso   1.00
N318   N     0.83121   0.87051   0.60931   0.00000  Uiso   1.00
N319   N     0.28295   0.80500   0.80987   0.00000  Uiso   1.00
N320   N     0.59123   0.77160   0.69110   0.00000  Uiso   1.00
N321   N     0.31390   0.37109   0.56741   0.00000  Uiso   1.00
N322   N     0.26564   0.80559   0.76797   0.00000  Uiso   1.00
C323   C     0.69110   0.13381   0.66110   0.00000  Uiso   1.00
C324   C     0.70153   0.06700   0.65145   0.00000  Uiso   1.00
C325   C     0.75237   0.06213   0.66116   0.00000  Uiso   1.00
C326   C     0.75325   0.99628   0.64969   0.00000  Uiso   1.00
C327   C     0.77676   0.90151   0.63779   0.00000  Uiso   1.00
C328   C     0.61589   0.15990   0.62136   0.00000  Uiso   1.00
C329   C     0.09473   0.73314   0.60578   0.00000  Uiso   1.00
C330   C     0.02351   0.74548   0.56898   0.00000  Uiso   1.00
C331   C     0.91405   0.79495   0.51040   0.00000  Uiso   1.00
C332   C     0.69500   0.10032   0.68468   0.00000  Uiso   1.00
C333   C     0.74035   0.12347   0.72234   0.00000  Uiso   1.00
C334   C     0.73573   0.08567   0.73885   0.00000  Uiso   1.00
C335   C     0.74911   0.04264   0.77858   0.00000  Uiso   1.00
C336   C     0.60224   0.02552   0.62345   0.00000  Uiso   1.00
C337   C     0.65326   0.00819   0.63099   0.00000  Uiso   1.00
C338   C     0.65406   0.94232   0.61950   0.00000  Uiso   1.00
C339   C     0.70490   0.93735   0.62920   0.00000  Uiso   1.00
C340   C     0.56762   0.10108   0.60091   0.00000  Uiso   1.00
C341   C     0.49642   0.11333   0.56413   0.00000  Uiso   1.00
C342   C     0.97516   0.68656   0.54850   0.00000  Uiso   1.00
C343   C     0.64674   0.04150   0.66423   0.00000  Uiso   1.00
C344   C     0.64204   0.00366   0.68068   0.00000  Uiso   1.00
C345   C     0.68738   0.02675   0.71836   0.00000  Uiso   1.00
H346   H     0.22868   0.67960   0.67702   0.00000  Uiso   1.00
H347   H     0.78971   0.10766   0.67698   0.00000  Uiso   1.00
H348   H     0.13209   0.77864   0.62162   0.00000  Uiso   1.00
H349   H     0.77769   0.16899   0.73816   0.00000  Uiso   1.00
H350   H     0.83608   0.00198   0.66791   0.00000  Uiso   1.00
H351   H     0.00373   0.86250   0.55118   0.00000  Uiso   1.00
H352   H     0.81075   0.13129   0.79693   0.00000  Uiso   1.00
H353   H     0.56467   0.97973   0.60752   0.00000  Uiso   1.00
H354   H     0.61670   0.89681   0.60368   0.00000  Uiso   1.00
H355   H     0.45908   0.06780   0.54831   0.00000  Uiso   1.00
H356   H     0.60468   0.95815   0.66485   0.00000  Uiso   1.00
H357   H     0.69566   0.83085   0.60841   0.00000  Uiso   1.00
H358   H     0.86330   0.69137   0.49168   0.00000  Uiso   1.00
H359   H     0.67033   0.96016   0.73742   0.00000  Uiso   1.00
O360   O     0.80305   0.86549   0.63688   0.00000  Uiso   1.00
O361   O     0.86701   0.83848   0.48373   0.00000  Uiso   1.00
O362   O     0.76983   0.03514   0.80614   0.00000  Uiso   1.00
N363   N     0.79590   0.97308   0.65445   0.00000  Uiso   1.00
N364   N     0.98517   0.81014   0.54530   0.00000  Uiso   1.00
N365   N     0.77220   0.09399   0.77505   0.00000  Uiso   1.00
N366   N     0.72034   0.88099   0.62243   0.00000  Uiso   1.00
N367   N     0.90961   0.71805   0.51328   0.00000  Uiso   1.00
N368   N     0.69664   0.00190   0.74303   0.00000  Uiso   1.00
C369   C     0.48334   0.00790   0.68614   0.00000  Uiso   1.00
C370   C     0.45199   0.97550   0.69056   0.00000  Uiso   1.00
C371   C     0.45112   0.89908   0.69574   0.00000  Uiso   1.00
C372   C     0.41994   0.88102   0.69918   0.00000  Uiso   1.00
C373   C     0.37568   0.82213   0.70627   0.00000  Uiso   1.00
C374   C     0.42474   0.05169   0.64684   0.00000  Uiso   1.00
C375   C     0.40098   0.03932   0.61527   0.00000  Uiso   1.00
C376   C     0.34686   0.08540   0.58191   0.00000  Uiso   1.00
C377   C     0.26033   0.14482   0.52114   0.00000  Uiso   1.00
C378   C     0.53638   0.06768   0.71889   0.00000  Uiso   1.00
C379   C     0.60649   0.06877   0.74789   0.00000  Uiso   1.00
C380   C     0.14636   0.62833   0.77518   0.00000  Uiso   1.00
C381   C     0.23317   0.71257   0.82628   0.00000  Uiso   1.00
C382   C     0.92950   0.61174   0.68303   0.00000  Uiso   1.00
C383   C     0.92274   0.53191   0.68887   0.00000  Uiso   1.00
C384   C     0.89155   0.51396   0.69230   0.00000  Uiso   1.00
C385   C     0.39064   0.93752   0.69748   0.00000  Uiso   1.00
C386   C     0.89550   0.60809   0.64515   0.00000  Uiso   1.00
C387   C     0.84141   0.65420   0.61183   0.00000  Uiso   1.00
C388   C     0.81756   0.64191   0.58021   0.00000  Uiso   1.00
C389   C     0.00714   0.62408   0.71720   0.00000  Uiso   1.00
C390   C     0.04691   0.68365   0.74445   0.00000  Uiso   1.00
C391   C     0.11706   0.68483   0.77349   0.00000  Uiso   1.00
H392   H     0.50610   0.96399   0.68746   0.00000  Uiso   1.00
H393   H     0.47375   0.85544   0.69704   0.00000  Uiso   1.00
H394   H     0.42362   0.99567   0.61659   0.00000  Uiso   1.00
H395   H     0.62910   0.02511   0.74919   0.00000  Uiso   1.00
H396   H     0.42497   0.75996   0.70691   0.00000  Uiso   1.00
H397   H     0.31928   0.05566   0.53727   0.00000  Uiso   1.00
H398   H     0.25256   0.61774   0.81689   0.00000  Uiso   1.00
H399   H     0.90673   0.65566   0.68171   0.00000  Uiso   1.00
H400   H     0.86893   0.55762   0.69099   0.00000  Uiso   1.00
H401   H     0.81879   0.69785   0.61053   0.00000  Uiso   1.00
H402   H     0.02427   0.72729   0.74313   0.00000  Uiso   1.00
H403   H     0.83988   0.42406   0.70200   0.00000  Uiso   1.00
H404   H     0.73419   0.71976   0.53236   0.00000  Uiso   1.00
H405   H     0.16748   0.78184   0.81197   0.00000  Uiso   1.00
O406   O     0.35933   0.77406   0.71065   0.00000  Uiso   1.00
O407   O     0.22068   0.16201   0.48809   0.00000  Uiso   1.00
O408   O     0.28914   0.74346   0.85494   0.00000  Uiso   1.00
N409   N     0.41015   0.81204   0.70449   0.00000  Uiso   1.00
N410   N     0.31132   0.08849   0.54588   0.00000  Uiso   1.00
N411   N     0.21640   0.64654   0.80729   0.00000  Uiso   1.00
N412   N     0.36436   0.90034   0.70185   0.00000  Uiso   1.00
N413   N     0.76554   0.67679   0.54324   0.00000  Uiso   1.00
N414   N     0.17062   0.73484   0.80465   0.00000  Uiso   1.00
C415   C     0.07579   0.98215   0.72109   0.00000  Uiso   1.00
C416   C     0.08060   0.06190   0.71414   0.00000  Uiso   1.00
C417   C     0.09427   0.12863   0.73163   0.00000  Uiso   1.00
C418   C     0.09649   0.19583   0.72139   0.00000  Uiso   1.00
C419   C     0.10560   0.31961   0.71465   0.00000  Uiso   1.00
C420   C     0.00415   0.95153   0.68005   0.00000  Uiso   1.00
C421   C     0.45356   0.42545   0.66887   0.00000  Uiso   1.00
C422   C     0.39145   0.39973   0.62994   0.00000  Uiso   1.00
C423   C     0.28190   0.35211   0.57028   0.00000  Uiso   1.00
C424   C     0.12866   0.93349   0.73532   0.00000  Uiso   1.00
C425   C     0.68275   0.39222   0.77062   0.00000  Uiso   1.00
C426   C     0.72544   0.35130   0.77823   0.00000  Uiso   1.00
C427   C     0.80921   0.27566   0.80439   0.00000  Uiso   1.00
C428   C     0.05543   0.98283   0.67182   0.00000  Uiso   1.00
C429   C     0.06953   0.06227   0.68738   0.00000  Uiso   1.00
C430   C     0.07174   0.12939   0.67712   0.00000  Uiso   1.00
C431   C     0.08542   0.19621   0.69459   0.00000  Uiso   1.00
C432   C     0.99309   0.95190   0.65329   0.00000  Uiso   1.00
C433   C     0.93104   0.92621   0.61436   0.00000  Uiso   1.00
C434   C     0.88037   0.90011   0.60313   0.00000  Uiso   1.00
C435   C     0.11760   0.93386   0.70856   0.00000  Uiso   1.00
C436   C     0.16022   0.89299   0.71611   0.00000  Uiso   1.00
C437   C     0.21437   0.85167   0.75142   0.00000  Uiso   1.00
H438   H     0.08439   0.98185   0.74193   0.00000  Uiso   1.00
H439   H     0.10282   0.12832   0.75234   0.00000  Uiso   1.00
H440   H     0.46214   0.42516   0.68959   0.00000  Uiso   1.00
H441   H     0.69129   0.39194   0.79133   0.00000  Uiso   1.00
H442   H     0.11834   0.29086   0.75206   0.00000  Uiso   1.00
H443   H     0.32172   0.36248   0.61977   0.00000  Uiso   1.00
H444   H     0.80492   0.29243   0.83429   0.00000  Uiso   1.00
H445   H     0.04682   0.98312   0.65099   0.00000  Uiso   1.00
H446   H     0.06318   0.12966   0.65640   0.00000  Uiso   1.00
H447   H     0.92250   0.92651   0.59366   0.00000  Uiso   1.00
H448   H     0.15165   0.89329   0.69539   0.00000  Uiso   1.00
H449   H     0.08617   0.29196   0.67420   0.00000  Uiso   1.00
H450   H     0.78955   0.86357   0.54190   0.00000  Uiso   1.00
H451   H     0.27275   0.79352   0.75643   0.00000  Uiso   1.00
O452   O     0.11367   0.38779   0.71832   0.00000  Uiso   1.00
O453   O     0.22453   0.32575   0.54476   0.00000  Uiso   1.00
O454   O     0.85848   0.23385   0.82622   0.00000  Uiso   1.00
N455   N     0.10854   0.27101   0.73300   0.00000  Uiso   1.00
N456   N     0.33121   0.37051   0.60931   0.00000  Uiso   1.00
N457   N     0.78295   0.30500   0.80987   0.00000  Uiso   1.00
N458   N     0.09123   0.27160   0.69110   0.00000  Uiso   1.00
N459   N     0.81390   0.87109   0.56741   0.00000  Uiso   1.00
N460   N     0.76564   0.30559   0.76797   0.00000  Uiso   1.00
C461   C     0.19110   0.63381   0.66110   0.00000  Uiso   1.00
C462   C     0.20153   0.56700   0.65145   0.00000  Uiso   1.00
C463   C     0.25237   0.56213   0.66116   0.00000  Uiso   1.00
C464   C     0.25325   0.49628   0.64969   0.00000  Uiso   1.00
C465   C     0.27676   0.40151   0.63779   0.00000  Uiso   1.00
C466   C     0.11589   0.65990   0.62136   0.00000  Uiso   1.00
C467   C     0.59473   0.23314   0.60578   0.00000  Uiso   1.00
C468   C     0.52351   0.24548   0.56898   0.00000  Uiso   1.00
C469   C     0.41405   0.29495   0.51040   0.00000  Uiso   1.00
C470   C     0.19500   0.60032   0.68468   0.00000  Uiso   1.00
C471   C     0.24035   0.62347   0.72234   0.00000  Uiso   1.00
C472   C     0.23573   0.58567   0.73885   0.00000  Uiso   1.00
C473   C     0.24911   0.54264   0.77858   0.00000  Uiso   1.00
C474   C     0.10224   0.52552   0.62345   0.00000  Uiso   1.00
C475   C     0.15326   0.50819   0.63099   0.00000  Uiso   1.00
C476   C     0.15406   0.44232   0.61950   0.00000  Uiso   1.00
C477   C     0.20490   0.43735   0.62920   0.00000  Uiso   1.00
C478   C     0.06762   0.60108   0.60091   0.00000  Uiso   1.00
C479   C     0.99642   0.61333   0.56413   0.00000  Uiso   1.00
C480   C     0.47516   0.18656   0.54850   0.00000  Uiso   1.00
C481   C     0.14674   0.54150   0.66423   0.00000  Uiso   1.00
C482   C     0.14204   0.50366   0.68068   0.00000  Uiso   1.00
C483   C     0.18738   0.52675   0.71836   0.00000  Uiso   1.00
H484   H     0.72868   0.17960   0.67702   0.00000  Uiso   1.00
H485   H     0.28971   0.60766   0.67698   0.00000  Uiso   1.00
H486   H     0.63209   0.27864   0.62162   0.00000  Uiso   1.00
H487   H     0.27769   0.66899   0.73816   0.00000  Uiso   1.00
H488   H     0.33608   0.50198   0.66791   0.00000  Uiso   1.00
H489   H     0.50373   0.36250   0.55118   0.00000  Uiso   1.00
H490   H     0.31075   0.63129   0.79693   0.00000  Uiso   1.00
H491   H     0.06467   0.47973   0.60752   0.00000  Uiso   1.00
H492   H     0.11670   0.39681   0.60368   0.00000  Uiso   1.00
H493   H     0.95908   0.56780   0.54831   0.00000  Uiso   1.00
H494   H     0.10468   0.45815   0.66485   0.00000  Uiso   1.00
H495   H     0.19566   0.33085   0.60841   0.00000  Uiso   1.00
H496   H     0.36330   0.19137   0.49168   0.00000  Uiso   1.00
H497   H     0.17033   0.46016   0.73742   0.00000  Uiso   1.00
O498   O     0.30305   0.36549   0.63688   0.00000  Uiso   1.00
O499   O     0.36701   0.33848   0.48373   0.00000  Uiso   1.00
O500   O     0.26983   0.53514   0.80614   0.00000  Uiso   1.00
N501   N     0.29590   0.47308   0.65445   0.00000  Uiso   1.00
N502   N     0.48517   0.31014   0.54530   0.00000  Uiso   1.00
N503   N     0.27220   0.59399   0.77505   0.00000  Uiso   1.00
N504   N     0.22034   0.38099   0.62243   0.00000  Uiso   1.00
N505   N     0.40961   0.21805   0.51328   0.00000  Uiso   1.00
N506   N     0.19664   0.50190   0.74303   0.00000  Uiso   1.00
C507   C     0.98334   0.50790   0.68614   0.00000  Uiso   1.00
C508   C     0.95199   0.47550   0.69056   0.00000  Uiso   1.00
C509   C     0.95112   0.39908   0.69574   0.00000  Uiso   1.00
C510   C     0.91994   0.38102   0.69918   0.00000  Uiso   1.00
C511   C     0.87568   0.32213   0.70627   0.00000  Uiso   1.00
C512   C     0.92474   0.55169   0.64684   0.00000  Uiso   1.00
C513   C     0.90098   0.53932   0.61527   0.00000  Uiso   1.00
C514   C     0.84686   0.58540   0.58191   0.00000  Uiso   1.00
C515   C     0.76033   0.64482   0.52114   0.00000  Uiso   1.00
C516   C     0.03638   0.56768   0.71889   0.00000  Uiso   1.00
C517   C     0.10649   0.56877   0.74789   0.00000  Uiso   1.00
C518   C     0.64636   0.12833   0.77518   0.00000  Uiso   1.00
C519   C     0.73317   0.21257   0.82628   0.00000  Uiso   1.00
C520   C     0.42950   0.11174   0.68303   0.00000  Uiso   1.00
C521   C     0.42274   0.03191   0.68887   0.00000  Uiso   1.00
C522   C     0.39155   0.01396   0.69230   0.00000  Uiso   1.00
C523   C     0.89064   0.43752   0.69748   0.00000  Uiso   1.00
C524   C     0.39550   0.10809   0.64515   0.00000  Uiso   1.00
C525   C     0.34141   0.15420   0.61183   0.00000  Uiso   1.00
C526   C     0.31756   0.14191   0.58021   0.00000  Uiso   1.00
C527   C     0.50714   0.12408   0.71720   0.00000  Uiso   1.00
C528   C     0.54691   0.18365   0.74445   0.00000  Uiso   1.00
C529   C     0.61706   0.18483   0.77349   0.00000  Uiso   1.00
H530   H     0.00610   0.46399   0.68746   0.00000  Uiso   1.00
H531   H     0.97375   0.35544   0.69704   0.00000  Uiso   1.00
H532   H     0.92362   0.49567   0.61659   0.00000  Uiso   1.00
H533   H     0.12910   0.52511   0.74919   0.00000  Uiso   1.00
H534   H     0.92497   0.25996   0.70691   0.00000  Uiso   1.00
H535   H     0.81928   0.55566   0.53727   0.00000  Uiso   1.00
H536   H     0.75256   0.11774   0.81689   0.00000  Uiso   1.00
H537   H     0.40673   0.15566   0.68171   0.00000  Uiso   1.00
H538   H     0.36893   0.05762   0.69099   0.00000  Uiso   1.00
H539   H     0.31879   0.19785   0.61053   0.00000  Uiso   1.00
H540   H     0.52427   0.22729   0.74313   0.00000  Uiso   1.00
H541   H     0.33988   0.92406   0.70200   0.00000  Uiso   1.00
H542   H     0.23419   0.21976   0.53236   0.00000  Uiso   1.00
H543   H     0.66748   0.28184   0.81197   0.00000  Uiso   1.00
O544   O     0.85933   0.27406   0.71065   0.00000  Uiso   1.00
O545   O     0.72068   0.66201   0.48809   0.00000  Uiso   1.00
O546   O     0.78914   0.24346   0.85494   0.00000  Uiso   1.00
N547   N     0.91015   0.31204   0.70449   0.00000  Uiso   1.00
N548   N     0.81132   0.58849   0.54588   0.00000  Uiso   1.00
N549   N     0.71640   0.14654   0.80729   0.00000  Uiso   1.00
N550   N     0.86436   0.40034   0.70185   0.00000  Uiso   1.00
N551   N     0.26554   0.17679   0.54324   0.00000  Uiso   1.00
N552   N     0.67062   0.23484   0.80465   0.00000  Uiso   1.00
C553   C     0.57579   0.51785   0.22109   0.00000  Uiso   1.00
C554   C     0.58060   0.43810   0.21414   0.00000  Uiso   1.00
C555   C     0.59427   0.37137   0.23163   0.00000  Uiso   1.00
C556   C     0.59649   0.30417   0.22139   0.00000  Uiso   1.00
C557   C     0.60560   0.18039   0.21465   0.00000  Uiso   1.00
C558   C     0.50415   0.54847   0.18005   0.00000  Uiso   1.00
C559   C     0.95356   0.07455   0.16887   0.00000  Uiso   1.00
C560   C     0.89145   0.10027   0.12994   0.00000  Uiso   1.00
C561   C     0.78190   0.14789   0.07028   0.00000  Uiso   1.00
C562   C     0.62866   0.56651   0.23532   0.00000  Uiso   1.00
C563   C     0.18275   0.10778   0.27062   0.00000  Uiso   1.00
C564   C     0.22544   0.14870   0.27823   0.00000  Uiso   1.00
C565   C     0.30921   0.22434   0.30439   0.00000  Uiso   1.00
C566   C     0.55543   0.51717   0.17182   0.00000  Uiso   1.00
C567   C     0.56953   0.43773   0.18738   0.00000  Uiso   1.00
C568   C     0.57174   0.37061   0.17712   0.00000  Uiso   1.00
C569   C     0.58542   0.30379   0.19459   0.00000  Uiso   1.00
C570   C     0.49309   0.54810   0.15329   0.00000  Uiso   1.00
C571   C     0.43104   0.57379   0.11436   0.00000  Uiso   1.00
C572   C     0.38037   0.59989   0.10313   0.00000  Uiso   1.00
C573   C     0.61760   0.56614   0.20856   0.00000  Uiso   1.00
C574   C     0.66022   0.60701   0.21611   0.00000  Uiso   1.00
C575   C     0.71437   0.64833   0.25142   0.00000  Uiso   1.00
H576   H     0.58439   0.51815   0.24193   0.00000  Uiso   1.00
H577   H     0.60282   0.37168   0.25234   0.00000  Uiso   1.00
H578   H     0.96214   0.07484   0.18959   0.00000  Uiso   1.00
H579   H     0.19129   0.10806   0.29133   0.00000  Uiso   1.00
H580   H     0.61834   0.20914   0.25206   0.00000  Uiso   1.00
H581   H     0.82172   0.13752   0.11977   0.00000  Uiso   1.00
H582   H     0.30492   0.20757   0.33429   0.00000  Uiso   1.00
H583   H     0.54682   0.51688   0.15099   0.00000  Uiso   1.00
H584   H     0.56318   0.37034   0.15640   0.00000  Uiso   1.00
H585   H     0.42250   0.57349   0.09366   0.00000  Uiso   1.00
H586   H     0.65165   0.60671   0.19539   0.00000  Uiso   1.00
H587   H     0.58617   0.20804   0.17420   0.00000  Uiso   1.00
H588   H     0.28955   0.63643   0.04190   0.00000  Uiso   1.00
H589   H     0.77275   0.70648   0.25643   0.00000  Uiso   1.00
O590   O     0.61367   0.11221   0.21832   0.00000  Uiso   1.00
O591   O     0.72453   0.17425   0.04476   0.00000  Uiso   1.00
O592   O     0.35848   0.26615   0.32622   0.00000  Uiso   1.00
N593   N     0.60854   0.22899   0.23300   0.00000  Uiso   1.00
N594   N     0.83121   0.12949   0.10931   0.00000  Uiso   1.00
N595   N     0.28295   0.19500   0.30987   0.00000  Uiso   1.00
N596   N     0.59123   0.22840   0.19110   0.00000  Uiso   1.00
N597   N     0.31390   0.62891   0.06741   0.00000  Uiso   1.00
N598   N     0.26564   0.19441   0.26797   0.00000  Uiso   1.00
C599   C     0.69110   0.86619   0.16110   0.00000  Uiso   1.00
C600   C     0.70153   0.93300   0.15145   0.00000  Uiso   1.00
C601   C     0.75237   0.93787   0.16116   0.00000  Uiso   1.00
C602   C     0.75325   0.00372   0.14969   0.00000  Uiso   1.00
C603   C     0.77676   0.09849   0.13779   0.00000  Uiso   1.00
C604   C     0.61589   0.84010   0.12136   0.00000  Uiso   1.00
C605   C     0.09473   0.26686   0.10578   0.00000  Uiso   1.00
C606   C     0.02351   0.25452   0.06898   0.00000  Uiso   1.00
C607   C     0.91405   0.20505   0.01040   0.00000  Uiso   1.00
C608   C     0.69500   0.89968   0.18468   0.00000  Uiso   1.00
C609   C     0.74035   0.87653   0.22234   0.00000  Uiso   1.00
C610   C     0.73573   0.91433   0.23885   0.00000  Uiso   1.00
C611   C     0.74911   0.95736   0.27858   0.00000  Uiso   1.00
C612   C     0.60224   0.97448   0.12345   0.00000  Uiso   1.00
C613   C     0.65326   0.99181   0.13099   0.00000  Uiso   1.00
C614   C     0.65406   0.05768   0.11950   0.00000  Uiso   1.00
C615   C     0.70490   0.06265   0.12920   0.00000  Uiso   1.00
C616   C     0.56762   0.89892   0.10091   0.00000  Uiso   1.00
C617   C     0.49642   0.88667   0.06413   0.00000  Uiso   1.00
C618   C     0.97516   0.31344   0.04850   0.00000  Uiso   1.00
C619   C     0.64674   0.95850   0.16423   0.00000  Uiso   1.00
C620   C     0.64204   0.99634   0.18068   0.00000  Uiso   1.00
C621   C     0.68738   0.97325   0.21836   0.00000  Uiso   1.00
H622   H     0.22868   0.32040   0.17702   0.00000  Uiso   1.00
H623   H     0.78971   0.89234   0.17698   0.00000  Uiso   1.00
H624   H     0.13209   0.22136   0.12162   0.00000  Uiso   1.00
H625   H     0.77769   0.83101   0.23816   0.00000  Uiso   1.00
H626   H     0.83608   0.99802   0.16791   0.00000  Uiso   1.00
H627   H     0.00373   0.13750   0.05118   0.00000  Uiso   1.00
H628   H     0.81075   0.86871   0.29693   0.00000  Uiso   1.00
H629   H     0.56467   0.02027   0.10752   0.00000  Uiso   1.00
H630   H     0.61670   0.10319   0.10368   0.00000  Uiso   1.00
H631   H     0.45908   0.93220   0.04831   0.00000  Uiso   1.00
H632   H     0.60468   0.04185   0.16485   0.00000  Uiso   1.00
H633   H     0.69566   0.16915   0.10841   0.00000  Uiso   1.00
H634   H     0.86330   0.30863   0.99168   0.00000  Uiso   1.00
H635   H     0.67033   0.03984   0.23742   0.00000  Uiso   1.00
O636   O     0.80305   0.13451   0.13688   0.00000  Uiso   1.00
O637   O     0.86701   0.16152   0.98373   0.00000  Uiso   1.00
O638   O     0.76983   0.96486   0.30614   0.00000  Uiso   1.00
N639   N     0.79590   0.02692   0.15445   0.00000  Uiso   1.00
N640   N     0.98517   0.18986   0.04530   0.00000  Uiso   1.00
N641   N     0.77220   0.90601   0.27505   0.00000  Uiso   1.00
N642   N     0.72034   0.11901   0.12243   0.00000  Uiso   1.00
N643   N     0.90961   0.28195   0.01328   0.00000  Uiso   1.00
N644   N     0.69664   0.99810   0.24303   0.00000  Uiso   1.00
C645   C     0.48334   0.99210   0.18614   0.00000  Uiso   1.00
C646   C     0.45199   0.02450   0.19056   0.00000  Uiso   1.00
C647   C     0.45112   0.10092   0.19574   0.00000  Uiso   1.00
C648   C     0.41994   0.11898   0.19918   0.00000  Uiso   1.00
C649   C     0.37568   0.17787   0.20627   0.00000  Uiso   1.00
C650   C     0.42474   0.94831   0.14684   0.00000  Uiso   1.00
C651   C     0.40098   0.96068   0.11527   0.00000  Uiso   1.00
C652   C     0.34686   0.91460   0.08191   0.00000  Uiso   1.00
C653   C     0.26033   0.85518   0.02114   0.00000  Uiso   1.00
C654   C     0.53638   0.93232   0.21889   0.00000  Uiso   1.00
C655   C     0.60649   0.93123   0.24789   0.00000  Uiso   1.00
C656   C     0.14636   0.37167   0.27518   0.00000  Uiso   1.00
C657   C     0.23317   0.28743   0.32628   0.00000  Uiso   1.00
C658   C     0.92950   0.38826   0.18303   0.00000  Uiso   1.00
C659   C     0.92274   0.46809   0.18887   0.00000  Uiso   1.00
C660   C     0.89155   0.48604   0.19230   0.00000  Uiso   1.00
C661   C     0.39064   0.06248   0.19748   0.00000  Uiso   1.00
C662   C     0.89550   0.39191   0.14515   0.00000  Uiso   1.00
C663   C     0.84141   0.34580   0.11183   0.00000  Uiso   1.00
C664   C     0.81756   0.35809   0.08021   0.00000  Uiso   1.00
C665   C     0.00714   0.37592   0.21720   0.00000  Uiso   1.00
C666   C     0.04691   0.31635   0.24445   0.00000  Uiso   1.00
C667   C     0.11706   0.31517   0.27349   0.00000  Uiso   1.00
H668   H     0.50610   0.03601   0.18746   0.00000  Uiso   1.00
H669   H     0.47375   0.14456   0.19704   0.00000  Uiso   1.00
H670   H     0.42362   0.00433   0.11659   0.00000  Uiso   1.00
H671   H     0.62910   0.97489   0.24919   0.00000  Uiso   1.00
H672   H     0.42497   0.24004   0.20691   0.00000  Uiso   1.00
H673   H     0.31928   0.94434   0.03727   0.00000  Uiso   1.00
H674   H     0.25256   0.38226   0.31689   0.00000  Uiso   1.00
H675   H     0.90673   0.34434   0.18171   0.00000  Uiso   1.00
H676   H     0.86893   0.44238   0.19099   0.00000  Uiso   1.00
H677   H     0.81879   0.30215   0.11053   0.00000  Uiso   1.00
H678   H     0.02427   0.27271   0.24313   0.00000  Uiso   1.00
H679   H     0.83988   0.57594   0.20200   0.00000  Uiso   1.00
H680   H     0.73419   0.28024   0.03236   0.00000  Uiso   1.00
H681   H     0.16748   0.21816   0.31197   0.00000  Uiso   1.00
O682   O     0.35933   0.22594   0.21065   0.00000  Uiso   1.00
O683   O     0.22068   0.83799   0.98809   0.00000  Uiso   1.00
O684   O     0.28914   0.25654   0.35494   0.00000  Uiso   1.00
N685   N     0.41015   0.18796   0.20449   0.00000  Uiso   1.00
N686   N     0.31132   0.91151   0.04588   0.00000  Uiso   1.00
N687   N     0.21640   0.35346   0.30729   0.00000  Uiso   1.00
N688   N     0.36436   0.09966   0.20185   0.00000  Uiso   1.00
N689   N     0.76554   0.32321   0.04324   0.00000  Uiso   1.00
N690   N     0.17062   0.26516   0.30465   0.00000  Uiso   1.00
C691   C     0.07579   0.01785   0.22109   0.00000  Uiso   1.00
C692   C     0.08060   0.93810   0.21414   0.00000  Uiso   1.00
C693   C     0.09427   0.87137   0.23163   0.00000  Uiso   1.00
C694   C     0.09649   0.80417   0.22139   0.00000  Uiso   1.00
C695   C     0.10560   0.68039   0.21465   0.00000  Uiso   1.00
C696   C     0.00415   0.04847   0.18005   0.00000  Uiso   1.00
C697   C     0.45356   0.57455   0.16887   0.00000  Uiso   1.00
C698   C     0.39145   0.60027   0.12994   0.00000  Uiso   1.00
C699   C     0.28190   0.64789   0.07028   0.00000  Uiso   1.00
C700   C     0.12866   0.06651   0.23532   0.00000  Uiso   1.00
C701   C     0.68275   0.60778   0.27062   0.00000  Uiso   1.00
C702   C     0.72544   0.64870   0.27823   0.00000  Uiso   1.00
C703   C     0.80921   0.72434   0.30439   0.00000  Uiso   1.00
C704   C     0.05543   0.01717   0.17182   0.00000  Uiso   1.00
C705   C     0.06953   0.93773   0.18738   0.00000  Uiso   1.00
C706   C     0.07174   0.87061   0.17712   0.00000  Uiso   1.00
C707   C     0.08542   0.80379   0.19459   0.00000  Uiso   1.00
C708   C     0.99309   0.04810   0.15329   0.00000  Uiso   1.00
C709   C     0.93104   0.07379   0.11436   0.00000  Uiso   1.00
C710   C     0.88037   0.09989   0.10313   0.00000  Uiso   1.00
C711   C     0.11760   0.06614   0.20856   0.00000  Uiso   1.00
C712   C     0.16022   0.10701   0.21611   0.00000  Uiso   1.00
C713   C     0.21437   0.14833   0.25142   0.00000  Uiso   1.00
H714   H     0.08439   0.01815   0.24193   0.00000  Uiso   1.00
H715   H     0.10282   0.87168   0.25234   0.00000  Uiso   1.00
H716   H     0.46214   0.57484   0.18959   0.00000  Uiso   1.00
H717   H     0.69129   0.60806   0.29133   0.00000  Uiso   1.00
H718   H     0.11834   0.70914   0.25206   0.00000  Uiso   1.00
H719   H     0.32172   0.63752   0.11977   0.00000  Uiso   1.00
H720   H     0.80492   0.70757   0.33429   0.00000  Uiso   1.00
H721   H     0.04682   0.01688   0.15099   0.00000  Uiso   1.00
H722   H     0.06318   0.87034   0.15640   0.00000  Uiso   1.00
H723   H     0.92250   0.07349   0.09366   0.00000  Uiso   1.00
H724   H     0.15165   0.10671   0.19539   0.00000  Uiso   1.00
H725   H     0.08617   0.70804   0.17420   0.00000  Uiso   1.00
H726   H     0.78955   0.13643   0.04190   0.00000  Uiso   1.00
H727   H     0.27275   0.20648   0.25643   0.00000  Uiso   1.00
O728   O     0.11367   0.61221   0.21832   0.00000  Uiso   1.00
O729   O     0.22453   0.67425   0.04476   0.00000  Uiso   1.00
O730   O     0.85848   0.76615   0.32622   0.00000  Uiso   1.00
N731   N     0.10854   0.72899   0.23300   0.00000  Uiso   1.00
N732   N     0.33121   0.62949   0.10931   0.00000  Uiso   1.00
N733   N     0.78295   0.69500   0.30987   0.00000  Uiso   1.00
N734   N     0.09123   0.72840   0.19110   0.00000  Uiso   1.00
N735   N     0.81390   0.12891   0.06741   0.00000  Uiso   1.00
N736   N     0.76564   0.69441   0.26797   0.00000  Uiso   1.00
C737   C     0.19110   0.36619   0.16110   0.00000  Uiso   1.00
C738   C     0.20153   0.43300   0.15145   0.00000  Uiso   1.00
C739   C     0.25237   0.43787   0.16116   0.00000  Uiso   1.00
C740   C     0.25325   0.50372   0.14969   0.00000  Uiso   1.00
C741   C     0.27676   0.59849   0.13779   0.00000  Uiso   1.00
C742   C     0.11589   0.34010   0.12136   0.00000  Uiso   1.00
C743   C     0.59473   0.76686   0.10578   0.00000  Uiso   1.00
C744   C     0.52351   0.75452   0.06898   0.00000  Uiso   1.00
C745   C     0.41405   0.70505   0.01040   0.00000  Uiso   1.00
C746   C     0.19500   0.39968   0.18468   0.00000  Uiso   1.00
C747   C     0.24035   0.37653   0.22234   0.00000  Uiso   1.00
C748   C     0.23573   0.41433   0.23885   0.00000  Uiso   1.00
C749   C     0.24911   0.45736   0.27858   0.00000  Uiso   1.00
C750   C     0.10224   0.47448   0.12345   0.00000  Uiso   1.00
C751   C     0.15326   0.49181   0.13099   0.00000  Uiso   1.00
C752   C     0.15406   0.55768   0.11950   0.00000  Uiso   1.00
C753   C     0.20490   0.56265   0.12920   0.00000  Uiso   1.00
C754   C     0.06762   0.39892   0.10091   0.00000  Uiso   1.00
C755   C     0.99642   0.38667   0.06413   0.00000  Uiso   1.00
C756   C     0.47516   0.81344   0.04850   0.00000  Uiso   1.00
C757   C     0.14674   0.45850   0.16423   0.00000  Uiso   1.00
C758   C     0.14204   0.49634   0.18068   0.00000  Uiso   1.00
C759   C     0.18738   0.47325   0.21836   0.00000  Uiso   1.00
H760   H     0.72868   0.82040   0.17702   0.00000  Uiso   1.00
H761   H     0.28971   0.39234   0.17698   0.00000  Uiso   1.00
H762   H     0.63209   0.72136   0.12162   0.00000  Uiso   1.00
H763   H     0.27769   0.33101   0.23816   0.00000  Uiso   1.00
H764   H     0.33608   0.49802   0.16791   0.00000  Uiso   1.00
H765   H     0.50373   0.63750   0.05118   0.00000  Uiso   1.00
H766   H     0.31075   0.36871   0.29693   0.00000  Uiso   1.00
H767   H     0.06467   0.52027   0.10752   0.00000  Uiso   1.00
H768   H     0.11670   0.60319   0.10368   0.00000  Uiso   1.00
H769   H     0.95908   0.43220   0.04831   0.00000  Uiso   1.00
H770   H     0.10468   0.54185   0.16485   0.00000  Uiso   1.00
H771   H     0.19566   0.66915   0.10841   0.00000  Uiso   1.00
H772   H     0.36330   0.80863   0.99168   0.00000  Uiso   1.00
H773   H     0.17033   0.53984   0.23742   0.00000  Uiso   1.00
O774   O     0.30305   0.63451   0.13688   0.00000  Uiso   1.00
O775   O     0.36701   0.66152   0.98373   0.00000  Uiso   1.00
O776   O     0.26983   0.46486   0.30614   0.00000  Uiso   1.00
N777   N     0.29590   0.52692   0.15445   0.00000  Uiso   1.00
N778   N     0.48517   0.68986   0.04530   0.00000  Uiso   1.00
N779   N     0.27220   0.40601   0.27505   0.00000  Uiso   1.00
N780   N     0.22034   0.61901   0.12243   0.00000  Uiso   1.00
N781   N     0.40961   0.78195   0.01328   0.00000  Uiso   1.00
N782   N     0.19664   0.49810   0.24303   0.00000  Uiso   1.00
C783   C     0.98334   0.49210   0.18614   0.00000  Uiso   1.00
C784   C     0.95199   0.52450   0.19056   0.00000  Uiso   1.00
C785   C     0.95112   0.60092   0.19574   0.00000  Uiso   1.00
C786   C     0.91994   0.61898   0.19918   0.00000  Uiso   1.00
C787   C     0.87568   0.67787   0.20627   0.00000  Uiso   1.00
C788   C     0.92474   0.44831   0.14684   0.00000  Uiso   1.00
C789   C     0.90098   0.46068   0.11527   0.00000  Uiso   1.00
C790   C     0.84686   0.41460   0.08191   0.00000  Uiso   1.00
C791   C     0.76033   0.35518   0.02114   0.00000  Uiso   1.00
C792   C     0.03638   0.43232   0.21889   0.00000  Uiso   1.00
C793   C     0.10649   0.43123   0.24789   0.00000  Uiso   1.00
C794   C     0.64636   0.87167   0.27518   0.00000  Uiso   1.00
C795   C     0.73317   0.78743   0.32628   0.00000  Uiso   1.00
C796   C     0.42950   0.88826   0.18303   0.00000  Uiso   1.00
C797   C     0.42274   0.96809   0.18887   0.00000  Uiso   1.00
C798   C     0.39155   0.98604   0.19230   0.00000  Uiso   1.00
C799   C     0.89064   0.56248   0.19748   0.00000  Uiso   1.00
C800   C     0.39550   0.89191   0.14515   0.00000  Uiso   1.00
C801   C     0.34141   0.84580   0.11183   0.00000  Uiso   1.00
C802   C     0.31756   0.85809   0.08021   0.00000  Uiso   1.00
C803   C     0.50714   0.87592   0.21720   0.00000  Uiso   1.00
C804   C     0.54691   0.81635   0.24445   0.00000  Uiso   1.00
C805   C     0.61706   0.81517   0.27349   0.00000  Uiso   1.00
H806   H     0.00610   0.53601   0.18746   0.00000  Uiso   1.00
H807   H     0.97375   0.64456   0.19704   0.00000  Uiso   1.00
H808   H     0.92362   0.50433   0.11659   0.00000  Uiso   1.00
H809   H     0.12910   0.47489   0.24919   0.00000  Uiso   1.00
H810   H     0.92497   0.74004   0.20691   0.00000  Uiso   1.00
H811   H     0.81928   0.44434   0.03727   0.00000  Uiso   1.00
H812   H     0.75256   0.88226   0.31689   0.00000  Uiso   1.00
H813   H     0.40673   0.84434   0.18171   0.00000  Uiso   1.00
H814   H     0.36893   0.94238   0.19099   0.00000  Uiso   1.00
H815   H     0.31879   0.80215   0.11053   0.00000  Uiso   1.00
H816   H     0.52427   0.77271   0.24313   0.00000  Uiso   1.00
H817   H     0.33988   0.07594   0.20200   0.00000  Uiso   1.00
H818   H     0.23419   0.78024   0.03236   0.00000  Uiso   1.00
H819   H     0.66748   0.71816   0.31197   0.00000  Uiso   1.00
O820   O     0.85933   0.72594   0.21065   0.00000  Uiso   1.00
O821   O     0.72068   0.33799   0.98809   0.00000  Uiso   1.00
O822   O     0.78914   0.75654   0.35494   0.00000  Uiso   1.00
N823   N     0.91015   0.68796   0.20449   0.00000  Uiso   1.00
N824   N     0.81132   0.41151   0.04588   0.00000  Uiso   1.00
N825   N     0.71640   0.85346   0.30729   0.00000  Uiso   1.00
N826   N     0.86436   0.59966   0.20185   0.00000  Uiso   1.00
N827   N     0.26554   0.82321   0.04324   0.00000  Uiso   1.00
N828   N     0.67062   0.76516   0.30465   0.00000  Uiso   1.00
C829   C     0.42421   0.51785   0.27891   0.00000  Uiso   1.00
C830   C     0.41940   0.43810   0.28586   0.00000  Uiso   1.00
C831   C     0.40573   0.37137   0.26837   0.00000  Uiso   1.00
C832   C     0.40351   0.30417   0.27861   0.00000  Uiso   1.00
C833   C     0.39440   0.18039   0.28535   0.00000  Uiso   1.00
C834   C     0.49585   0.54847   0.31995   0.00000  Uiso   1.00
C835   C     0.04644   0.07455   0.33113   0.00000  Uiso   1.00
C836   C     0.10855   0.10027   0.37006   0.00000  Uiso   1.00
C837   C     0.21810   0.14789   0.42972   0.00000  Uiso   1.00
C838   C     0.37134   0.56651   0.26468   0.00000  Uiso   1.00
C839   C     0.81725   0.10778   0.22938   0.00000  Uiso   1.00
C840   C     0.77456   0.14870   0.22177   0.00000  Uiso   1.00
C841   C     0.69079   0.22434   0.19561   0.00000  Uiso   1.00
C842   C     0.44457   0.51717   0.32818   0.00000  Uiso   1.00
C843   C     0.43047   0.43773   0.31262   0.00000  Uiso   1.00
C844   C     0.42826   0.37061   0.32288   0.00000  Uiso   1.00
C845   C     0.41458   0.30379   0.30541   0.00000  Uiso   1.00
C846   C     0.50691   0.54810   0.34671   0.00000  Uiso   1.00
C847   C     0.56896   0.57379   0.38564   0.00000  Uiso   1.00
C848   C     0.61963   0.59989   0.39687   0.00000  Uiso   1.00
C849   C     0.38240   0.56614   0.29144   0.00000  Uiso   1.00
C850   C     0.33978   0.60701   0.28389   0.00000  Uiso   1.00
C851   C     0.28563   0.64833   0.24858   0.00000  Uiso   1.00
H852   H     0.41561   0.51815   0.25807   0.00000  Uiso   1.00
H853   H     0.39718   0.37168   0.24766   0.00000  Uiso   1.00
H854   H     0.03786   0.07484   0.31041   0.00000  Uiso   1.00
H855   H     0.80871   0.10806   0.20867   0.00000  Uiso   1.00
H856   H     0.38166   0.20914   0.24794   0.00000  Uiso   1.00
H857   H     0.17828   0.13752   0.38023   0.00000  Uiso   1.00
H858   H     0.69508   0.20757   0.16571   0.00000  Uiso   1.00
H859   H     0.45318   0.51688   0.34901   0.00000  Uiso   1.00
H860   H     0.43682   0.37034   0.34360   0.00000  Uiso   1.00
H861   H     0.57750   0.57349   0.40634   0.00000  Uiso   1.00
H862   H     0.34835   0.60671   0.30461   0.00000  Uiso   1.00
H863   H     0.41383   0.20804   0.32580   0.00000  Uiso   1.00
H864   H     0.71045   0.63643   0.45810   0.00000  Uiso   1.00
H865   H     0.22725   0.70648   0.24357   0.00000  Uiso   1.00
O866   O     0.38633   0.11221   0.28168   0.00000  Uiso   1.00
O867   O     0.27547   0.17425   0.45524   0.00000  Uiso   1.00
O868   O     0.64152   0.26615   0.17378   0.00000  Uiso   1.00
N869   N     0.39146   0.22899   0.26700   0.00000  Uiso   1.00
N870   N     0.16879   0.12949   0.39069   0.00000  Uiso   1.00
N871   N     0.71705   0.19500   0.19013   0.00000  Uiso   1.00
N872   N     0.40877   0.22840   0.30890   0.00000  Uiso   1.00
N873   N     0.68610   0.62891   0.43259   0.00000  Uiso   1.00
N874   N     0.73436   0.19441   0.23203   0.00000  Uiso   1.00
C875   C     0.30890   0.86619   0.33890   0.00000  Uiso   1.00
C876   C     0.29847   0.93300   0.34855   0.00000  Uiso   1.00
C877   C     0.24763   0.93787   0.33884   0.00000  Uiso   1.00
C878   C     0.24675   0.00372   0.35031   0.00000  Uiso   1.00
C879   C     0.22324   0.09849   0.36221   0.00000  Uiso   1.00
C880   C     0.38411   0.84010   0.37864   0.00000  Uiso   1.00
C881   C     0.90527   0.26686   0.39422   0.00000  Uiso   1.00
C882   C     0.97649   0.25452   0.43102   0.00000  Uiso   1.00
C883   C     0.08595   0.20505   0.48960   0.00000  Uiso   1.00
C884   C     0.30500   0.89968   0.31532   0.00000  Uiso   1.00
C885   C     0.25965   0.87653   0.27766   0.00000  Uiso   1.00
C886   C     0.26427   0.91433   0.26115   0.00000  Uiso   1.00
C887   C     0.25089   0.95736   0.22142   0.00000  Uiso   1.00
C888   C     0.39776   0.97448   0.37655   0.00000  Uiso   1.00
C889   C     0.34674   0.99181   0.36901   0.00000  Uiso   1.00
C890   C     0.34594   0.05768   0.38050   0.00000  Uiso   1.00
C891   C     0.29510   0.06265   0.37080   0.00000  Uiso   1.00
C892   C     0.43238   0.89892   0.39909   0.00000  Uiso   1.00
C893   C     0.50358   0.88667   0.43587   0.00000  Uiso   1.00
C894   C     0.02484   0.31344   0.45150   0.00000  Uiso   1.00
C895   C     0.35326   0.95850   0.33577   0.00000  Uiso   1.00
C896   C     0.35796   0.99634   0.31932   0.00000  Uiso   1.00
C897   C     0.31262   0.97325   0.28164   0.00000  Uiso   1.00
H898   H     0.77132   0.32040   0.32298   0.00000  Uiso   1.00
H899   H     0.21029   0.89234   0.32302   0.00000  Uiso   1.00
H900   H     0.86791   0.22136   0.37838   0.00000  Uiso   1.00
H901   H     0.22231   0.83101   0.26184   0.00000  Uiso   1.00
H902   H     0.16392   0.99802   0.33209   0.00000  Uiso   1.00
H903   H     0.99627   0.13750   0.44882   0.00000  Uiso   1.00
H904   H     0.18925   0.86871   0.20307   0.00000  Uiso   1.00
H905   H     0.43533   0.02027   0.39248   0.00000  Uiso   1.00
H906   H     0.38330   0.10319   0.39632   0.00000  Uiso   1.00
H907   H     0.54092   0.93220   0.45169   0.00000  Uiso   1.00
H908   H     0.39532   0.04185   0.33515   0.00000  Uiso   1.00
H909   H     0.30434   0.16915   0.39159   0.00000  Uiso   1.00
H910   H     0.13670   0.30863   0.50832   0.00000  Uiso   1.00
H911   H     0.32967   0.03984   0.26258   0.00000  Uiso   1.00
O912   O     0.19695   0.13451   0.36312   0.00000  Uiso   1.00
O913   O     0.13299   0.16152   0.51627   0.00000  Uiso   1.00
O914   O     0.23017   0.96486   0.19386   0.00000  Uiso   1.00
N915   N     0.20410   0.02692   0.34555   0.00000  Uiso   1.00
N916   N     0.01483   0.18986   0.45470   0.00000  Uiso   1.00
N917   N     0.22780   0.90601   0.22495   0.00000  Uiso   1.00
N918   N     0.27966   0.11901   0.37757   0.00000  Uiso   1.00
N919   N     0.09039   0.28195   0.48672   0.00000  Uiso   1.00
N920   N     0.30336   0.99810   0.25697   0.00000  Uiso   1.00
C921   C     0.51666   0.99210   0.31386   0.00000  Uiso   1.00
C922   C     0.54801   0.02450   0.30944   0.00000  Uiso   1.00
C923   C     0.54888   0.10092   0.30426   0.00000  Uiso   1.00
C924   C     0.58006   0.11898   0.30082   0.00000  Uiso   1.00
C925   C     0.62432   0.17787   0.29373   0.00000  Uiso   1.00
C926   C     0.57526   0.94831   0.35316   0.00000  Uiso   1.00
C927   C     0.59902   0.96068   0.38473   0.00000  Uiso   1.00
C928   C     0.65314   0.91460   0.41809   0.00000  Uiso   1.00
C929   C     0.73967   0.85518   0.47886   0.00000  Uiso   1.00
C930   C     0.46362   0.93232   0.28111   0.00000  Uiso   1.00
C931   C     0.39351   0.93123   0.25211   0.00000  Uiso   1.00
C932   C     0.85364   0.37167   0.22482   0.00000  Uiso   1.00
C933   C     0.76683   0.28743   0.17372   0.00000  Uiso   1.00
C934   C     0.07050   0.38826   0.31697   0.00000  Uiso   1.00
C935   C     0.07726   0.46809   0.31113   0.00000  Uiso   1.00
C936   C     0.10845   0.48604   0.30770   0.00000  Uiso   1.00
C937   C     0.60936   0.06248   0.30252   0.00000  Uiso   1.00
C938   C     0.10450   0.39191   0.35485   0.00000  Uiso   1.00
C939   C     0.15859   0.34580   0.38817   0.00000  Uiso   1.00
C940   C     0.18244   0.35809   0.41979   0.00000  Uiso   1.00
C941   C     0.99286   0.37592   0.28280   0.00000  Uiso   1.00
C942   C     0.95309   0.31635   0.25555   0.00000  Uiso   1.00
C943   C     0.88294   0.31517   0.22651   0.00000  Uiso   1.00
H944   H     0.49390   0.03601   0.31254   0.00000  Uiso   1.00
H945   H     0.52625   0.14456   0.30296   0.00000  Uiso   1.00
H946   H     0.57638   0.00433   0.38341   0.00000  Uiso   1.00
H947   H     0.37090   0.97489   0.25081   0.00000  Uiso   1.00
H948   H     0.57503   0.24004   0.29309   0.00000  Uiso   1.00
H949   H     0.68072   0.94434   0.46273   0.00000  Uiso   1.00
H950   H     0.74744   0.38226   0.18311   0.00000  Uiso   1.00
H951   H     0.09327   0.34434   0.31829   0.00000  Uiso   1.00
H952   H     0.13107   0.44238   0.30901   0.00000  Uiso   1.00
H953   H     0.18121   0.30215   0.38947   0.00000  Uiso   1.00
H954   H     0.97573   0.27271   0.25687   0.00000  Uiso   1.00
H955   H     0.16012   0.57594   0.29800   0.00000  Uiso   1.00
H956   H     0.26581   0.28024   0.46764   0.00000  Uiso   1.00
H957   H     0.83252   0.21816   0.18803   0.00000  Uiso   1.00
O958   O     0.64067   0.22594   0.28935   0.00000  Uiso   1.00
O959   O     0.77932   0.83799   0.51191   0.00000  Uiso   1.00
O960   O     0.71086   0.25654   0.14506   0.00000  Uiso   1.00
N961   N     0.58985   0.18796   0.29551   0.00000  Uiso   1.00
N962   N     0.68868   0.91151   0.45412   0.00000  Uiso   1.00
N963   N     0.78360   0.35346   0.19271   0.00000  Uiso   1.00
N964   N     0.63564   0.09966   0.29815   0.00000  Uiso   1.00
N965   N     0.23446   0.32321   0.45676   0.00000  Uiso   1.00
N966   N     0.82938   0.26516   0.19535   0.00000  Uiso   1.00
C967   C     0.92421   0.01785   0.27891   0.00000  Uiso   1.00
C968   C     0.91940   0.93810   0.28586   0.00000  Uiso   1.00
C969   C     0.90573   0.87137   0.26837   0.00000  Uiso   1.00
C970   C     0.90351   0.80417   0.27861   0.00000  Uiso   1.00
C971   C     0.89440   0.68039   0.28535   0.00000  Uiso   1.00
C972   C     0.99585   0.04847   0.31995   0.00000  Uiso   1.00
C973   C     0.54644   0.57455   0.33113   0.00000  Uiso   1.00
C974   C     0.60855   0.60027   0.37006   0.00000  Uiso   1.00
C975   C     0.71810   0.64789   0.42972   0.00000  Uiso   1.00
C976   C     0.87134   0.06651   0.26468   0.00000  Uiso   1.00
C977   C     0.31725   0.60778   0.22938   0.00000  Uiso   1.00
C978   C     0.27456   0.64870   0.22177   0.00000  Uiso   1.00
C979   C     0.19079   0.72434   0.19561   0.00000  Uiso   1.00
C980   C     0.94457   0.01717   0.32818   0.00000  Uiso   1.00
C981   C     0.93047   0.93773   0.31262   0.00000  Uiso   1.00
C982   C     0.92826   0.87061   0.32288   0.00000  Uiso   1.00
C983   C     0.91458   0.80379   0.30541   0.00000  Uiso   1.00
C984   C     0.00691   0.04810   0.34671   0.00000  Uiso   1.00
C985   C     0.06896   0.07379   0.38564   0.00000  Uiso   1.00
C986   C     0.11963   0.09989   0.39687   0.00000  Uiso   1.00
C987   C     0.88240   0.06614   0.29144   0.00000  Uiso   1.00
C988   C     0.83978   0.10701   0.28389   0.00000  Uiso   1.00
C989   C     0.78563   0.14833   0.24858   0.00000  Uiso   1.00
H990   H     0.91561   0.01815   0.25807   0.00000  Uiso   1.00
H991   H     0.89718   0.87168   0.24766   0.00000  Uiso   1.00
H992   H     0.53786   0.57484   0.31041   0.00000  Uiso   1.00
H993   H     0.30871   0.60806   0.20867   0.00000  Uiso   1.00
H994   H     0.88166   0.70914   0.24794   0.00000  Uiso   1.00
H995   H     0.67828   0.63752   0.38023   0.00000  Uiso   1.00
H996   H     0.19508   0.70757   0.16571   0.00000  Uiso   1.00
H997   H     0.95318   0.01688   0.34901   0.00000  Uiso   1.00
H998   H     0.93682   0.87034   0.34360   0.00000  Uiso   1.00
H999   H     0.07750   0.07349   0.40634   0.00000  Uiso   1.00
H1000  H     0.84835   0.10671   0.30461   0.00000  Uiso   1.00
H1001  H     0.91383   0.70804   0.32580   0.00000  Uiso   1.00
H1002  H     0.21045   0.13643   0.45810   0.00000  Uiso   1.00
H1003  H     0.72725   0.20648   0.24357   0.00000  Uiso   1.00
O1004  O     0.88633   0.61221   0.28168   0.00000  Uiso   1.00
O1005  O     0.77547   0.67425   0.45524   0.00000  Uiso   1.00
O1006  O     0.14152   0.76615   0.17378   0.00000  Uiso   1.00
N1007  N     0.89146   0.72899   0.26700   0.00000  Uiso   1.00
N1008  N     0.66879   0.62949   0.39069   0.00000  Uiso   1.00
N1009  N     0.21705   0.69500   0.19013   0.00000  Uiso   1.00
N1010  N     0.90877   0.72840   0.30890   0.00000  Uiso   1.00
N1011  N     0.18610   0.12891   0.43259   0.00000  Uiso   1.00
N1012  N     0.23436   0.69441   0.23203   0.00000  Uiso   1.00
C1013  C     0.80890   0.36619   0.33890   0.00000  Uiso   1.00
C1014  C     0.79847   0.43300   0.34855   0.00000  Uiso   1.00
C1015  C     0.74763   0.43787   0.33884   0.00000  Uiso   1.00
C1016  C     0.74675   0.50372   0.35031   0.00000  Uiso   1.00
C1017  C     0.72324   0.59849   0.36221   0.00000  Uiso   1.00
C1018  C     0.88411   0.34010   0.37864   0.00000  Uiso   1.00
C1019  C     0.40527   0.76686   0.39422   0.00000  Uiso   1.00
C1020  C     0.47649   0.75452   0.43102   0.00000  Uiso   1.00
C1021  C     0.58595   0.70505   0.48960   0.00000  Uiso   1.00
C1022  C     0.80500   0.39968   0.31532   0.00000  Uiso   1.00
C1023  C     0.75965   0.37653   0.27766   0.00000  Uiso   1.00
C1024  C     0.76427   0.41433   0.26115   0.00000  Uiso   1.00
C1025  C     0.75089   0.45736   0.22142   0.00000  Uiso   1.00
C1026  C     0.89776   0.47448   0.37655   0.00000  Uiso   1.00
C1027  C     0.84674   0.49181   0.36901   0.00000  Uiso   1.00
C1028  C     0.84594   0.55768   0.38050   0.00000  Uiso   1.00
C1029  C     0.79510   0.56265   0.37080   0.00000  Uiso   1.00
C1030  C     0.93238   0.39892   0.39909   0.00000  Uiso   1.00
C1031  C     0.00358   0.38667   0.43587   0.00000  Uiso   1.00
C1032  C     0.52484   0.81344   0.45150   0.00000  Uiso   1.00
C1033  C     0.85326   0.45850   0.33577   0.00000  Uiso   1.00
C1034  C     0.85796   0.49634   0.31932   0.00000  Uiso   1.00
C1035  C     0.81262   0.47325   0.28164   0.00000  Uiso   1.00
H1036  H     0.27132   0.82040   0.32298   0.00000  Uiso   1.00
H1037  H     0.71029   0.39234   0.32302   0.00000  Uiso   1.00
H1038  H     0.36791   0.72136   0.37838   0.00000  Uiso   1.00
H1039  H     0.72231   0.33101   0.26184   0.00000  Uiso   1.00
H1040  H     0.66392   0.49802   0.33209   0.00000  Uiso   1.00
H1041  H     0.49627   0.63750   0.44882   0.00000  Uiso   1.00
H1042  H     0.68925   0.36871   0.20307   0.00000  Uiso   1.00
H1043  H     0.93533   0.52027   0.39248   0.00000  Uiso   1.00
H1044  H     0.88330   0.60319   0.39632   0.00000  Uiso   1.00
H1045  H     0.04092   0.43220   0.45169   0.00000  Uiso   1.00
H1046  H     0.89532   0.54185   0.33515   0.00000  Uiso   1.00
H1047  H     0.80434   0.66915   0.39159   0.00000  Uiso   1.00
H1048  H     0.63670   0.80863   0.50832   0.00000  Uiso   1.00
H1049  H     0.82967   0.53984   0.26258   0.00000  Uiso   1.00
O1050  O     0.69695   0.63451   0.36312   0.00000  Uiso   1.00
O1051  O     0.63299   0.66152   0.51627   0.00000  Uiso   1.00
O1052  O     0.73017   0.46486   0.19386   0.00000  Uiso   1.00
N1053  N     0.70410   0.52692   0.34555   0.00000  Uiso   1.00
N1054  N     0.51483   0.68986   0.45470   0.00000  Uiso   1.00
N1055  N     0.72780   0.40601   0.22495   0.00000  Uiso   1.00
N1056  N     0.77966   0.61901   0.37757   0.00000  Uiso   1.00
N1057  N     0.59039   0.78195   0.48672   0.00000  Uiso   1.00
N1058  N     0.80336   0.49810   0.25697   0.00000  Uiso   1.00
C1059  C     0.01666   0.49210   0.31386   0.00000  Uiso   1.00
C1060  C     0.04801   0.52450   0.30944   0.00000  Uiso   1.00
C1061  C     0.04888   0.60092   0.30426   0.00000  Uiso   1.00
C1062  C     0.08006   0.61898   0.30082   0.00000  Uiso   1.00
C1063  C     0.12432   0.67787   0.29373   0.00000  Uiso   1.00
C1064  C     0.07526   0.44831   0.35316   0.00000  Uiso   1.00
C1065  C     0.09902   0.46068   0.38473   0.00000  Uiso   1.00
C1066  C     0.15314   0.41460   0.41809   0.00000  Uiso   1.00
C1067  C     0.23967   0.35518   0.47886   0.00000  Uiso   1.00
C1068  C     0.96362   0.43232   0.28111   0.00000  Uiso   1.00
C1069  C     0.89351   0.43123   0.25211   0.00000  Uiso   1.00
C1070  C     0.35364   0.87167   0.22482   0.00000  Uiso   1.00
C1071  C     0.26683   0.78743   0.17372   0.00000  Uiso   1.00
C1072  C     0.57050   0.88826   0.31697   0.00000  Uiso   1.00
C1073  C     0.57726   0.96809   0.31113   0.00000  Uiso   1.00
C1074  C     0.60845   0.98604   0.30770   0.00000  Uiso   1.00
C1075  C     0.10936   0.56248   0.30252   0.00000  Uiso   1.00
C1076  C     0.60450   0.89191   0.35485   0.00000  Uiso   1.00
C1077  C     0.65859   0.84580   0.38817   0.00000  Uiso   1.00
C1078  C     0.68244   0.85809   0.41979   0.00000  Uiso   1.00
C1079  C     0.49286   0.87592   0.28280   0.00000  Uiso   1.00
C1080  C     0.45309   0.81635   0.25555   0.00000  Uiso   1.00
C1081  C     0.38294   0.81517   0.22651   0.00000  Uiso   1.00
H1082  H     0.99390   0.53601   0.31254   0.00000  Uiso   1.00
H1083  H     0.02625   0.64456   0.30296   0.00000  Uiso   1.00
H1084  H     0.07638   0.50433   0.38341   0.00000  Uiso   1.00
H1085  H     0.87090   0.47489   0.25081   0.00000  Uiso   1.00
H1086  H     0.07503   0.74004   0.29309   0.00000  Uiso   1.00
H1087  H     0.18072   0.44434   0.46273   0.00000  Uiso   1.00
H1088  H     0.24744   0.88226   0.18311   0.00000  Uiso   1.00
H1089  H     0.59327   0.84434   0.31829   0.00000  Uiso   1.00
H1090  H     0.63107   0.94238   0.30901   0.00000  Uiso   1.00
H1091  H     0.68121   0.80215   0.38947   0.00000  Uiso   1.00
H1092  H     0.47573   0.77271   0.25687   0.00000  Uiso   1.00
H1093  H     0.66012   0.07594   0.29800   0.00000  Uiso   1.00
H1094  H     0.76581   0.78024   0.46764   0.00000  Uiso   1.00
H1095  H     0.33252   0.71816   0.18803   0.00000  Uiso   1.00
O1096  O     0.14067   0.72594   0.28935   0.00000  Uiso   1.00
O1097  O     0.27932   0.33799   0.51191   0.00000  Uiso   1.00
O1098  O     0.21086   0.75654   0.14506   0.00000  Uiso   1.00
N1099  N     0.08985   0.68796   0.29551   0.00000  Uiso   1.00
N1100  N     0.18868   0.41151   0.45412   0.00000  Uiso   1.00
N1101  N     0.28360   0.85346   0.19271   0.00000  Uiso   1.00
N1102  N     0.13564   0.59966   0.29815   0.00000  Uiso   1.00
N1103  N     0.73446   0.82321   0.45676   0.00000  Uiso   1.00
N1104  N     0.32938   0.76516   0.19535   0.00000  Uiso   1.00
