data_job_03757
_audit_creation_date              2018-12-19
_audit_creation_method            'Materials Studio'
_symmetry_space_group_name_H-M    'P1'
_symmetry_Int_Tables_number       1
_symmetry_cell_setting            triclinic
loop_
_symmetry_equiv_pos_as_xyz
  x,y,z
_cell_length_a                    37.0977
_cell_length_b                    41.3973
_cell_length_c                    7.3582
_cell_angle_alpha                 90.0000
_cell_angle_beta                  90.0000
_cell_angle_gamma                 90.0000
loop_
_atom_site_label
_atom_site_type_symbol
_atom_site_fract_x
_atom_site_fract_y
_atom_site_fract_z
_atom_site_U_iso_or_equiv
_atom_site_adp_type
_atom_site_occupancy
C1     C     0.25099   0.59487   0.62951   0.00000  Uiso   1.00
C2     C     0.22508   0.56855   0.69251   0.00000  Uiso   1.00
C3     C     0.20100   0.55189   0.58280   0.00000  Uiso   1.00
C4     C     0.17962   0.52871   0.66635   0.00000  Uiso   1.00
C5     C     0.13898   0.48881   0.73582   0.00000  Uiso   1.00
C6     C     0.24267   0.62446   0.74560   0.00000  Uiso   1.00
C7     C     0.23339   0.65480   0.68051   0.00000  Uiso   1.00
C8     C     0.22682   0.67869   0.80875   0.00000  Uiso   1.00
C9     C     0.21352   0.72560   0.96063   0.00000  Uiso   1.00
C10    C     0.28853   0.58370   0.68579   0.00000  Uiso   1.00
C11    C     0.31780   0.57978   0.57043   0.00000  Uiso   1.00
C12    C     0.34985   0.56935   0.64833   0.00000  Uiso   1.00
C13    C     0.40774   0.55297   0.70735   0.00000  Uiso   1.00
C14    C     0.25585   0.58334   0.97298   0.00000  Uiso   1.00
C15    C     0.22772   0.56229   0.87907   0.00000  Uiso   1.00
C16    C     0.20637   0.53913   0.96281   0.00000  Uiso   1.00
C17    C     0.18226   0.52243   0.85324   0.00000  Uiso   1.00
C18    C     0.24531   0.61820   0.93215   0.00000  Uiso   1.00
C19    C     0.23876   0.64205   0.06052   0.00000  Uiso   1.00
C20    C     0.22946   0.67242   0.99565   0.00000  Uiso   1.00
C21    C     0.29117   0.57743   0.87235   0.00000  Uiso   1.00
C22    C     0.32318   0.56702   0.95044   0.00000  Uiso   1.00
C23    C     0.35249   0.56308   0.83522   0.00000  Uiso   1.00
H24    H     0.24893   0.59975   0.48427   0.00000  Uiso   1.00
H25    H     0.19896   0.55674   0.43843   0.00000  Uiso   1.00
H26    H     0.23135   0.65964   0.53613   0.00000  Uiso   1.00
H27    H     0.31575   0.58462   0.42607   0.00000  Uiso   1.00
H28    H     0.14471   0.50631   0.46990   0.00000  Uiso   1.00
H29    H     0.21302   0.72329   0.67591   0.00000  Uiso   1.00
H30    H     0.39099   0.56510   0.44381   0.00000  Uiso   1.00
H31    H     0.25790   0.57846   0.11823   0.00000  Uiso   1.00
H32    H     0.20842   0.53429   0.10718   0.00000  Uiso   1.00
H33    H     0.24081   0.63719   0.20488   0.00000  Uiso   1.00
H34    H     0.32521   0.56217   0.09481   0.00000  Uiso   1.00
H35    H     0.15239   0.48809   0.01269   0.00000  Uiso   1.00
H36    H     0.22070   0.70507   0.21869   0.00000  Uiso   1.00
H37    H     0.39867   0.54687   0.98660   0.00000  Uiso   1.00
O38    O     0.11583   0.46853   0.72260   0.00000  Uiso   1.00
O39    O     0.20545   0.75320   0.99286   0.00000  Uiso   1.00
O40    O     0.43895   0.54565   0.68836   0.00000  Uiso   1.00
N41    N     0.15332   0.50808   0.59916   0.00000  Uiso   1.00
N42    N     0.21717   0.71094   0.79176   0.00000  Uiso   1.00
N43    N     0.38357   0.56305   0.57478   0.00000  Uiso   1.00
N44    N     0.15745   0.49827   0.89122   0.00000  Uiso   1.00
N45    N     0.22130   0.70113   0.08382   0.00000  Uiso   1.00
N46    N     0.38770   0.55325   0.86684   0.00000  Uiso   1.00
C47    C     0.25099   0.09487   0.12951   0.00000  Uiso   1.00
C48    C     0.22508   0.06855   0.19251   0.00000  Uiso   1.00
C49    C     0.20100   0.05189   0.08280   0.00000  Uiso   1.00
C50    C     0.17962   0.02871   0.16635   0.00000  Uiso   1.00
C51    C     0.13898   0.98881   0.23582   0.00000  Uiso   1.00
C52    C     0.24267   0.12446   0.24560   0.00000  Uiso   1.00
C53    C     0.23339   0.15480   0.18051   0.00000  Uiso   1.00
C54    C     0.22682   0.17869   0.30875   0.00000  Uiso   1.00
C55    C     0.21352   0.22560   0.46063   0.00000  Uiso   1.00
C56    C     0.28853   0.08370   0.18579   0.00000  Uiso   1.00
C57    C     0.31780   0.07978   0.07043   0.00000  Uiso   1.00
C58    C     0.34985   0.06935   0.14833   0.00000  Uiso   1.00
C59    C     0.40774   0.05297   0.20735   0.00000  Uiso   1.00
C60    C     0.25585   0.08334   0.47298   0.00000  Uiso   1.00
C61    C     0.22772   0.06229   0.37907   0.00000  Uiso   1.00
C62    C     0.20637   0.03913   0.46281   0.00000  Uiso   1.00
C63    C     0.18226   0.02243   0.35324   0.00000  Uiso   1.00
C64    C     0.24531   0.11820   0.43215   0.00000  Uiso   1.00
C65    C     0.23876   0.14205   0.56052   0.00000  Uiso   1.00
C66    C     0.22946   0.17242   0.49565   0.00000  Uiso   1.00
C67    C     0.29117   0.07743   0.37235   0.00000  Uiso   1.00
C68    C     0.32318   0.06702   0.45044   0.00000  Uiso   1.00
C69    C     0.35249   0.06308   0.33522   0.00000  Uiso   1.00
H70    H     0.24893   0.09975   0.98427   0.00000  Uiso   1.00
H71    H     0.19896   0.05674   0.93843   0.00000  Uiso   1.00
H72    H     0.23135   0.15964   0.03613   0.00000  Uiso   1.00
H73    H     0.31575   0.08462   0.92607   0.00000  Uiso   1.00
H74    H     0.14471   0.00631   0.96990   0.00000  Uiso   1.00
H75    H     0.21302   0.22329   0.17591   0.00000  Uiso   1.00
H76    H     0.39099   0.06510   0.94381   0.00000  Uiso   1.00
H77    H     0.25790   0.07846   0.61823   0.00000  Uiso   1.00
H78    H     0.20842   0.03429   0.60718   0.00000  Uiso   1.00
H79    H     0.24081   0.13719   0.70488   0.00000  Uiso   1.00
H80    H     0.32521   0.06217   0.59481   0.00000  Uiso   1.00
H81    H     0.15239   0.98809   0.51269   0.00000  Uiso   1.00
H82    H     0.22070   0.20507   0.71869   0.00000  Uiso   1.00
H83    H     0.39867   0.04687   0.48660   0.00000  Uiso   1.00
O84    O     0.11583   0.96853   0.22260   0.00000  Uiso   1.00
O85    O     0.20545   0.25320   0.49286   0.00000  Uiso   1.00
O86    O     0.43895   0.04565   0.18836   0.00000  Uiso   1.00
N87    N     0.15332   0.00808   0.09916   0.00000  Uiso   1.00
N88    N     0.21717   0.21094   0.29176   0.00000  Uiso   1.00
N89    N     0.38357   0.06305   0.07478   0.00000  Uiso   1.00
N90    N     0.15745   0.99827   0.39122   0.00000  Uiso   1.00
N91    N     0.22130   0.20113   0.58382   0.00000  Uiso   1.00
N92    N     0.38770   0.05325   0.36684   0.00000  Uiso   1.00
C93    C     0.75099   0.59487   0.12951   0.00000  Uiso   1.00
C94    C     0.72508   0.56855   0.19251   0.00000  Uiso   1.00
C95    C     0.70100   0.55189   0.08280   0.00000  Uiso   1.00
C96    C     0.67962   0.52871   0.16635   0.00000  Uiso   1.00
C97    C     0.63898   0.48881   0.23582   0.00000  Uiso   1.00
C98    C     0.74267   0.62446   0.24560   0.00000  Uiso   1.00
C99    C     0.73339   0.65480   0.18051   0.00000  Uiso   1.00
C100   C     0.72682   0.67869   0.30875   0.00000  Uiso   1.00
C101   C     0.71352   0.72560   0.46063   0.00000  Uiso   1.00
C102   C     0.78853   0.58370   0.18579   0.00000  Uiso   1.00
C103   C     0.81780   0.57978   0.07043   0.00000  Uiso   1.00
C104   C     0.84985   0.56935   0.14833   0.00000  Uiso   1.00
C105   C     0.90774   0.55297   0.20735   0.00000  Uiso   1.00
C106   C     0.75585   0.58334   0.47298   0.00000  Uiso   1.00
C107   C     0.72772   0.56229   0.37907   0.00000  Uiso   1.00
C108   C     0.70637   0.53913   0.46281   0.00000  Uiso   1.00
C109   C     0.68226   0.52243   0.35324   0.00000  Uiso   1.00
C110   C     0.74531   0.61820   0.43215   0.00000  Uiso   1.00
C111   C     0.73876   0.64205   0.56052   0.00000  Uiso   1.00
C112   C     0.72946   0.67242   0.49565   0.00000  Uiso   1.00
C113   C     0.79117   0.57743   0.37235   0.00000  Uiso   1.00
C114   C     0.82318   0.56702   0.45044   0.00000  Uiso   1.00
C115   C     0.85249   0.56308   0.33522   0.00000  Uiso   1.00
H116   H     0.74893   0.59975   0.98427   0.00000  Uiso   1.00
H117   H     0.69896   0.55674   0.93843   0.00000  Uiso   1.00
H118   H     0.73135   0.65964   0.03613   0.00000  Uiso   1.00
H119   H     0.81575   0.58462   0.92607   0.00000  Uiso   1.00
H120   H     0.64471   0.50631   0.96990   0.00000  Uiso   1.00
H121   H     0.71302   0.72329   0.17591   0.00000  Uiso   1.00
H122   H     0.89099   0.56510   0.94381   0.00000  Uiso   1.00
H123   H     0.75790   0.57846   0.61823   0.00000  Uiso   1.00
H124   H     0.70842   0.53429   0.60718   0.00000  Uiso   1.00
H125   H     0.74081   0.63719   0.70488   0.00000  Uiso   1.00
H126   H     0.82521   0.56217   0.59481   0.00000  Uiso   1.00
H127   H     0.65239   0.48809   0.51269   0.00000  Uiso   1.00
H128   H     0.72070   0.70507   0.71869   0.00000  Uiso   1.00
H129   H     0.89867   0.54687   0.48660   0.00000  Uiso   1.00
O130   O     0.61583   0.46853   0.22260   0.00000  Uiso   1.00
O131   O     0.70545   0.75320   0.49286   0.00000  Uiso   1.00
O132   O     0.93895   0.54565   0.18836   0.00000  Uiso   1.00
N133   N     0.65332   0.50808   0.09916   0.00000  Uiso   1.00
N134   N     0.71717   0.71094   0.29176   0.00000  Uiso   1.00
N135   N     0.88357   0.56305   0.07478   0.00000  Uiso   1.00
N136   N     0.65745   0.49827   0.39122   0.00000  Uiso   1.00
N137   N     0.72130   0.70113   0.58382   0.00000  Uiso   1.00
N138   N     0.88770   0.55325   0.36684   0.00000  Uiso   1.00
C139   C     0.75099   0.09487   0.62951   0.00000  Uiso   1.00
C140   C     0.72508   0.06855   0.69251   0.00000  Uiso   1.00
C141   C     0.70100   0.05189   0.58280   0.00000  Uiso   1.00
C142   C     0.67962   0.02871   0.66635   0.00000  Uiso   1.00
C143   C     0.63898   0.98881   0.73582   0.00000  Uiso   1.00
C144   C     0.74267   0.12446   0.74560   0.00000  Uiso   1.00
C145   C     0.73339   0.15480   0.68051   0.00000  Uiso   1.00
C146   C     0.72682   0.17869   0.80875   0.00000  Uiso   1.00
C147   C     0.71352   0.22560   0.96063   0.00000  Uiso   1.00
C148   C     0.78853   0.08370   0.68579   0.00000  Uiso   1.00
C149   C     0.81780   0.07978   0.57043   0.00000  Uiso   1.00
C150   C     0.84985   0.06935   0.64833   0.00000  Uiso   1.00
C151   C     0.90774   0.05297   0.70735   0.00000  Uiso   1.00
C152   C     0.75585   0.08334   0.97298   0.00000  Uiso   1.00
C153   C     0.72772   0.06229   0.87907   0.00000  Uiso   1.00
C154   C     0.70637   0.03913   0.96281   0.00000  Uiso   1.00
C155   C     0.68226   0.02243   0.85324   0.00000  Uiso   1.00
C156   C     0.74531   0.11820   0.93215   0.00000  Uiso   1.00
C157   C     0.73876   0.14205   0.06052   0.00000  Uiso   1.00
C158   C     0.72946   0.17242   0.99565   0.00000  Uiso   1.00
C159   C     0.79117   0.07743   0.87235   0.00000  Uiso   1.00
C160   C     0.82318   0.06702   0.95044   0.00000  Uiso   1.00
C161   C     0.85249   0.06308   0.83522   0.00000  Uiso   1.00
H162   H     0.74893   0.09975   0.48427   0.00000  Uiso   1.00
H163   H     0.69896   0.05674   0.43843   0.00000  Uiso   1.00
H164   H     0.73135   0.15964   0.53613   0.00000  Uiso   1.00
H165   H     0.81575   0.08462   0.42607   0.00000  Uiso   1.00
H166   H     0.64471   0.00631   0.46990   0.00000  Uiso   1.00
H167   H     0.71302   0.22329   0.67591   0.00000  Uiso   1.00
H168   H     0.89099   0.06510   0.44381   0.00000  Uiso   1.00
H169   H     0.75790   0.07846   0.11823   0.00000  Uiso   1.00
H170   H     0.70842   0.03429   0.10718   0.00000  Uiso   1.00
H171   H     0.74081   0.13719   0.20488   0.00000  Uiso   1.00
H172   H     0.82521   0.06217   0.09481   0.00000  Uiso   1.00
H173   H     0.65239   0.98809   0.01269   0.00000  Uiso   1.00
H174   H     0.72070   0.20507   0.21869   0.00000  Uiso   1.00
H175   H     0.89867   0.04687   0.98660   0.00000  Uiso   1.00
O176   O     0.61583   0.96853   0.72260   0.00000  Uiso   1.00
O177   O     0.70545   0.25320   0.99286   0.00000  Uiso   1.00
O178   O     0.93895   0.04565   0.68836   0.00000  Uiso   1.00
N179   N     0.65332   0.00808   0.59916   0.00000  Uiso   1.00
N180   N     0.71717   0.21094   0.79176   0.00000  Uiso   1.00
N181   N     0.88357   0.06305   0.57478   0.00000  Uiso   1.00
N182   N     0.65745   0.99827   0.89122   0.00000  Uiso   1.00
N183   N     0.72130   0.20113   0.08382   0.00000  Uiso   1.00
N184   N     0.88770   0.05325   0.86684   0.00000  Uiso   1.00
C185   C     0.74901   0.40513   0.62951   0.00000  Uiso   1.00
C186   C     0.77492   0.43145   0.69251   0.00000  Uiso   1.00
C187   C     0.79900   0.44811   0.58280   0.00000  Uiso   1.00
C188   C     0.82038   0.47129   0.66635   0.00000  Uiso   1.00
C189   C     0.86102   0.51119   0.73582   0.00000  Uiso   1.00
C190   C     0.75733   0.37554   0.74560   0.00000  Uiso   1.00
C191   C     0.76661   0.34520   0.68051   0.00000  Uiso   1.00
C192   C     0.77318   0.32131   0.80875   0.00000  Uiso   1.00
C193   C     0.78648   0.27440   0.96063   0.00000  Uiso   1.00
C194   C     0.71147   0.41630   0.68579   0.00000  Uiso   1.00
C195   C     0.68220   0.42022   0.57043   0.00000  Uiso   1.00
C196   C     0.65015   0.43065   0.64833   0.00000  Uiso   1.00
C197   C     0.59226   0.44703   0.70735   0.00000  Uiso   1.00
C198   C     0.74415   0.41666   0.97298   0.00000  Uiso   1.00
C199   C     0.77228   0.43771   0.87907   0.00000  Uiso   1.00
C200   C     0.79363   0.46087   0.96281   0.00000  Uiso   1.00
C201   C     0.81774   0.47757   0.85324   0.00000  Uiso   1.00
C202   C     0.75469   0.38180   0.93215   0.00000  Uiso   1.00
C203   C     0.76124   0.35795   0.06052   0.00000  Uiso   1.00
C204   C     0.77054   0.32758   0.99565   0.00000  Uiso   1.00
C205   C     0.70883   0.42257   0.87235   0.00000  Uiso   1.00
C206   C     0.67682   0.43298   0.95044   0.00000  Uiso   1.00
C207   C     0.64751   0.43692   0.83522   0.00000  Uiso   1.00
H208   H     0.75107   0.40025   0.48427   0.00000  Uiso   1.00
H209   H     0.80104   0.44326   0.43843   0.00000  Uiso   1.00
H210   H     0.76865   0.34036   0.53613   0.00000  Uiso   1.00
H211   H     0.68425   0.41538   0.42607   0.00000  Uiso   1.00
H212   H     0.85529   0.49369   0.46990   0.00000  Uiso   1.00
H213   H     0.78698   0.27671   0.67591   0.00000  Uiso   1.00
H214   H     0.60901   0.43490   0.44381   0.00000  Uiso   1.00
H215   H     0.74210   0.42154   0.11823   0.00000  Uiso   1.00
H216   H     0.79158   0.46571   0.10718   0.00000  Uiso   1.00
H217   H     0.75919   0.36281   0.20488   0.00000  Uiso   1.00
H218   H     0.67479   0.43783   0.09481   0.00000  Uiso   1.00
H219   H     0.84761   0.51191   0.01269   0.00000  Uiso   1.00
H220   H     0.77930   0.29493   0.21869   0.00000  Uiso   1.00
H221   H     0.60133   0.45313   0.98660   0.00000  Uiso   1.00
O222   O     0.88417   0.53147   0.72260   0.00000  Uiso   1.00
O223   O     0.79455   0.24680   0.99286   0.00000  Uiso   1.00
O224   O     0.56105   0.45435   0.68836   0.00000  Uiso   1.00
N225   N     0.84668   0.49192   0.59916   0.00000  Uiso   1.00
N226   N     0.78283   0.28906   0.79176   0.00000  Uiso   1.00
N227   N     0.61643   0.43695   0.57478   0.00000  Uiso   1.00
N228   N     0.84255   0.50173   0.89122   0.00000  Uiso   1.00
N229   N     0.77870   0.29887   0.08382   0.00000  Uiso   1.00
N230   N     0.61230   0.44675   0.86684   0.00000  Uiso   1.00
C231   C     0.74901   0.90513   0.12951   0.00000  Uiso   1.00
C232   C     0.77492   0.93145   0.19251   0.00000  Uiso   1.00
C233   C     0.79900   0.94811   0.08280   0.00000  Uiso   1.00
C234   C     0.82038   0.97129   0.16635   0.00000  Uiso   1.00
C235   C     0.86102   0.01119   0.23582   0.00000  Uiso   1.00
C236   C     0.75733   0.87554   0.24560   0.00000  Uiso   1.00
C237   C     0.76661   0.84520   0.18051   0.00000  Uiso   1.00
C238   C     0.77318   0.82131   0.30875   0.00000  Uiso   1.00
C239   C     0.78648   0.77440   0.46063   0.00000  Uiso   1.00
C240   C     0.71147   0.91630   0.18579   0.00000  Uiso   1.00
C241   C     0.68220   0.92022   0.07043   0.00000  Uiso   1.00
C242   C     0.65015   0.93065   0.14833   0.00000  Uiso   1.00
C243   C     0.59226   0.94703   0.20735   0.00000  Uiso   1.00
C244   C     0.74415   0.91666   0.47298   0.00000  Uiso   1.00
C245   C     0.77228   0.93771   0.37907   0.00000  Uiso   1.00
C246   C     0.79363   0.96087   0.46281   0.00000  Uiso   1.00
C247   C     0.81774   0.97757   0.35324   0.00000  Uiso   1.00
C248   C     0.75469   0.88180   0.43215   0.00000  Uiso   1.00
C249   C     0.76124   0.85795   0.56052   0.00000  Uiso   1.00
C250   C     0.77054   0.82758   0.49565   0.00000  Uiso   1.00
C251   C     0.70883   0.92257   0.37235   0.00000  Uiso   1.00
C252   C     0.67682   0.93298   0.45044   0.00000  Uiso   1.00
C253   C     0.64751   0.93692   0.33522   0.00000  Uiso   1.00
H254   H     0.75107   0.90025   0.98427   0.00000  Uiso   1.00
H255   H     0.80104   0.94326   0.93843   0.00000  Uiso   1.00
H256   H     0.76865   0.84036   0.03613   0.00000  Uiso   1.00
H257   H     0.68425   0.91538   0.92607   0.00000  Uiso   1.00
H258   H     0.85529   0.99369   0.96990   0.00000  Uiso   1.00
H259   H     0.78698   0.77671   0.17591   0.00000  Uiso   1.00
H260   H     0.60901   0.93490   0.94381   0.00000  Uiso   1.00
H261   H     0.74210   0.92154   0.61823   0.00000  Uiso   1.00
H262   H     0.79158   0.96571   0.60718   0.00000  Uiso   1.00
H263   H     0.75919   0.86281   0.70488   0.00000  Uiso   1.00
H264   H     0.67479   0.93783   0.59481   0.00000  Uiso   1.00
H265   H     0.84761   0.01191   0.51269   0.00000  Uiso   1.00
H266   H     0.77930   0.79493   0.71869   0.00000  Uiso   1.00
H267   H     0.60133   0.95313   0.48660   0.00000  Uiso   1.00
O268   O     0.88417   0.03147   0.22260   0.00000  Uiso   1.00
O269   O     0.79455   0.74680   0.49286   0.00000  Uiso   1.00
O270   O     0.56105   0.95435   0.18836   0.00000  Uiso   1.00
N271   N     0.84668   0.99192   0.09916   0.00000  Uiso   1.00
N272   N     0.78283   0.78906   0.29176   0.00000  Uiso   1.00
N273   N     0.61643   0.93695   0.07478   0.00000  Uiso   1.00
N274   N     0.84255   0.00173   0.39122   0.00000  Uiso   1.00
N275   N     0.77870   0.79887   0.58382   0.00000  Uiso   1.00
N276   N     0.61230   0.94675   0.36684   0.00000  Uiso   1.00
C277   C     0.24901   0.40513   0.12951   0.00000  Uiso   1.00
C278   C     0.27492   0.43145   0.19251   0.00000  Uiso   1.00
C279   C     0.29900   0.44811   0.08280   0.00000  Uiso   1.00
C280   C     0.32038   0.47129   0.16635   0.00000  Uiso   1.00
C281   C     0.36102   0.51119   0.23582   0.00000  Uiso   1.00
C282   C     0.25733   0.37554   0.24560   0.00000  Uiso   1.00
C283   C     0.26661   0.34520   0.18051   0.00000  Uiso   1.00
C284   C     0.27318   0.32131   0.30875   0.00000  Uiso   1.00
C285   C     0.28648   0.27440   0.46063   0.00000  Uiso   1.00
C286   C     0.21147   0.41630   0.18579   0.00000  Uiso   1.00
C287   C     0.18220   0.42022   0.07043   0.00000  Uiso   1.00
C288   C     0.15015   0.43065   0.14833   0.00000  Uiso   1.00
C289   C     0.09226   0.44703   0.20735   0.00000  Uiso   1.00
C290   C     0.24415   0.41666   0.47298   0.00000  Uiso   1.00
C291   C     0.27228   0.43771   0.37907   0.00000  Uiso   1.00
C292   C     0.29363   0.46087   0.46281   0.00000  Uiso   1.00
C293   C     0.31774   0.47757   0.35324   0.00000  Uiso   1.00
C294   C     0.25469   0.38180   0.43215   0.00000  Uiso   1.00
C295   C     0.26124   0.35795   0.56052   0.00000  Uiso   1.00
C296   C     0.27054   0.32758   0.49565   0.00000  Uiso   1.00
C297   C     0.20883   0.42257   0.37235   0.00000  Uiso   1.00
C298   C     0.17682   0.43298   0.45044   0.00000  Uiso   1.00
C299   C     0.14751   0.43692   0.33522   0.00000  Uiso   1.00
H300   H     0.25107   0.40025   0.98427   0.00000  Uiso   1.00
H301   H     0.30104   0.44326   0.93843   0.00000  Uiso   1.00
H302   H     0.26865   0.34036   0.03613   0.00000  Uiso   1.00
H303   H     0.18425   0.41538   0.92607   0.00000  Uiso   1.00
H304   H     0.35529   0.49369   0.96990   0.00000  Uiso   1.00
H305   H     0.28698   0.27671   0.17591   0.00000  Uiso   1.00
H306   H     0.10901   0.43490   0.94381   0.00000  Uiso   1.00
H307   H     0.24210   0.42154   0.61823   0.00000  Uiso   1.00
H308   H     0.29158   0.46571   0.60718   0.00000  Uiso   1.00
H309   H     0.25919   0.36281   0.70488   0.00000  Uiso   1.00
H310   H     0.17479   0.43783   0.59481   0.00000  Uiso   1.00
H311   H     0.34761   0.51191   0.51269   0.00000  Uiso   1.00
H312   H     0.27930   0.29493   0.71869   0.00000  Uiso   1.00
H313   H     0.10133   0.45313   0.48660   0.00000  Uiso   1.00
O314   O     0.38417   0.53147   0.22260   0.00000  Uiso   1.00
O315   O     0.29455   0.24680   0.49286   0.00000  Uiso   1.00
O316   O     0.06105   0.45435   0.18836   0.00000  Uiso   1.00
N317   N     0.34668   0.49192   0.09916   0.00000  Uiso   1.00
N318   N     0.28283   0.28906   0.29176   0.00000  Uiso   1.00
N319   N     0.11643   0.43695   0.07478   0.00000  Uiso   1.00
N320   N     0.34255   0.50173   0.39122   0.00000  Uiso   1.00
N321   N     0.27870   0.29887   0.58382   0.00000  Uiso   1.00
N322   N     0.11230   0.44675   0.36684   0.00000  Uiso   1.00
C323   C     0.24901   0.90513   0.62951   0.00000  Uiso   1.00
C324   C     0.27492   0.93145   0.69251   0.00000  Uiso   1.00
C325   C     0.29900   0.94811   0.58280   0.00000  Uiso   1.00
C326   C     0.32038   0.97129   0.66635   0.00000  Uiso   1.00
C327   C     0.36102   0.01119   0.73582   0.00000  Uiso   1.00
C328   C     0.25733   0.87554   0.74560   0.00000  Uiso   1.00
C329   C     0.26661   0.84520   0.68051   0.00000  Uiso   1.00
C330   C     0.27318   0.82131   0.80875   0.00000  Uiso   1.00
C331   C     0.28648   0.77440   0.96063   0.00000  Uiso   1.00
C332   C     0.21147   0.91630   0.68579   0.00000  Uiso   1.00
C333   C     0.18220   0.92022   0.57043   0.00000  Uiso   1.00
C334   C     0.15015   0.93065   0.64833   0.00000  Uiso   1.00
C335   C     0.09226   0.94703   0.70735   0.00000  Uiso   1.00
C336   C     0.24415   0.91666   0.97298   0.00000  Uiso   1.00
C337   C     0.27228   0.93771   0.87907   0.00000  Uiso   1.00
C338   C     0.29363   0.96087   0.96281   0.00000  Uiso   1.00
C339   C     0.31774   0.97757   0.85324   0.00000  Uiso   1.00
C340   C     0.25469   0.88180   0.93215   0.00000  Uiso   1.00
C341   C     0.26124   0.85795   0.06052   0.00000  Uiso   1.00
C342   C     0.27054   0.82758   0.99565   0.00000  Uiso   1.00
C343   C     0.20883   0.92257   0.87235   0.00000  Uiso   1.00
C344   C     0.17682   0.93298   0.95044   0.00000  Uiso   1.00
C345   C     0.14751   0.93692   0.83522   0.00000  Uiso   1.00
H346   H     0.25107   0.90025   0.48427   0.00000  Uiso   1.00
H347   H     0.30104   0.94326   0.43843   0.00000  Uiso   1.00
H348   H     0.26865   0.84036   0.53613   0.00000  Uiso   1.00
H349   H     0.18425   0.91538   0.42607   0.00000  Uiso   1.00
H350   H     0.35529   0.99369   0.46990   0.00000  Uiso   1.00
H351   H     0.28698   0.77671   0.67591   0.00000  Uiso   1.00
H352   H     0.10901   0.93490   0.44381   0.00000  Uiso   1.00
H353   H     0.24210   0.92154   0.11823   0.00000  Uiso   1.00
H354   H     0.29158   0.96571   0.10718   0.00000  Uiso   1.00
H355   H     0.25919   0.86281   0.20488   0.00000  Uiso   1.00
H356   H     0.17479   0.93783   0.09481   0.00000  Uiso   1.00
H357   H     0.34761   0.01191   0.01269   0.00000  Uiso   1.00
H358   H     0.27930   0.79493   0.21869   0.00000  Uiso   1.00
H359   H     0.10133   0.95313   0.98660   0.00000  Uiso   1.00
O360   O     0.38417   0.03147   0.72260   0.00000  Uiso   1.00
O361   O     0.29455   0.74680   0.99286   0.00000  Uiso   1.00
O362   O     0.06105   0.95435   0.68836   0.00000  Uiso   1.00
N363   N     0.34668   0.99192   0.59916   0.00000  Uiso   1.00
N364   N     0.28283   0.78906   0.79176   0.00000  Uiso   1.00
N365   N     0.11643   0.93695   0.57478   0.00000  Uiso   1.00
N366   N     0.34255   0.00173   0.89122   0.00000  Uiso   1.00
N367   N     0.27870   0.79887   0.08382   0.00000  Uiso   1.00
N368   N     0.11230   0.94675   0.86684   0.00000  Uiso   1.00
C369   C     0.50099   0.65513   0.87951   0.00000  Uiso   1.00
C370   C     0.47508   0.68145   0.94251   0.00000  Uiso   1.00
C371   C     0.45100   0.69811   0.83280   0.00000  Uiso   1.00
C372   C     0.42962   0.72129   0.91635   0.00000  Uiso   1.00
C373   C     0.38898   0.76119   0.98582   0.00000  Uiso   1.00
C374   C     0.49267   0.62554   0.99560   0.00000  Uiso   1.00
C375   C     0.48339   0.59520   0.93051   0.00000  Uiso   1.00
C376   C     0.47682   0.57131   0.05875   0.00000  Uiso   1.00
C377   C     0.46352   0.52440   0.21063   0.00000  Uiso   1.00
C378   C     0.53853   0.66630   0.93579   0.00000  Uiso   1.00
C379   C     0.56780   0.67022   0.82043   0.00000  Uiso   1.00
C380   C     0.59985   0.68065   0.89833   0.00000  Uiso   1.00
C381   C     0.65774   0.69703   0.95735   0.00000  Uiso   1.00
C382   C     0.50585   0.66666   0.22298   0.00000  Uiso   1.00
C383   C     0.47772   0.68771   0.12907   0.00000  Uiso   1.00
C384   C     0.45637   0.71087   0.21281   0.00000  Uiso   1.00
C385   C     0.43226   0.72757   0.10324   0.00000  Uiso   1.00
C386   C     0.49531   0.63180   0.18215   0.00000  Uiso   1.00
C387   C     0.48876   0.60795   0.31052   0.00000  Uiso   1.00
C388   C     0.47946   0.57758   0.24565   0.00000  Uiso   1.00
C389   C     0.54117   0.67257   0.12235   0.00000  Uiso   1.00
C390   C     0.57318   0.68298   0.20044   0.00000  Uiso   1.00
C391   C     0.60249   0.68692   0.08522   0.00000  Uiso   1.00
H392   H     0.49893   0.65025   0.73427   0.00000  Uiso   1.00
H393   H     0.44896   0.69326   0.68843   0.00000  Uiso   1.00
H394   H     0.48135   0.59036   0.78613   0.00000  Uiso   1.00
H395   H     0.56575   0.66538   0.67607   0.00000  Uiso   1.00
H396   H     0.39471   0.74369   0.71990   0.00000  Uiso   1.00
H397   H     0.46302   0.52671   0.92591   0.00000  Uiso   1.00
H398   H     0.64099   0.68490   0.69381   0.00000  Uiso   1.00
H399   H     0.50790   0.67154   0.36823   0.00000  Uiso   1.00
H400   H     0.45842   0.71571   0.35718   0.00000  Uiso   1.00
H401   H     0.49081   0.61281   0.45488   0.00000  Uiso   1.00
H402   H     0.57521   0.68783   0.34481   0.00000  Uiso   1.00
H403   H     0.40239   0.76191   0.26269   0.00000  Uiso   1.00
H404   H     0.47070   0.54493   0.46869   0.00000  Uiso   1.00
H405   H     0.64867   0.70313   0.23660   0.00000  Uiso   1.00
O406   O     0.36583   0.78147   0.97260   0.00000  Uiso   1.00
O407   O     0.45545   0.49680   0.24286   0.00000  Uiso   1.00
O408   O     0.68895   0.70435   0.93836   0.00000  Uiso   1.00
N409   N     0.40332   0.74192   0.84916   0.00000  Uiso   1.00
N410   N     0.46717   0.53906   0.04176   0.00000  Uiso   1.00
N411   N     0.63357   0.68695   0.82478   0.00000  Uiso   1.00
N412   N     0.40745   0.75173   0.14122   0.00000  Uiso   1.00
N413   N     0.47130   0.54887   0.33382   0.00000  Uiso   1.00
N414   N     0.63770   0.69675   0.11684   0.00000  Uiso   1.00
C415   C     0.50099   0.15513   0.37951   0.00000  Uiso   1.00
C416   C     0.47508   0.18145   0.44251   0.00000  Uiso   1.00
C417   C     0.45100   0.19811   0.33280   0.00000  Uiso   1.00
C418   C     0.42962   0.22129   0.41635   0.00000  Uiso   1.00
C419   C     0.38898   0.26119   0.48582   0.00000  Uiso   1.00
C420   C     0.49267   0.12554   0.49560   0.00000  Uiso   1.00
C421   C     0.48339   0.09520   0.43051   0.00000  Uiso   1.00
C422   C     0.47682   0.07131   0.55875   0.00000  Uiso   1.00
C423   C     0.46352   0.02440   0.71063   0.00000  Uiso   1.00
C424   C     0.53853   0.16630   0.43579   0.00000  Uiso   1.00
C425   C     0.56780   0.17022   0.32043   0.00000  Uiso   1.00
C426   C     0.59985   0.18065   0.39833   0.00000  Uiso   1.00
C427   C     0.65774   0.19703   0.45735   0.00000  Uiso   1.00
C428   C     0.50585   0.16666   0.72298   0.00000  Uiso   1.00
C429   C     0.47772   0.18771   0.62907   0.00000  Uiso   1.00
C430   C     0.45637   0.21087   0.71281   0.00000  Uiso   1.00
C431   C     0.43226   0.22757   0.60324   0.00000  Uiso   1.00
C432   C     0.49531   0.13180   0.68215   0.00000  Uiso   1.00
C433   C     0.48876   0.10795   0.81052   0.00000  Uiso   1.00
C434   C     0.47946   0.07758   0.74565   0.00000  Uiso   1.00
C435   C     0.54117   0.17257   0.62235   0.00000  Uiso   1.00
C436   C     0.57318   0.18298   0.70044   0.00000  Uiso   1.00
C437   C     0.60249   0.18692   0.58522   0.00000  Uiso   1.00
H438   H     0.49893   0.15025   0.23427   0.00000  Uiso   1.00
H439   H     0.44896   0.19326   0.18843   0.00000  Uiso   1.00
H440   H     0.48135   0.09036   0.28613   0.00000  Uiso   1.00
H441   H     0.56575   0.16538   0.17607   0.00000  Uiso   1.00
H442   H     0.39471   0.24369   0.21990   0.00000  Uiso   1.00
H443   H     0.46302   0.02671   0.42591   0.00000  Uiso   1.00
H444   H     0.64099   0.18490   0.19381   0.00000  Uiso   1.00
H445   H     0.50790   0.17154   0.86823   0.00000  Uiso   1.00
H446   H     0.45842   0.21571   0.85718   0.00000  Uiso   1.00
H447   H     0.49081   0.11281   0.95488   0.00000  Uiso   1.00
H448   H     0.57521   0.18783   0.84481   0.00000  Uiso   1.00
H449   H     0.40239   0.26191   0.76269   0.00000  Uiso   1.00
H450   H     0.47070   0.04493   0.96869   0.00000  Uiso   1.00
H451   H     0.64867   0.20313   0.73660   0.00000  Uiso   1.00
O452   O     0.36583   0.28147   0.47260   0.00000  Uiso   1.00
O453   O     0.45545   0.99680   0.74286   0.00000  Uiso   1.00
O454   O     0.68895   0.20435   0.43836   0.00000  Uiso   1.00
N455   N     0.40332   0.24192   0.34916   0.00000  Uiso   1.00
N456   N     0.46717   0.03906   0.54176   0.00000  Uiso   1.00
N457   N     0.63357   0.18695   0.32478   0.00000  Uiso   1.00
N458   N     0.40745   0.25173   0.64122   0.00000  Uiso   1.00
N459   N     0.47130   0.04887   0.83382   0.00000  Uiso   1.00
N460   N     0.63770   0.19675   0.61684   0.00000  Uiso   1.00
C461   C     0.00099   0.65513   0.37951   0.00000  Uiso   1.00
C462   C     0.97508   0.68145   0.44251   0.00000  Uiso   1.00
C463   C     0.95100   0.69811   0.33280   0.00000  Uiso   1.00
C464   C     0.92962   0.72129   0.41635   0.00000  Uiso   1.00
C465   C     0.88898   0.76119   0.48582   0.00000  Uiso   1.00
C466   C     0.99267   0.62554   0.49560   0.00000  Uiso   1.00
C467   C     0.98339   0.59520   0.43051   0.00000  Uiso   1.00
C468   C     0.97682   0.57131   0.55875   0.00000  Uiso   1.00
C469   C     0.96352   0.52440   0.71063   0.00000  Uiso   1.00
C470   C     0.03853   0.66630   0.43579   0.00000  Uiso   1.00
C471   C     0.06780   0.67022   0.32043   0.00000  Uiso   1.00
C472   C     0.09985   0.68065   0.39833   0.00000  Uiso   1.00
C473   C     0.15774   0.69703   0.45735   0.00000  Uiso   1.00
C474   C     0.00585   0.66666   0.72298   0.00000  Uiso   1.00
C475   C     0.97772   0.68771   0.62907   0.00000  Uiso   1.00
C476   C     0.95637   0.71087   0.71281   0.00000  Uiso   1.00
C477   C     0.93226   0.72757   0.60324   0.00000  Uiso   1.00
C478   C     0.99531   0.63180   0.68215   0.00000  Uiso   1.00
C479   C     0.98876   0.60795   0.81052   0.00000  Uiso   1.00
C480   C     0.97946   0.57758   0.74565   0.00000  Uiso   1.00
C481   C     0.04117   0.67257   0.62235   0.00000  Uiso   1.00
C482   C     0.07318   0.68298   0.70044   0.00000  Uiso   1.00
C483   C     0.10249   0.68692   0.58522   0.00000  Uiso   1.00
H484   H     0.99893   0.65025   0.23427   0.00000  Uiso   1.00
H485   H     0.94896   0.69326   0.18843   0.00000  Uiso   1.00
H486   H     0.98135   0.59036   0.28613   0.00000  Uiso   1.00
H487   H     0.06575   0.66538   0.17607   0.00000  Uiso   1.00
H488   H     0.89471   0.74369   0.21990   0.00000  Uiso   1.00
H489   H     0.96302   0.52671   0.42591   0.00000  Uiso   1.00
H490   H     0.14099   0.68490   0.19381   0.00000  Uiso   1.00
H491   H     0.00790   0.67154   0.86823   0.00000  Uiso   1.00
H492   H     0.95842   0.71571   0.85718   0.00000  Uiso   1.00
H493   H     0.99081   0.61281   0.95488   0.00000  Uiso   1.00
H494   H     0.07521   0.68783   0.84481   0.00000  Uiso   1.00
H495   H     0.90239   0.76191   0.76269   0.00000  Uiso   1.00
H496   H     0.97070   0.54493   0.96869   0.00000  Uiso   1.00
H497   H     0.14867   0.70313   0.73660   0.00000  Uiso   1.00
O498   O     0.86583   0.78147   0.47260   0.00000  Uiso   1.00
O499   O     0.95545   0.49680   0.74286   0.00000  Uiso   1.00
O500   O     0.18895   0.70435   0.43836   0.00000  Uiso   1.00
N501   N     0.90332   0.74192   0.34916   0.00000  Uiso   1.00
N502   N     0.96717   0.53906   0.54176   0.00000  Uiso   1.00
N503   N     0.13357   0.68695   0.32478   0.00000  Uiso   1.00
N504   N     0.90745   0.75173   0.64122   0.00000  Uiso   1.00
N505   N     0.97130   0.54887   0.83382   0.00000  Uiso   1.00
N506   N     0.13770   0.69675   0.61684   0.00000  Uiso   1.00
C507   C     0.00099   0.15513   0.87951   0.00000  Uiso   1.00
C508   C     0.97508   0.18145   0.94251   0.00000  Uiso   1.00
C509   C     0.95100   0.19811   0.83280   0.00000  Uiso   1.00
C510   C     0.92962   0.22129   0.91635   0.00000  Uiso   1.00
C511   C     0.88898   0.26119   0.98582   0.00000  Uiso   1.00
C512   C     0.99267   0.12554   0.99560   0.00000  Uiso   1.00
C513   C     0.98339   0.09520   0.93051   0.00000  Uiso   1.00
C514   C     0.97682   0.07131   0.05875   0.00000  Uiso   1.00
C515   C     0.96352   0.02440   0.21063   0.00000  Uiso   1.00
C516   C     0.03853   0.16630   0.93579   0.00000  Uiso   1.00
C517   C     0.06780   0.17022   0.82043   0.00000  Uiso   1.00
C518   C     0.09985   0.18065   0.89833   0.00000  Uiso   1.00
C519   C     0.15774   0.19703   0.95735   0.00000  Uiso   1.00
C520   C     0.00585   0.16666   0.22298   0.00000  Uiso   1.00
C521   C     0.97772   0.18771   0.12907   0.00000  Uiso   1.00
C522   C     0.95637   0.21087   0.21281   0.00000  Uiso   1.00
C523   C     0.93226   0.22757   0.10324   0.00000  Uiso   1.00
C524   C     0.99531   0.13180   0.18215   0.00000  Uiso   1.00
C525   C     0.98876   0.10795   0.31052   0.00000  Uiso   1.00
C526   C     0.97946   0.07758   0.24565   0.00000  Uiso   1.00
C527   C     0.04117   0.17257   0.12235   0.00000  Uiso   1.00
C528   C     0.07318   0.18298   0.20044   0.00000  Uiso   1.00
C529   C     0.10249   0.18692   0.08522   0.00000  Uiso   1.00
H530   H     0.99893   0.15025   0.73427   0.00000  Uiso   1.00
H531   H     0.94896   0.19326   0.68843   0.00000  Uiso   1.00
H532   H     0.98135   0.09036   0.78613   0.00000  Uiso   1.00
H533   H     0.06575   0.16538   0.67607   0.00000  Uiso   1.00
H534   H     0.89471   0.24369   0.71990   0.00000  Uiso   1.00
H535   H     0.96302   0.02671   0.92591   0.00000  Uiso   1.00
H536   H     0.14099   0.18490   0.69381   0.00000  Uiso   1.00
H537   H     0.00790   0.17154   0.36823   0.00000  Uiso   1.00
H538   H     0.95842   0.21571   0.35718   0.00000  Uiso   1.00
H539   H     0.99081   0.11281   0.45488   0.00000  Uiso   1.00
H540   H     0.07521   0.18783   0.34481   0.00000  Uiso   1.00
H541   H     0.90239   0.26191   0.26269   0.00000  Uiso   1.00
H542   H     0.97070   0.04493   0.46869   0.00000  Uiso   1.00
H543   H     0.14867   0.20313   0.23660   0.00000  Uiso   1.00
O544   O     0.86583   0.28147   0.97260   0.00000  Uiso   1.00
O545   O     0.95545   0.99680   0.24286   0.00000  Uiso   1.00
O546   O     0.18895   0.20435   0.93836   0.00000  Uiso   1.00
N547   N     0.90332   0.24192   0.84916   0.00000  Uiso   1.00
N548   N     0.96717   0.03906   0.04176   0.00000  Uiso   1.00
N549   N     0.13357   0.18695   0.82478   0.00000  Uiso   1.00
N550   N     0.90745   0.25173   0.14122   0.00000  Uiso   1.00
N551   N     0.97130   0.04887   0.33382   0.00000  Uiso   1.00
N552   N     0.13770   0.19675   0.11684   0.00000  Uiso   1.00
C553   C     0.99901   0.84487   0.87951   0.00000  Uiso   1.00
C554   C     0.02492   0.81855   0.94251   0.00000  Uiso   1.00
C555   C     0.04900   0.80189   0.83280   0.00000  Uiso   1.00
C556   C     0.07038   0.77871   0.91635   0.00000  Uiso   1.00
C557   C     0.11102   0.73881   0.98582   0.00000  Uiso   1.00
C558   C     0.00733   0.87446   0.99560   0.00000  Uiso   1.00
C559   C     0.01661   0.90480   0.93051   0.00000  Uiso   1.00
C560   C     0.02318   0.92869   0.05875   0.00000  Uiso   1.00
C561   C     0.03648   0.97560   0.21063   0.00000  Uiso   1.00
C562   C     0.96147   0.83370   0.93579   0.00000  Uiso   1.00
C563   C     0.93220   0.82978   0.82043   0.00000  Uiso   1.00
C564   C     0.90015   0.81935   0.89833   0.00000  Uiso   1.00
C565   C     0.84226   0.80297   0.95735   0.00000  Uiso   1.00
C566   C     0.99415   0.83334   0.22298   0.00000  Uiso   1.00
C567   C     0.02228   0.81229   0.12907   0.00000  Uiso   1.00
C568   C     0.04363   0.78913   0.21281   0.00000  Uiso   1.00
C569   C     0.06774   0.77243   0.10324   0.00000  Uiso   1.00
C570   C     0.00469   0.86820   0.18215   0.00000  Uiso   1.00
C571   C     0.01124   0.89205   0.31052   0.00000  Uiso   1.00
C572   C     0.02054   0.92242   0.24565   0.00000  Uiso   1.00
C573   C     0.95883   0.82743   0.12235   0.00000  Uiso   1.00
C574   C     0.92682   0.81702   0.20044   0.00000  Uiso   1.00
C575   C     0.89751   0.81308   0.08522   0.00000  Uiso   1.00
H576   H     0.00107   0.84975   0.73427   0.00000  Uiso   1.00
H577   H     0.05104   0.80674   0.68843   0.00000  Uiso   1.00
H578   H     0.01865   0.90964   0.78613   0.00000  Uiso   1.00
H579   H     0.93425   0.83462   0.67607   0.00000  Uiso   1.00
H580   H     0.10529   0.75631   0.71990   0.00000  Uiso   1.00
H581   H     0.03698   0.97329   0.92591   0.00000  Uiso   1.00
H582   H     0.85901   0.81510   0.69381   0.00000  Uiso   1.00
H583   H     0.99210   0.82846   0.36823   0.00000  Uiso   1.00
H584   H     0.04158   0.78429   0.35718   0.00000  Uiso   1.00
H585   H     0.00919   0.88719   0.45488   0.00000  Uiso   1.00
H586   H     0.92479   0.81217   0.34481   0.00000  Uiso   1.00
H587   H     0.09761   0.73809   0.26269   0.00000  Uiso   1.00
H588   H     0.02930   0.95507   0.46869   0.00000  Uiso   1.00
H589   H     0.85133   0.79687   0.23660   0.00000  Uiso   1.00
O590   O     0.13417   0.71853   0.97260   0.00000  Uiso   1.00
O591   O     0.04455   0.00320   0.24286   0.00000  Uiso   1.00
O592   O     0.81105   0.79565   0.93836   0.00000  Uiso   1.00
N593   N     0.09668   0.75808   0.84916   0.00000  Uiso   1.00
N594   N     0.03283   0.96094   0.04176   0.00000  Uiso   1.00
N595   N     0.86643   0.81305   0.82478   0.00000  Uiso   1.00
N596   N     0.09255   0.74827   0.14122   0.00000  Uiso   1.00
N597   N     0.02870   0.95113   0.33382   0.00000  Uiso   1.00
N598   N     0.86230   0.80325   0.11684   0.00000  Uiso   1.00
C599   C     0.99901   0.34487   0.37951   0.00000  Uiso   1.00
C600   C     0.02492   0.31855   0.44251   0.00000  Uiso   1.00
C601   C     0.04900   0.30189   0.33280   0.00000  Uiso   1.00
C602   C     0.07038   0.27871   0.41635   0.00000  Uiso   1.00
C603   C     0.11102   0.23881   0.48582   0.00000  Uiso   1.00
C604   C     0.00733   0.37446   0.49560   0.00000  Uiso   1.00
C605   C     0.01661   0.40480   0.43051   0.00000  Uiso   1.00
C606   C     0.02318   0.42869   0.55875   0.00000  Uiso   1.00
C607   C     0.03648   0.47560   0.71063   0.00000  Uiso   1.00
C608   C     0.96147   0.33370   0.43579   0.00000  Uiso   1.00
C609   C     0.93220   0.32978   0.32043   0.00000  Uiso   1.00
C610   C     0.90015   0.31935   0.39833   0.00000  Uiso   1.00
C611   C     0.84226   0.30297   0.45735   0.00000  Uiso   1.00
C612   C     0.99415   0.33334   0.72298   0.00000  Uiso   1.00
C613   C     0.02228   0.31229   0.62907   0.00000  Uiso   1.00
C614   C     0.04363   0.28913   0.71281   0.00000  Uiso   1.00
C615   C     0.06774   0.27243   0.60324   0.00000  Uiso   1.00
C616   C     0.00469   0.36820   0.68215   0.00000  Uiso   1.00
C617   C     0.01124   0.39205   0.81052   0.00000  Uiso   1.00
C618   C     0.02054   0.42242   0.74565   0.00000  Uiso   1.00
C619   C     0.95883   0.32743   0.62235   0.00000  Uiso   1.00
C620   C     0.92682   0.31702   0.70044   0.00000  Uiso   1.00
C621   C     0.89751   0.31308   0.58522   0.00000  Uiso   1.00
H622   H     0.00107   0.34975   0.23427   0.00000  Uiso   1.00
H623   H     0.05104   0.30674   0.18843   0.00000  Uiso   1.00
H624   H     0.01865   0.40964   0.28613   0.00000  Uiso   1.00
H625   H     0.93425   0.33462   0.17607   0.00000  Uiso   1.00
H626   H     0.10529   0.25631   0.21990   0.00000  Uiso   1.00
H627   H     0.03698   0.47329   0.42591   0.00000  Uiso   1.00
H628   H     0.85901   0.31510   0.19381   0.00000  Uiso   1.00
H629   H     0.99210   0.32846   0.86823   0.00000  Uiso   1.00
H630   H     0.04158   0.28429   0.85718   0.00000  Uiso   1.00
H631   H     0.00919   0.38719   0.95488   0.00000  Uiso   1.00
H632   H     0.92479   0.31217   0.84481   0.00000  Uiso   1.00
H633   H     0.09761   0.23809   0.76269   0.00000  Uiso   1.00
H634   H     0.02930   0.45507   0.96869   0.00000  Uiso   1.00
H635   H     0.85133   0.29687   0.73660   0.00000  Uiso   1.00
O636   O     0.13417   0.21853   0.47260   0.00000  Uiso   1.00
O637   O     0.04455   0.50320   0.74286   0.00000  Uiso   1.00
O638   O     0.81105   0.29565   0.43836   0.00000  Uiso   1.00
N639   N     0.09668   0.25808   0.34916   0.00000  Uiso   1.00
N640   N     0.03283   0.46094   0.54176   0.00000  Uiso   1.00
N641   N     0.86643   0.31305   0.32478   0.00000  Uiso   1.00
N642   N     0.09255   0.24827   0.64122   0.00000  Uiso   1.00
N643   N     0.02870   0.45113   0.83382   0.00000  Uiso   1.00
N644   N     0.86230   0.30325   0.61684   0.00000  Uiso   1.00
C645   C     0.49901   0.84487   0.37951   0.00000  Uiso   1.00
C646   C     0.52492   0.81855   0.44251   0.00000  Uiso   1.00
C647   C     0.54900   0.80189   0.33280   0.00000  Uiso   1.00
C648   C     0.57038   0.77871   0.41635   0.00000  Uiso   1.00
C649   C     0.61102   0.73881   0.48582   0.00000  Uiso   1.00
C650   C     0.50733   0.87446   0.49560   0.00000  Uiso   1.00
C651   C     0.51661   0.90480   0.43051   0.00000  Uiso   1.00
C652   C     0.52318   0.92869   0.55875   0.00000  Uiso   1.00
C653   C     0.53648   0.97560   0.71063   0.00000  Uiso   1.00
C654   C     0.46147   0.83370   0.43579   0.00000  Uiso   1.00
C655   C     0.43220   0.82978   0.32043   0.00000  Uiso   1.00
C656   C     0.40015   0.81935   0.39833   0.00000  Uiso   1.00
C657   C     0.34226   0.80297   0.45735   0.00000  Uiso   1.00
C658   C     0.49415   0.83334   0.72298   0.00000  Uiso   1.00
C659   C     0.52228   0.81229   0.62907   0.00000  Uiso   1.00
C660   C     0.54363   0.78913   0.71281   0.00000  Uiso   1.00
C661   C     0.56774   0.77243   0.60324   0.00000  Uiso   1.00
C662   C     0.50469   0.86820   0.68215   0.00000  Uiso   1.00
C663   C     0.51124   0.89205   0.81052   0.00000  Uiso   1.00
C664   C     0.52054   0.92242   0.74565   0.00000  Uiso   1.00
C665   C     0.45883   0.82743   0.62235   0.00000  Uiso   1.00
C666   C     0.42682   0.81702   0.70044   0.00000  Uiso   1.00
C667   C     0.39751   0.81308   0.58522   0.00000  Uiso   1.00
H668   H     0.50107   0.84975   0.23427   0.00000  Uiso   1.00
H669   H     0.55104   0.80674   0.18843   0.00000  Uiso   1.00
H670   H     0.51865   0.90964   0.28613   0.00000  Uiso   1.00
H671   H     0.43425   0.83462   0.17607   0.00000  Uiso   1.00
H672   H     0.60529   0.75631   0.21990   0.00000  Uiso   1.00
H673   H     0.53698   0.97329   0.42591   0.00000  Uiso   1.00
H674   H     0.35901   0.81510   0.19381   0.00000  Uiso   1.00
H675   H     0.49210   0.82846   0.86823   0.00000  Uiso   1.00
H676   H     0.54158   0.78429   0.85718   0.00000  Uiso   1.00
H677   H     0.50919   0.88719   0.95488   0.00000  Uiso   1.00
H678   H     0.42479   0.81217   0.84481   0.00000  Uiso   1.00
H679   H     0.59761   0.73809   0.76269   0.00000  Uiso   1.00
H680   H     0.52930   0.95507   0.96869   0.00000  Uiso   1.00
H681   H     0.35133   0.79687   0.73660   0.00000  Uiso   1.00
O682   O     0.63417   0.71853   0.47260   0.00000  Uiso   1.00
O683   O     0.54455   0.00320   0.74286   0.00000  Uiso   1.00
O684   O     0.31105   0.79565   0.43836   0.00000  Uiso   1.00
N685   N     0.59668   0.75808   0.34916   0.00000  Uiso   1.00
N686   N     0.53283   0.96094   0.54176   0.00000  Uiso   1.00
N687   N     0.36643   0.81305   0.32478   0.00000  Uiso   1.00
N688   N     0.59255   0.74827   0.64122   0.00000  Uiso   1.00
N689   N     0.52870   0.95113   0.83382   0.00000  Uiso   1.00
N690   N     0.36230   0.80325   0.61684   0.00000  Uiso   1.00
C691   C     0.49901   0.34487   0.87951   0.00000  Uiso   1.00
C692   C     0.52492   0.31855   0.94251   0.00000  Uiso   1.00
C693   C     0.54900   0.30189   0.83280   0.00000  Uiso   1.00
C694   C     0.57038   0.27871   0.91635   0.00000  Uiso   1.00
C695   C     0.61102   0.23881   0.98582   0.00000  Uiso   1.00
C696   C     0.50733   0.37446   0.99560   0.00000  Uiso   1.00
C697   C     0.51661   0.40480   0.93051   0.00000  Uiso   1.00
C698   C     0.52318   0.42869   0.05875   0.00000  Uiso   1.00
C699   C     0.53648   0.47560   0.21063   0.00000  Uiso   1.00
C700   C     0.46147   0.33370   0.93579   0.00000  Uiso   1.00
C701   C     0.43220   0.32978   0.82043   0.00000  Uiso   1.00
C702   C     0.40015   0.31935   0.89833   0.00000  Uiso   1.00
C703   C     0.34226   0.30297   0.95735   0.00000  Uiso   1.00
C704   C     0.49415   0.33334   0.22298   0.00000  Uiso   1.00
C705   C     0.52228   0.31229   0.12907   0.00000  Uiso   1.00
C706   C     0.54363   0.28913   0.21281   0.00000  Uiso   1.00
C707   C     0.56774   0.27243   0.10324   0.00000  Uiso   1.00
C708   C     0.50469   0.36820   0.18215   0.00000  Uiso   1.00
C709   C     0.51124   0.39205   0.31052   0.00000  Uiso   1.00
C710   C     0.52054   0.42242   0.24565   0.00000  Uiso   1.00
C711   C     0.45883   0.32743   0.12235   0.00000  Uiso   1.00
C712   C     0.42682   0.31702   0.20044   0.00000  Uiso   1.00
C713   C     0.39751   0.31308   0.08522   0.00000  Uiso   1.00
H714   H     0.50107   0.34975   0.73427   0.00000  Uiso   1.00
H715   H     0.55104   0.30674   0.68843   0.00000  Uiso   1.00
H716   H     0.51865   0.40964   0.78613   0.00000  Uiso   1.00
H717   H     0.43425   0.33462   0.67607   0.00000  Uiso   1.00
H718   H     0.60529   0.25631   0.71990   0.00000  Uiso   1.00
H719   H     0.53698   0.47329   0.92591   0.00000  Uiso   1.00
H720   H     0.35901   0.31510   0.69381   0.00000  Uiso   1.00
H721   H     0.49210   0.32846   0.36823   0.00000  Uiso   1.00
H722   H     0.54158   0.28429   0.35718   0.00000  Uiso   1.00
H723   H     0.50919   0.38719   0.45488   0.00000  Uiso   1.00
H724   H     0.42479   0.31217   0.34481   0.00000  Uiso   1.00
H725   H     0.59761   0.23809   0.26269   0.00000  Uiso   1.00
H726   H     0.52930   0.45507   0.46869   0.00000  Uiso   1.00
H727   H     0.35133   0.29687   0.23660   0.00000  Uiso   1.00
O728   O     0.63417   0.21853   0.97260   0.00000  Uiso   1.00
O729   O     0.54455   0.50320   0.24286   0.00000  Uiso   1.00
O730   O     0.31105   0.29565   0.93836   0.00000  Uiso   1.00
N731   N     0.59668   0.25808   0.84916   0.00000  Uiso   1.00
N732   N     0.53283   0.46094   0.04176   0.00000  Uiso   1.00
N733   N     0.36643   0.31305   0.82478   0.00000  Uiso   1.00
N734   N     0.59255   0.24827   0.14122   0.00000  Uiso   1.00
N735   N     0.52870   0.45113   0.33382   0.00000  Uiso   1.00
N736   N     0.36230   0.30325   0.11684   0.00000  Uiso   1.00
