data_job_05152
_audit_creation_date              2018-12-19
_audit_creation_method            'Materials Studio'
_symmetry_space_group_name_H-M    'P1'
_symmetry_Int_Tables_number       1
_symmetry_cell_setting            triclinic
loop_
_symmetry_equiv_pos_as_xyz
  x,y,z
_cell_length_a                    16.5178
_cell_length_b                    34.0307
_cell_length_c                    16.8457
_cell_angle_alpha                 90.0000
_cell_angle_beta                  86.2366
_cell_angle_gamma                 90.0000
loop_
_atom_site_label
_atom_site_type_symbol
_atom_site_fract_x
_atom_site_fract_y
_atom_site_fract_z
_atom_site_U_iso_or_equiv
_atom_site_adp_type
_atom_site_occupancy
C1     C     0.32496   0.52247   0.78946   0.00000  Uiso   1.00
C2     C     0.27480   0.54231   0.85734   0.00000  Uiso   1.00
C3     C     0.25633   0.52635   0.93215   0.00000  Uiso   1.00
C4     C     0.20964   0.54916   0.98597   0.00000  Uiso   1.00
C5     C     0.13586   0.57426   0.09446   0.00000  Uiso   1.00
C6     C     0.27141   0.52170   0.71910   0.00000  Uiso   1.00
C7     C     0.25010   0.48841   0.67768   0.00000  Uiso   1.00
C8     C     0.20058   0.49388   0.61511   0.00000  Uiso   1.00
C9     C     0.12159   0.48698   0.50894   0.00000  Uiso   1.00
C10    C     0.39435   0.55062   0.76626   0.00000  Uiso   1.00
C11    C     0.47641   0.54165   0.76447   0.00000  Uiso   1.00
C12    C     0.53039   0.57146   0.74159   0.00000  Uiso   1.00
C13    C     0.64227   0.60947   0.70865   0.00000  Uiso   1.00
C14    C     0.27489   0.59136   0.75199   0.00000  Uiso   1.00
C15    C     0.24760   0.57973   0.83699   0.00000  Uiso   1.00
C16    C     0.20094   0.60257   0.89071   0.00000  Uiso   1.00
C17    C     0.18240   0.58665   0.96559   0.00000  Uiso   1.00
C18    C     0.24422   0.55911   0.69875   0.00000  Uiso   1.00
C19    C     0.19472   0.56463   0.63623   0.00000  Uiso   1.00
C20    C     0.17334   0.53136   0.59473   0.00000  Uiso   1.00
C21    C     0.36716   0.58804   0.74591   0.00000  Uiso   1.00
C22    C     0.42102   0.61787   0.72303   0.00000  Uiso   1.00
C23    C     0.50314   0.60895   0.72121   0.00000  Uiso   1.00
H24    H     0.34612   0.49333   0.80529   0.00000  Uiso   1.00
H25    H     0.27738   0.49738   0.94788   0.00000  Uiso   1.00
H26    H     0.27116   0.45945   0.69343   0.00000  Uiso   1.00
H27    H     0.49743   0.51269   0.78022   0.00000  Uiso   1.00
H28    H     0.18914   0.51837   0.09697   0.00000  Uiso   1.00
H29    H     0.17606   0.43839   0.56045   0.00000  Uiso   1.00
H30    H     0.65319   0.55064   0.74345   0.00000  Uiso   1.00
H31    H     0.25372   0.62050   0.73615   0.00000  Uiso   1.00
H32    H     0.17990   0.63153   0.87494   0.00000  Uiso   1.00
H33    H     0.17369   0.59360   0.62050   0.00000  Uiso   1.00
H34    H     0.39995   0.64683   0.70728   0.00000  Uiso   1.00
H35    H     0.11002   0.62725   0.03778   0.00000  Uiso   1.00
H36    H     0.09695   0.54727   0.50124   0.00000  Uiso   1.00
H37    H     0.57407   0.65952   0.68425   0.00000  Uiso   1.00
O38    O     0.10266   0.57777   0.15991   0.00000  Uiso   1.00
O39    O     0.08552   0.47284   0.45600   0.00000  Uiso   1.00
O40    O     0.71150   0.62011   0.69610   0.00000  Uiso   1.00
N41    N     0.18066   0.54249   0.06400   0.00000  Uiso   1.00
N42    N     0.16842   0.46771   0.56238   0.00000  Uiso   1.00
N43    N     0.61450   0.57265   0.73346   0.00000  Uiso   1.00
N44    N     0.13809   0.60107   0.03215   0.00000  Uiso   1.00
N45    N     0.12585   0.52630   0.53053   0.00000  Uiso   1.00
N46    N     0.57193   0.63124   0.70160   0.00000  Uiso   1.00
C47    C     0.04487   0.74804   0.55338   0.00000  Uiso   1.00
C48    C     0.10377   0.76689   0.60810   0.00000  Uiso   1.00
C49    C     0.17471   0.74998   0.63185   0.00000  Uiso   1.00
C50    C     0.22027   0.77200   0.68210   0.00000  Uiso   1.00
C51    C     0.31544   0.79555   0.76321   0.00000  Uiso   1.00
C52    C     0.96236   0.74794   0.59965   0.00000  Uiso   1.00
C53    C     0.91441   0.71510   0.61628   0.00000  Uiso   1.00
C54    C     0.84093   0.72116   0.65941   0.00000  Uiso   1.00
C55    C     0.71653   0.71529   0.72735   0.00000  Uiso   1.00
C56    C     0.03748   0.77668   0.48462   0.00000  Uiso   1.00
C57    C     0.05266   0.76799   0.40453   0.00000  Uiso   1.00
C58    C     0.04240   0.79825   0.35080   0.00000  Uiso   1.00
C59    C     0.03464   0.83700   0.24014   0.00000  Uiso   1.00
C60    C     0.99963   0.81721   0.60038   0.00000  Uiso   1.00
C61    C     0.07919   0.80446   0.63363   0.00000  Uiso   1.00
C62    C     0.12466   0.82651   0.68385   0.00000  Uiso   1.00
C63    C     0.19566   0.80963   0.70767   0.00000  Uiso   1.00
C64    C     0.93779   0.78551   0.62518   0.00000  Uiso   1.00
C65    C     0.86436   0.79162   0.66828   0.00000  Uiso   1.00
C66    C     0.81631   0.75879   0.68498   0.00000  Uiso   1.00
C67    C     0.01291   0.81425   0.51015   0.00000  Uiso   1.00
C68    C     0.00262   0.84452   0.45653   0.00000  Uiso   1.00
C69    C     0.01779   0.83588   0.37638   0.00000  Uiso   1.00
H70    H     0.06400   0.71879   0.53351   0.00000  Uiso   1.00
H71    H     0.19370   0.72091   0.61209   0.00000  Uiso   1.00
H72    H     0.93344   0.68603   0.59651   0.00000  Uiso   1.00
H73    H     0.07167   0.73892   0.38480   0.00000  Uiso   1.00
H74    H     0.32665   0.73982   0.71049   0.00000  Uiso   1.00
H75    H     0.77786   0.66628   0.67763   0.00000  Uiso   1.00
H76    H     0.06935   0.77780   0.23117   0.00000  Uiso   1.00
H77    H     0.98050   0.84645   0.62026   0.00000  Uiso   1.00
H78    H     0.10563   0.85558   0.70360   0.00000  Uiso   1.00
H79    H     0.84536   0.82070   0.68803   0.00000  Uiso   1.00
H80    H     0.98360   0.87359   0.47631   0.00000  Uiso   1.00
H81    H     0.25517   0.84912   0.78476   0.00000  Uiso   1.00
H82    H     0.70637   0.77558   0.75190   0.00000  Uiso   1.00
H83    H     0.99787   0.88710   0.30545   0.00000  Uiso   1.00
O84    O     0.37471   0.79816   0.80090   0.00000  Uiso   1.00
O85    O     0.65471   0.70168   0.75778   0.00000  Uiso   1.00
O86    O     0.03715   0.84799   0.17205   0.00000  Uiso   1.00
N87    N     0.29266   0.76429   0.71652   0.00000  Uiso   1.00
N88    N     0.77958   0.69553   0.68581   0.00000  Uiso   1.00
N89    N     0.05208   0.79980   0.26841   0.00000  Uiso   1.00
N90    N     0.25420   0.82311   0.75649   0.00000  Uiso   1.00
N91    N     0.74111   0.75435   0.72577   0.00000  Uiso   1.00
N92    N     0.01362   0.85861   0.30838   0.00000  Uiso   1.00
C93    C     0.26079   0.51061   0.30736   0.00000  Uiso   1.00
C94    C     0.31762   0.53112   0.24552   0.00000  Uiso   1.00
C95    C     0.34321   0.51617   0.17143   0.00000  Uiso   1.00
C96    C     0.39522   0.53947   0.12351   0.00000  Uiso   1.00
C97    C     0.47962   0.56569   0.02364   0.00000  Uiso   1.00
C98    C     0.30655   0.50844   0.38297   0.00000  Uiso   1.00
C99    C     0.32282   0.47442   0.42447   0.00000  Uiso   1.00
C100   C     0.36550   0.47863   0.49227   0.00000  Uiso   1.00
C101   C     0.43266   0.46965   0.60584   0.00000  Uiso   1.00
C102   C     0.19033   0.53885   0.32556   0.00000  Uiso   1.00
C103   C     0.10887   0.53039   0.31880   0.00000  Uiso   1.00
C104   C     0.05371   0.56020   0.33827   0.00000  Uiso   1.00
C105   C     0.94042   0.59843   0.36269   0.00000  Uiso   1.00
C106   C     0.30765   0.57859   0.35399   0.00000  Uiso   1.00
C107   C     0.34307   0.56805   0.27085   0.00000  Uiso   1.00
C108   C     0.39506   0.59138   0.22302   0.00000  Uiso   1.00
C109   C     0.42072   0.57646   0.14888   0.00000  Uiso   1.00
C110   C     0.33200   0.54537   0.40830   0.00000  Uiso   1.00
C111   C     0.37466   0.54963   0.47606   0.00000  Uiso   1.00
C112   C     0.39100   0.51562   0.51764   0.00000  Uiso   1.00
C113   C     0.21578   0.57577   0.35088   0.00000  Uiso   1.00
C114   C     0.16073   0.60560   0.37038   0.00000  Uiso   1.00
C115   C     0.07921   0.59719   0.36365   0.00000  Uiso   1.00
H116   H     0.24097   0.48186   0.28765   0.00000  Uiso   1.00
H117   H     0.32350   0.48759   0.15186   0.00000  Uiso   1.00
H118   H     0.30311   0.44585   0.40486   0.00000  Uiso   1.00
H119   H     0.08920   0.50181   0.29920   0.00000  Uiso   1.00
H120   H     0.42625   0.51021   0.01249   0.00000  Uiso   1.00
H121   H     0.38322   0.42221   0.54597   0.00000  Uiso   1.00
H122   H     0.93215   0.54021   0.32316   0.00000  Uiso   1.00
H123   H     0.32747   0.60734   0.37371   0.00000  Uiso   1.00
H124   H     0.41474   0.61995   0.24264   0.00000  Uiso   1.00
H125   H     0.39435   0.57821   0.49564   0.00000  Uiso   1.00
H126   H     0.18044   0.63417   0.38998   0.00000  Uiso   1.00
H127   H     0.50031   0.61764   0.08617   0.00000  Uiso   1.00
H128   H     0.45727   0.52964   0.61966   0.00000  Uiso   1.00
H129   H     0.00621   0.64764   0.39685   0.00000  Uiso   1.00
O130   O     0.51915   0.56996   0.96156   0.00000  Uiso   1.00
O131   O     0.46268   0.45450   0.66148   0.00000  Uiso   1.00
O132   O     0.87090   0.60931   0.36915   0.00000  Uiso   1.00
N133   N     0.43169   0.53377   0.04781   0.00000  Uiso   1.00
N134   N     0.39147   0.45149   0.54658   0.00000  Uiso   1.00
N135   N     0.96976   0.56181   0.33829   0.00000  Uiso   1.00
N136   N     0.47154   0.59158   0.08746   0.00000  Uiso   1.00
N137   N     0.43132   0.50930   0.58623   0.00000  Uiso   1.00
N138   N     0.00961   0.61962   0.37794   0.00000  Uiso   1.00
C139   C     0.56066   0.75508   0.58049   0.00000  Uiso   1.00
C140   C     0.50240   0.77306   0.52403   0.00000  Uiso   1.00
C141   C     0.42927   0.75684   0.50439   0.00000  Uiso   1.00
C142   C     0.38475   0.77785   0.45162   0.00000  Uiso   1.00
C143   C     0.29009   0.80029   0.36878   0.00000  Uiso   1.00
C144   C     0.64214   0.75148   0.53298   0.00000  Uiso   1.00
C145   C     0.68651   0.71712   0.52087   0.00000  Uiso   1.00
C146   C     0.75963   0.71997   0.47565   0.00000  Uiso   1.00
C147   C     0.88195   0.70893   0.40675   0.00000  Uiso   1.00
C148   C     0.57240   0.78602   0.64419   0.00000  Uiso   1.00
C149   C     0.55814   0.78070   0.72559   0.00000  Uiso   1.00
C150   C     0.57256   0.81263   0.77400   0.00000  Uiso   1.00
C151   C     0.58658   0.85521   0.87777   0.00000  Uiso   1.00
C152   C     0.61165   0.82123   0.52173   0.00000  Uiso   1.00
C153   C     0.53010   0.80899   0.49212   0.00000  Uiso   1.00
C154   C     0.48568   0.83003   0.43937   0.00000  Uiso   1.00
C155   C     0.41249   0.81384   0.41965   0.00000  Uiso   1.00
C156   C     0.66984   0.78741   0.50107   0.00000  Uiso   1.00
C157   C     0.74292   0.79031   0.45586   0.00000  Uiso   1.00
C158   C     0.78738   0.75597   0.44368   0.00000  Uiso   1.00
C159   C     0.60009   0.82195   0.61228   0.00000  Uiso   1.00
C160   C     0.61454   0.85389   0.66057   0.00000  Uiso   1.00
C161   C     0.60030   0.84863   0.74203   0.00000  Uiso   1.00
H162   H     0.53911   0.72710   0.60534   0.00000  Uiso   1.00
H163   H     0.40786   0.72903   0.52909   0.00000  Uiso   1.00
H164   H     0.66506   0.68932   0.54558   0.00000  Uiso   1.00
H165   H     0.53671   0.75289   0.75027   0.00000  Uiso   1.00
H166   H     0.27458   0.74700   0.43046   0.00000  Uiso   1.00
H167   H     0.81691   0.66328   0.46525   0.00000  Uiso   1.00
H168   H     0.54625   0.79733   0.89687   0.00000  Uiso   1.00
H169   H     0.63321   0.84920   0.49688   0.00000  Uiso   1.00
H170   H     0.50712   0.85783   0.41468   0.00000  Uiso   1.00
H171   H     0.76433   0.81812   0.43117   0.00000  Uiso   1.00
H172   H     0.63597   0.88170   0.63586   0.00000  Uiso   1.00
H173   H     0.35514   0.85154   0.33760   0.00000  Uiso   1.00
H174   H     0.89748   0.76782   0.37240   0.00000  Uiso   1.00
H175   H     0.62682   0.90187   0.80401   0.00000  Uiso   1.00
O176   O     0.23023   0.80274   0.33189   0.00000  Uiso   1.00
O177   O     0.94176   0.69290   0.37756   0.00000  Uiso   1.00
O178   O     0.58666   0.86877   0.94382   0.00000  Uiso   1.00
N179   N     0.31083   0.77043   0.41990   0.00000  Uiso   1.00
N180   N     0.81788   0.69215   0.45242   0.00000  Uiso   1.00
N181   N     0.56486   0.81747   0.85594   0.00000  Uiso   1.00
N182   N     0.35418   0.82668   0.36993   0.00000  Uiso   1.00
N183   N     0.86123   0.74841   0.40245   0.00000  Uiso   1.00
N184   N     0.60821   0.87373   0.80598   0.00000  Uiso   1.00
C185   C     0.67504   0.02247   0.71054   0.00000  Uiso   1.00
C186   C     0.72520   0.04231   0.64266   0.00000  Uiso   1.00
C187   C     0.74367   0.02635   0.56785   0.00000  Uiso   1.00
C188   C     0.79036   0.04916   0.51403   0.00000  Uiso   1.00
C189   C     0.86414   0.07426   0.40554   0.00000  Uiso   1.00
C190   C     0.72859   0.02170   0.78090   0.00000  Uiso   1.00
C191   C     0.74990   0.98841   0.82232   0.00000  Uiso   1.00
C192   C     0.79942   0.99388   0.88489   0.00000  Uiso   1.00
C193   C     0.87841   0.98698   0.99106   0.00000  Uiso   1.00
C194   C     0.60565   0.05062   0.73374   0.00000  Uiso   1.00
C195   C     0.52359   0.04165   0.73553   0.00000  Uiso   1.00
C196   C     0.46961   0.07146   0.75841   0.00000  Uiso   1.00
C197   C     0.35773   0.10947   0.79135   0.00000  Uiso   1.00
C198   C     0.72511   0.09136   0.74801   0.00000  Uiso   1.00
C199   C     0.75240   0.07973   0.66301   0.00000  Uiso   1.00
C200   C     0.79906   0.10257   0.60929   0.00000  Uiso   1.00
C201   C     0.81760   0.08665   0.53441   0.00000  Uiso   1.00
C202   C     0.75578   0.05911   0.80125   0.00000  Uiso   1.00
C203   C     0.80528   0.06463   0.86377   0.00000  Uiso   1.00
C204   C     0.82666   0.03136   0.90527   0.00000  Uiso   1.00
C205   C     0.63284   0.08804   0.75409   0.00000  Uiso   1.00
C206   C     0.57898   0.11787   0.77697   0.00000  Uiso   1.00
C207   C     0.49686   0.10895   0.77879   0.00000  Uiso   1.00
H208   H     0.65388   0.99333   0.69471   0.00000  Uiso   1.00
H209   H     0.72262   0.99738   0.55212   0.00000  Uiso   1.00
H210   H     0.72884   0.95945   0.80657   0.00000  Uiso   1.00
H211   H     0.50257   0.01269   0.71978   0.00000  Uiso   1.00
H212   H     0.81086   0.01837   0.40303   0.00000  Uiso   1.00
H213   H     0.82394   0.93839   0.93955   0.00000  Uiso   1.00
H214   H     0.34681   0.05064   0.75655   0.00000  Uiso   1.00
H215   H     0.74628   0.12050   0.76385   0.00000  Uiso   1.00
H216   H     0.82010   0.13153   0.62506   0.00000  Uiso   1.00
H217   H     0.82631   0.09360   0.87950   0.00000  Uiso   1.00
H218   H     0.60005   0.14683   0.79272   0.00000  Uiso   1.00
H219   H     0.88998   0.12725   0.46222   0.00000  Uiso   1.00
H220   H     0.90305   0.04727   0.99876   0.00000  Uiso   1.00
H221   H     0.42593   0.15952   0.81575   0.00000  Uiso   1.00
O222   O     0.89734   0.07777   0.34009   0.00000  Uiso   1.00
O223   O     0.91448   0.97284   0.04400   0.00000  Uiso   1.00
O224   O     0.28850   0.12011   0.80390   0.00000  Uiso   1.00
N225   N     0.81934   0.04249   0.43600   0.00000  Uiso   1.00
N226   N     0.83158   0.96771   0.93762   0.00000  Uiso   1.00
N227   N     0.38550   0.07265   0.76654   0.00000  Uiso   1.00
N228   N     0.86191   0.10107   0.46785   0.00000  Uiso   1.00
N229   N     0.87415   0.02630   0.96947   0.00000  Uiso   1.00
N230   N     0.42807   0.13124   0.79840   0.00000  Uiso   1.00
C231   C     0.95513   0.24804   0.94662   0.00000  Uiso   1.00
C232   C     0.89623   0.26689   0.89190   0.00000  Uiso   1.00
C233   C     0.82529   0.24998   0.86815   0.00000  Uiso   1.00
C234   C     0.77973   0.27200   0.81790   0.00000  Uiso   1.00
C235   C     0.68456   0.29555   0.73679   0.00000  Uiso   1.00
C236   C     0.03764   0.24794   0.90035   0.00000  Uiso   1.00
C237   C     0.08559   0.21510   0.88372   0.00000  Uiso   1.00
C238   C     0.15907   0.22116   0.84059   0.00000  Uiso   1.00
C239   C     0.28347   0.21529   0.77265   0.00000  Uiso   1.00
C240   C     0.96252   0.27668   0.01538   0.00000  Uiso   1.00
C241   C     0.94734   0.26799   0.09547   0.00000  Uiso   1.00
C242   C     0.95760   0.29825   0.14920   0.00000  Uiso   1.00
C243   C     0.96536   0.33700   0.25986   0.00000  Uiso   1.00
C244   C     0.00037   0.31721   0.89962   0.00000  Uiso   1.00
C245   C     0.92081   0.30446   0.86637   0.00000  Uiso   1.00
C246   C     0.87534   0.32651   0.81615   0.00000  Uiso   1.00
C247   C     0.80434   0.30963   0.79233   0.00000  Uiso   1.00
C248   C     0.06221   0.28551   0.87482   0.00000  Uiso   1.00
C249   C     0.13564   0.29162   0.83172   0.00000  Uiso   1.00
C250   C     0.18369   0.25879   0.81502   0.00000  Uiso   1.00
C251   C     0.98709   0.31425   0.98985   0.00000  Uiso   1.00
C252   C     0.99738   0.34452   0.04347   0.00000  Uiso   1.00
C253   C     0.98221   0.33588   0.12362   0.00000  Uiso   1.00
H254   H     0.93600   0.21879   0.96649   0.00000  Uiso   1.00
H255   H     0.80630   0.22091   0.88791   0.00000  Uiso   1.00
H256   H     0.06656   0.18603   0.90349   0.00000  Uiso   1.00
H257   H     0.92833   0.23892   0.11520   0.00000  Uiso   1.00
H258   H     0.67335   0.23982   0.78951   0.00000  Uiso   1.00
H259   H     0.22214   0.16628   0.82237   0.00000  Uiso   1.00
H260   H     0.93065   0.27780   0.26883   0.00000  Uiso   1.00
H261   H     0.01950   0.34645   0.87974   0.00000  Uiso   1.00
H262   H     0.89437   0.35558   0.79640   0.00000  Uiso   1.00
H263   H     0.15464   0.32070   0.81197   0.00000  Uiso   1.00
H264   H     0.01640   0.37359   0.02369   0.00000  Uiso   1.00
H265   H     0.74483   0.34912   0.71524   0.00000  Uiso   1.00
H266   H     0.29363   0.27558   0.74810   0.00000  Uiso   1.00
H267   H     0.00213   0.38710   0.19455   0.00000  Uiso   1.00
O268   O     0.62529   0.29816   0.69910   0.00000  Uiso   1.00
O269   O     0.34529   0.20168   0.74222   0.00000  Uiso   1.00
O270   O     0.96285   0.34799   0.32795   0.00000  Uiso   1.00
N271   N     0.70734   0.26429   0.78348   0.00000  Uiso   1.00
N272   N     0.22042   0.19553   0.81419   0.00000  Uiso   1.00
N273   N     0.94792   0.29980   0.23159   0.00000  Uiso   1.00
N274   N     0.74580   0.32311   0.74351   0.00000  Uiso   1.00
N275   N     0.25889   0.25435   0.77423   0.00000  Uiso   1.00
N276   N     0.98638   0.35861   0.19162   0.00000  Uiso   1.00
C277   C     0.73921   0.01061   0.19264   0.00000  Uiso   1.00
C278   C     0.68238   0.03112   0.25448   0.00000  Uiso   1.00
C279   C     0.65679   0.01617   0.32857   0.00000  Uiso   1.00
C280   C     0.60478   0.03947   0.37649   0.00000  Uiso   1.00
C281   C     0.52038   0.06569   0.47636   0.00000  Uiso   1.00
C282   C     0.69345   0.00844   0.11703   0.00000  Uiso   1.00
C283   C     0.67718   0.97442   0.07553   0.00000  Uiso   1.00
C284   C     0.63450   0.97863   0.00773   0.00000  Uiso   1.00
C285   C     0.56734   0.96965   0.89416   0.00000  Uiso   1.00
C286   C     0.80967   0.03885   0.17444   0.00000  Uiso   1.00
C287   C     0.89113   0.03039   0.18120   0.00000  Uiso   1.00
C288   C     0.94629   0.06020   0.16173   0.00000  Uiso   1.00
C289   C     0.05958   0.09843   0.13731   0.00000  Uiso   1.00
C290   C     0.69235   0.07859   0.14601   0.00000  Uiso   1.00
C291   C     0.65693   0.06805   0.22915   0.00000  Uiso   1.00
C292   C     0.60494   0.09138   0.27698   0.00000  Uiso   1.00
C293   C     0.57928   0.07646   0.35112   0.00000  Uiso   1.00
C294   C     0.66800   0.04537   0.09170   0.00000  Uiso   1.00
C295   C     0.62534   0.04963   0.02394   0.00000  Uiso   1.00
C296   C     0.60900   0.01562   0.98236   0.00000  Uiso   1.00
C297   C     0.78422   0.07577   0.14912   0.00000  Uiso   1.00
C298   C     0.83927   0.10560   0.12962   0.00000  Uiso   1.00
C299   C     0.92079   0.09719   0.13635   0.00000  Uiso   1.00
H300   H     0.75903   0.98186   0.21235   0.00000  Uiso   1.00
H301   H     0.67650   0.98759   0.34814   0.00000  Uiso   1.00
H302   H     0.69689   0.94585   0.09514   0.00000  Uiso   1.00
H303   H     0.91080   0.00181   0.20080   0.00000  Uiso   1.00
H304   H     0.57375   0.01021   0.48751   0.00000  Uiso   1.00
H305   H     0.61678   0.92221   0.95403   0.00000  Uiso   1.00
H306   H     0.06785   0.04021   0.17684   0.00000  Uiso   1.00
H307   H     0.67253   0.10734   0.12629   0.00000  Uiso   1.00
H308   H     0.58526   0.11995   0.25736   0.00000  Uiso   1.00
H309   H     0.60565   0.07821   0.00436   0.00000  Uiso   1.00
H310   H     0.81956   0.13417   0.11002   0.00000  Uiso   1.00
H311   H     0.49969   0.11764   0.41383   0.00000  Uiso   1.00
H312   H     0.54273   0.02964   0.88034   0.00000  Uiso   1.00
H313   H     0.99379   0.14764   0.10315   0.00000  Uiso   1.00
O314   O     0.48085   0.06996   0.53844   0.00000  Uiso   1.00
O315   O     0.53732   0.95450   0.83852   0.00000  Uiso   1.00
O316   O     0.12910   0.10931   0.13085   0.00000  Uiso   1.00
N317   N     0.56831   0.03377   0.45219   0.00000  Uiso   1.00
N318   N     0.60853   0.95149   0.95342   0.00000  Uiso   1.00
N319   N     0.03024   0.06181   0.16171   0.00000  Uiso   1.00
N320   N     0.52846   0.09158   0.41254   0.00000  Uiso   1.00
N321   N     0.56868   0.00930   0.91377   0.00000  Uiso   1.00
N322   N     0.99039   0.11962   0.12206   0.00000  Uiso   1.00
C323   C     0.43934   0.25508   0.91951   0.00000  Uiso   1.00
C324   C     0.49760   0.27306   0.97597   0.00000  Uiso   1.00
C325   C     0.57073   0.25684   0.99561   0.00000  Uiso   1.00
C326   C     0.61525   0.27785   0.04838   0.00000  Uiso   1.00
C327   C     0.70991   0.30029   0.13122   0.00000  Uiso   1.00
C328   C     0.35786   0.25148   0.96702   0.00000  Uiso   1.00
C329   C     0.31349   0.21712   0.97913   0.00000  Uiso   1.00
C330   C     0.24037   0.21997   0.02435   0.00000  Uiso   1.00
C331   C     0.11805   0.20893   0.09325   0.00000  Uiso   1.00
C332   C     0.42760   0.28602   0.85581   0.00000  Uiso   1.00
C333   C     0.44186   0.28070   0.77441   0.00000  Uiso   1.00
C334   C     0.42744   0.31263   0.72600   0.00000  Uiso   1.00
C335   C     0.41342   0.35521   0.62223   0.00000  Uiso   1.00
C336   C     0.38835   0.32123   0.97827   0.00000  Uiso   1.00
C337   C     0.46990   0.30899   0.00788   0.00000  Uiso   1.00
C338   C     0.51432   0.33003   0.06063   0.00000  Uiso   1.00
C339   C     0.58751   0.31384   0.08035   0.00000  Uiso   1.00
C340   C     0.33016   0.28741   0.99893   0.00000  Uiso   1.00
C341   C     0.25708   0.29031   0.04414   0.00000  Uiso   1.00
C342   C     0.21262   0.25597   0.05632   0.00000  Uiso   1.00
C343   C     0.39991   0.32195   0.88772   0.00000  Uiso   1.00
C344   C     0.38546   0.35389   0.83943   0.00000  Uiso   1.00
C345   C     0.39970   0.34863   0.75797   0.00000  Uiso   1.00
H346   H     0.46089   0.22710   0.89466   0.00000  Uiso   1.00
H347   H     0.59214   0.22903   0.97091   0.00000  Uiso   1.00
H348   H     0.33494   0.18932   0.95442   0.00000  Uiso   1.00
H349   H     0.46329   0.25289   0.74973   0.00000  Uiso   1.00
H350   H     0.72542   0.24700   0.06954   0.00000  Uiso   1.00
H351   H     0.18309   0.16328   0.03475   0.00000  Uiso   1.00
H352   H     0.45375   0.29733   0.60313   0.00000  Uiso   1.00
H353   H     0.36679   0.34920   0.00312   0.00000  Uiso   1.00
H354   H     0.49288   0.35783   0.08532   0.00000  Uiso   1.00
H355   H     0.23567   0.31812   0.06883   0.00000  Uiso   1.00
H356   H     0.36403   0.38170   0.86414   0.00000  Uiso   1.00
H357   H     0.64486   0.35154   0.16240   0.00000  Uiso   1.00
H358   H     0.10252   0.26782   0.12760   0.00000  Uiso   1.00
H359   H     0.37318   0.40187   0.69599   0.00000  Uiso   1.00
O360   O     0.76977   0.30274   0.16811   0.00000  Uiso   1.00
O361   O     0.05824   0.19290   0.12244   0.00000  Uiso   1.00
O362   O     0.41334   0.36877   0.55618   0.00000  Uiso   1.00
N363   N     0.68917   0.27043   0.08010   0.00000  Uiso   1.00
N364   N     0.18212   0.19215   0.04758   0.00000  Uiso   1.00
N365   N     0.43514   0.31747   0.64406   0.00000  Uiso   1.00
N366   N     0.64582   0.32668   0.13007   0.00000  Uiso   1.00
N367   N     0.13877   0.24841   0.09755   0.00000  Uiso   1.00
N368   N     0.39179   0.37373   0.69402   0.00000  Uiso   1.00
C369   C     0.67504   0.47753   0.21054   0.00000  Uiso   1.00
C370   C     0.72520   0.45769   0.14266   0.00000  Uiso   1.00
C371   C     0.74367   0.47365   0.06785   0.00000  Uiso   1.00
C372   C     0.79036   0.45084   0.01403   0.00000  Uiso   1.00
C373   C     0.86414   0.42574   0.90554   0.00000  Uiso   1.00
C374   C     0.72859   0.47830   0.28090   0.00000  Uiso   1.00
C375   C     0.74990   0.51159   0.32232   0.00000  Uiso   1.00
C376   C     0.79942   0.50612   0.38489   0.00000  Uiso   1.00
C377   C     0.87841   0.51302   0.49106   0.00000  Uiso   1.00
C378   C     0.60565   0.44938   0.23374   0.00000  Uiso   1.00
C379   C     0.52359   0.45835   0.23553   0.00000  Uiso   1.00
C380   C     0.46961   0.42854   0.25841   0.00000  Uiso   1.00
C381   C     0.35773   0.39053   0.29135   0.00000  Uiso   1.00
C382   C     0.72511   0.40864   0.24801   0.00000  Uiso   1.00
C383   C     0.75240   0.42027   0.16301   0.00000  Uiso   1.00
C384   C     0.79906   0.39743   0.10929   0.00000  Uiso   1.00
C385   C     0.81760   0.41335   0.03441   0.00000  Uiso   1.00
C386   C     0.75578   0.44089   0.30125   0.00000  Uiso   1.00
C387   C     0.80528   0.43537   0.36377   0.00000  Uiso   1.00
C388   C     0.82666   0.46864   0.40527   0.00000  Uiso   1.00
C389   C     0.63284   0.41196   0.25409   0.00000  Uiso   1.00
C390   C     0.57898   0.38213   0.27697   0.00000  Uiso   1.00
C391   C     0.49686   0.39105   0.27879   0.00000  Uiso   1.00
H392   H     0.65388   0.50667   0.19471   0.00000  Uiso   1.00
H393   H     0.72262   0.50262   0.05212   0.00000  Uiso   1.00
H394   H     0.72884   0.54055   0.30657   0.00000  Uiso   1.00
H395   H     0.50257   0.48731   0.21978   0.00000  Uiso   1.00
H396   H     0.81086   0.48163   0.90303   0.00000  Uiso   1.00
H397   H     0.82394   0.56161   0.43955   0.00000  Uiso   1.00
H398   H     0.34681   0.44936   0.25655   0.00000  Uiso   1.00
H399   H     0.74628   0.37950   0.26385   0.00000  Uiso   1.00
H400   H     0.82010   0.36847   0.12506   0.00000  Uiso   1.00
H401   H     0.82631   0.40640   0.37950   0.00000  Uiso   1.00
H402   H     0.60005   0.35317   0.29272   0.00000  Uiso   1.00
H403   H     0.88998   0.37275   0.96222   0.00000  Uiso   1.00
H404   H     0.90305   0.45273   0.49876   0.00000  Uiso   1.00
H405   H     0.42593   0.34048   0.31575   0.00000  Uiso   1.00
O406   O     0.89734   0.42223   0.84009   0.00000  Uiso   1.00
O407   O     0.91448   0.52716   0.54400   0.00000  Uiso   1.00
O408   O     0.28850   0.37989   0.30390   0.00000  Uiso   1.00
N409   N     0.81934   0.45751   0.93600   0.00000  Uiso   1.00
N410   N     0.83158   0.53229   0.43762   0.00000  Uiso   1.00
N411   N     0.38550   0.42735   0.26654   0.00000  Uiso   1.00
N412   N     0.86191   0.39893   0.96785   0.00000  Uiso   1.00
N413   N     0.87415   0.47370   0.46947   0.00000  Uiso   1.00
N414   N     0.42807   0.36876   0.29840   0.00000  Uiso   1.00
C415   C     0.95513   0.25196   0.44662   0.00000  Uiso   1.00
C416   C     0.89623   0.23311   0.39190   0.00000  Uiso   1.00
C417   C     0.82529   0.25002   0.36815   0.00000  Uiso   1.00
C418   C     0.77973   0.22800   0.31790   0.00000  Uiso   1.00
C419   C     0.68456   0.20445   0.23679   0.00000  Uiso   1.00
C420   C     0.03764   0.25206   0.40035   0.00000  Uiso   1.00
C421   C     0.08559   0.28490   0.38372   0.00000  Uiso   1.00
C422   C     0.15907   0.27884   0.34059   0.00000  Uiso   1.00
C423   C     0.28347   0.28471   0.27265   0.00000  Uiso   1.00
C424   C     0.96252   0.22332   0.51538   0.00000  Uiso   1.00
C425   C     0.94734   0.23201   0.59547   0.00000  Uiso   1.00
C426   C     0.95760   0.20175   0.64920   0.00000  Uiso   1.00
C427   C     0.96536   0.16300   0.75986   0.00000  Uiso   1.00
C428   C     0.00037   0.18279   0.39962   0.00000  Uiso   1.00
C429   C     0.92081   0.19554   0.36637   0.00000  Uiso   1.00
C430   C     0.87534   0.17349   0.31615   0.00000  Uiso   1.00
C431   C     0.80434   0.19037   0.29233   0.00000  Uiso   1.00
C432   C     0.06221   0.21449   0.37482   0.00000  Uiso   1.00
C433   C     0.13564   0.20838   0.33172   0.00000  Uiso   1.00
C434   C     0.18369   0.24121   0.31502   0.00000  Uiso   1.00
C435   C     0.98709   0.18575   0.48985   0.00000  Uiso   1.00
C436   C     0.99738   0.15548   0.54347   0.00000  Uiso   1.00
C437   C     0.98221   0.16412   0.62362   0.00000  Uiso   1.00
H438   H     0.93600   0.28121   0.46649   0.00000  Uiso   1.00
H439   H     0.80630   0.27909   0.38791   0.00000  Uiso   1.00
H440   H     0.06656   0.31397   0.40349   0.00000  Uiso   1.00
H441   H     0.92833   0.26108   0.61520   0.00000  Uiso   1.00
H442   H     0.67335   0.26018   0.28951   0.00000  Uiso   1.00
H443   H     0.22214   0.33372   0.32237   0.00000  Uiso   1.00
H444   H     0.93065   0.22220   0.76883   0.00000  Uiso   1.00
H445   H     0.01950   0.15355   0.37974   0.00000  Uiso   1.00
H446   H     0.89437   0.14442   0.29640   0.00000  Uiso   1.00
H447   H     0.15464   0.17930   0.31197   0.00000  Uiso   1.00
H448   H     0.01640   0.12641   0.52369   0.00000  Uiso   1.00
H449   H     0.74483   0.15088   0.21524   0.00000  Uiso   1.00
H450   H     0.29363   0.22442   0.24810   0.00000  Uiso   1.00
H451   H     0.00213   0.11290   0.69455   0.00000  Uiso   1.00
O452   O     0.62529   0.20184   0.19910   0.00000  Uiso   1.00
O453   O     0.34529   0.29832   0.24222   0.00000  Uiso   1.00
O454   O     0.96285   0.15201   0.82795   0.00000  Uiso   1.00
N455   N     0.70734   0.23571   0.28348   0.00000  Uiso   1.00
N456   N     0.22042   0.30447   0.31419   0.00000  Uiso   1.00
N457   N     0.94792   0.20020   0.73159   0.00000  Uiso   1.00
N458   N     0.74580   0.17689   0.24351   0.00000  Uiso   1.00
N459   N     0.25889   0.24565   0.27423   0.00000  Uiso   1.00
N460   N     0.98638   0.14139   0.69162   0.00000  Uiso   1.00
C461   C     0.73921   0.48939   0.69264   0.00000  Uiso   1.00
C462   C     0.68238   0.46888   0.75448   0.00000  Uiso   1.00
C463   C     0.65679   0.48383   0.82857   0.00000  Uiso   1.00
C464   C     0.60478   0.46053   0.87649   0.00000  Uiso   1.00
C465   C     0.52038   0.43431   0.97636   0.00000  Uiso   1.00
C466   C     0.69345   0.49156   0.61703   0.00000  Uiso   1.00
C467   C     0.67718   0.52558   0.57553   0.00000  Uiso   1.00
C468   C     0.63450   0.52137   0.50773   0.00000  Uiso   1.00
C469   C     0.56734   0.53035   0.39416   0.00000  Uiso   1.00
C470   C     0.80967   0.46115   0.67444   0.00000  Uiso   1.00
C471   C     0.89113   0.46961   0.68120   0.00000  Uiso   1.00
C472   C     0.94629   0.43980   0.66173   0.00000  Uiso   1.00
C473   C     0.05958   0.40157   0.63731   0.00000  Uiso   1.00
C474   C     0.69235   0.42141   0.64601   0.00000  Uiso   1.00
C475   C     0.65693   0.43195   0.72915   0.00000  Uiso   1.00
C476   C     0.60494   0.40862   0.77698   0.00000  Uiso   1.00
C477   C     0.57928   0.42354   0.85112   0.00000  Uiso   1.00
C478   C     0.66800   0.45463   0.59170   0.00000  Uiso   1.00
C479   C     0.62534   0.45037   0.52394   0.00000  Uiso   1.00
C480   C     0.60900   0.48438   0.48236   0.00000  Uiso   1.00
C481   C     0.78422   0.42423   0.64912   0.00000  Uiso   1.00
C482   C     0.83927   0.39440   0.62962   0.00000  Uiso   1.00
C483   C     0.92079   0.40281   0.63635   0.00000  Uiso   1.00
H484   H     0.75903   0.51814   0.71235   0.00000  Uiso   1.00
H485   H     0.67650   0.51241   0.84814   0.00000  Uiso   1.00
H486   H     0.69689   0.55415   0.59514   0.00000  Uiso   1.00
H487   H     0.91080   0.49819   0.70080   0.00000  Uiso   1.00
H488   H     0.57375   0.48979   0.98751   0.00000  Uiso   1.00
H489   H     0.61678   0.57779   0.45403   0.00000  Uiso   1.00
H490   H     0.06785   0.45979   0.67684   0.00000  Uiso   1.00
H491   H     0.67253   0.39266   0.62629   0.00000  Uiso   1.00
H492   H     0.58526   0.38005   0.75736   0.00000  Uiso   1.00
H493   H     0.60565   0.42179   0.50436   0.00000  Uiso   1.00
H494   H     0.81956   0.36583   0.61002   0.00000  Uiso   1.00
H495   H     0.49969   0.38236   0.91383   0.00000  Uiso   1.00
H496   H     0.54273   0.47036   0.38034   0.00000  Uiso   1.00
H497   H     0.99379   0.35236   0.60315   0.00000  Uiso   1.00
O498   O     0.48085   0.43004   0.03844   0.00000  Uiso   1.00
O499   O     0.53732   0.54550   0.33852   0.00000  Uiso   1.00
O500   O     0.12910   0.39069   0.63085   0.00000  Uiso   1.00
N501   N     0.56831   0.46623   0.95219   0.00000  Uiso   1.00
N502   N     0.60853   0.54851   0.45342   0.00000  Uiso   1.00
N503   N     0.03024   0.43819   0.66171   0.00000  Uiso   1.00
N504   N     0.52846   0.40842   0.91254   0.00000  Uiso   1.00
N505   N     0.56868   0.49070   0.41377   0.00000  Uiso   1.00
N506   N     0.99039   0.38038   0.62206   0.00000  Uiso   1.00
C507   C     0.43934   0.24492   0.41951   0.00000  Uiso   1.00
C508   C     0.49760   0.22694   0.47597   0.00000  Uiso   1.00
C509   C     0.57073   0.24316   0.49561   0.00000  Uiso   1.00
C510   C     0.61525   0.22215   0.54838   0.00000  Uiso   1.00
C511   C     0.70991   0.19971   0.63122   0.00000  Uiso   1.00
C512   C     0.35786   0.24852   0.46702   0.00000  Uiso   1.00
C513   C     0.31349   0.28288   0.47913   0.00000  Uiso   1.00
C514   C     0.24037   0.28003   0.52435   0.00000  Uiso   1.00
C515   C     0.11805   0.29107   0.59325   0.00000  Uiso   1.00
C516   C     0.42760   0.21398   0.35581   0.00000  Uiso   1.00
C517   C     0.44186   0.21930   0.27441   0.00000  Uiso   1.00
C518   C     0.42744   0.18737   0.22600   0.00000  Uiso   1.00
C519   C     0.41342   0.14479   0.12223   0.00000  Uiso   1.00
C520   C     0.38835   0.17877   0.47827   0.00000  Uiso   1.00
C521   C     0.46990   0.19101   0.50788   0.00000  Uiso   1.00
C522   C     0.51432   0.16997   0.56063   0.00000  Uiso   1.00
C523   C     0.58751   0.18616   0.58035   0.00000  Uiso   1.00
C524   C     0.33016   0.21259   0.49893   0.00000  Uiso   1.00
C525   C     0.25708   0.20969   0.54414   0.00000  Uiso   1.00
C526   C     0.21262   0.24403   0.55632   0.00000  Uiso   1.00
C527   C     0.39991   0.17805   0.38772   0.00000  Uiso   1.00
C528   C     0.38546   0.14611   0.33943   0.00000  Uiso   1.00
C529   C     0.39970   0.15137   0.25797   0.00000  Uiso   1.00
H530   H     0.46089   0.27290   0.39466   0.00000  Uiso   1.00
H531   H     0.59214   0.27097   0.47091   0.00000  Uiso   1.00
H532   H     0.33494   0.31068   0.45442   0.00000  Uiso   1.00
H533   H     0.46329   0.24711   0.24973   0.00000  Uiso   1.00
H534   H     0.72542   0.25300   0.56954   0.00000  Uiso   1.00
H535   H     0.18309   0.33672   0.53475   0.00000  Uiso   1.00
H536   H     0.45375   0.20267   0.10313   0.00000  Uiso   1.00
H537   H     0.36679   0.15080   0.50312   0.00000  Uiso   1.00
H538   H     0.49288   0.14217   0.58532   0.00000  Uiso   1.00
H539   H     0.23567   0.18188   0.56883   0.00000  Uiso   1.00
H540   H     0.36403   0.11830   0.36414   0.00000  Uiso   1.00
H541   H     0.64486   0.14846   0.66240   0.00000  Uiso   1.00
H542   H     0.10252   0.23218   0.62760   0.00000  Uiso   1.00
H543   H     0.37318   0.09813   0.19599   0.00000  Uiso   1.00
O544   O     0.76977   0.19726   0.66811   0.00000  Uiso   1.00
O545   O     0.05824   0.30710   0.62244   0.00000  Uiso   1.00
O546   O     0.41334   0.13123   0.05618   0.00000  Uiso   1.00
N547   N     0.68917   0.22957   0.58010   0.00000  Uiso   1.00
N548   N     0.18212   0.30785   0.54758   0.00000  Uiso   1.00
N549   N     0.43514   0.18253   0.14406   0.00000  Uiso   1.00
N550   N     0.64582   0.17332   0.63007   0.00000  Uiso   1.00
N551   N     0.13877   0.25159   0.59755   0.00000  Uiso   1.00
N552   N     0.39179   0.12627   0.19402   0.00000  Uiso   1.00
C553   C     0.32496   0.97753   0.28946   0.00000  Uiso   1.00
C554   C     0.27480   0.95769   0.35734   0.00000  Uiso   1.00
C555   C     0.25633   0.97365   0.43215   0.00000  Uiso   1.00
C556   C     0.20964   0.95084   0.48597   0.00000  Uiso   1.00
C557   C     0.13586   0.92574   0.59446   0.00000  Uiso   1.00
C558   C     0.27141   0.97830   0.21910   0.00000  Uiso   1.00
C559   C     0.25010   0.01159   0.17768   0.00000  Uiso   1.00
C560   C     0.20058   0.00612   0.11511   0.00000  Uiso   1.00
C561   C     0.12159   0.01302   0.00894   0.00000  Uiso   1.00
C562   C     0.39435   0.94938   0.26626   0.00000  Uiso   1.00
C563   C     0.47641   0.95835   0.26447   0.00000  Uiso   1.00
C564   C     0.53039   0.92854   0.24159   0.00000  Uiso   1.00
C565   C     0.64227   0.89053   0.20865   0.00000  Uiso   1.00
C566   C     0.27489   0.90864   0.25199   0.00000  Uiso   1.00
C567   C     0.24760   0.92027   0.33699   0.00000  Uiso   1.00
C568   C     0.20094   0.89743   0.39071   0.00000  Uiso   1.00
C569   C     0.18240   0.91335   0.46559   0.00000  Uiso   1.00
C570   C     0.24422   0.94089   0.19875   0.00000  Uiso   1.00
C571   C     0.19472   0.93537   0.13623   0.00000  Uiso   1.00
C572   C     0.17334   0.96864   0.09473   0.00000  Uiso   1.00
C573   C     0.36716   0.91196   0.24591   0.00000  Uiso   1.00
C574   C     0.42102   0.88213   0.22303   0.00000  Uiso   1.00
C575   C     0.50314   0.89105   0.22121   0.00000  Uiso   1.00
H576   H     0.34612   0.00667   0.30529   0.00000  Uiso   1.00
H577   H     0.27738   0.00262   0.44788   0.00000  Uiso   1.00
H578   H     0.27116   0.04055   0.19343   0.00000  Uiso   1.00
H579   H     0.49743   0.98731   0.28022   0.00000  Uiso   1.00
H580   H     0.18914   0.98163   0.59697   0.00000  Uiso   1.00
H581   H     0.17606   0.06161   0.06045   0.00000  Uiso   1.00
H582   H     0.65319   0.94936   0.24345   0.00000  Uiso   1.00
H583   H     0.25372   0.87950   0.23615   0.00000  Uiso   1.00
H584   H     0.17990   0.86847   0.37494   0.00000  Uiso   1.00
H585   H     0.17369   0.90640   0.12050   0.00000  Uiso   1.00
H586   H     0.39995   0.85317   0.20728   0.00000  Uiso   1.00
H587   H     0.11002   0.87275   0.53778   0.00000  Uiso   1.00
H588   H     0.09695   0.95273   0.00124   0.00000  Uiso   1.00
H589   H     0.57407   0.84048   0.18425   0.00000  Uiso   1.00
O590   O     0.10266   0.92223   0.65991   0.00000  Uiso   1.00
O591   O     0.08552   0.02716   0.95600   0.00000  Uiso   1.00
O592   O     0.71150   0.87989   0.19610   0.00000  Uiso   1.00
N593   N     0.18066   0.95751   0.56400   0.00000  Uiso   1.00
N594   N     0.16842   0.03229   0.06238   0.00000  Uiso   1.00
N595   N     0.61450   0.92735   0.23346   0.00000  Uiso   1.00
N596   N     0.13809   0.89893   0.53215   0.00000  Uiso   1.00
N597   N     0.12585   0.97370   0.03053   0.00000  Uiso   1.00
N598   N     0.57193   0.86876   0.20160   0.00000  Uiso   1.00
C599   C     0.04487   0.75196   0.05338   0.00000  Uiso   1.00
C600   C     0.10377   0.73311   0.10810   0.00000  Uiso   1.00
C601   C     0.17471   0.75002   0.13185   0.00000  Uiso   1.00
C602   C     0.22027   0.72800   0.18210   0.00000  Uiso   1.00
C603   C     0.31544   0.70445   0.26321   0.00000  Uiso   1.00
C604   C     0.96236   0.75206   0.09965   0.00000  Uiso   1.00
C605   C     0.91441   0.78490   0.11628   0.00000  Uiso   1.00
C606   C     0.84093   0.77884   0.15941   0.00000  Uiso   1.00
C607   C     0.71653   0.78471   0.22735   0.00000  Uiso   1.00
C608   C     0.03748   0.72332   0.98462   0.00000  Uiso   1.00
C609   C     0.05266   0.73201   0.90453   0.00000  Uiso   1.00
C610   C     0.04240   0.70175   0.85080   0.00000  Uiso   1.00
C611   C     0.03464   0.66300   0.74014   0.00000  Uiso   1.00
C612   C     0.99963   0.68279   0.10038   0.00000  Uiso   1.00
C613   C     0.07919   0.69554   0.13363   0.00000  Uiso   1.00
C614   C     0.12466   0.67349   0.18385   0.00000  Uiso   1.00
C615   C     0.19566   0.69037   0.20767   0.00000  Uiso   1.00
C616   C     0.93779   0.71449   0.12518   0.00000  Uiso   1.00
C617   C     0.86436   0.70838   0.16828   0.00000  Uiso   1.00
C618   C     0.81631   0.74121   0.18498   0.00000  Uiso   1.00
C619   C     0.01291   0.68575   0.01015   0.00000  Uiso   1.00
C620   C     0.00262   0.65548   0.95653   0.00000  Uiso   1.00
C621   C     0.01779   0.66412   0.87638   0.00000  Uiso   1.00
H622   H     0.06400   0.78121   0.03351   0.00000  Uiso   1.00
H623   H     0.19370   0.77909   0.11209   0.00000  Uiso   1.00
H624   H     0.93344   0.81397   0.09651   0.00000  Uiso   1.00
H625   H     0.07167   0.76108   0.88480   0.00000  Uiso   1.00
H626   H     0.32665   0.76018   0.21049   0.00000  Uiso   1.00
H627   H     0.77786   0.83372   0.17763   0.00000  Uiso   1.00
H628   H     0.06935   0.72220   0.73117   0.00000  Uiso   1.00
H629   H     0.98050   0.65355   0.12026   0.00000  Uiso   1.00
H630   H     0.10563   0.64442   0.20360   0.00000  Uiso   1.00
H631   H     0.84536   0.67930   0.18803   0.00000  Uiso   1.00
H632   H     0.98360   0.62641   0.97631   0.00000  Uiso   1.00
H633   H     0.25517   0.65088   0.28476   0.00000  Uiso   1.00
H634   H     0.70637   0.72442   0.25190   0.00000  Uiso   1.00
H635   H     0.99787   0.61290   0.80545   0.00000  Uiso   1.00
O636   O     0.37471   0.70184   0.30090   0.00000  Uiso   1.00
O637   O     0.65471   0.79832   0.25778   0.00000  Uiso   1.00
O638   O     0.03715   0.65201   0.67205   0.00000  Uiso   1.00
N639   N     0.29266   0.73571   0.21652   0.00000  Uiso   1.00
N640   N     0.77958   0.80447   0.18581   0.00000  Uiso   1.00
N641   N     0.05208   0.70020   0.76841   0.00000  Uiso   1.00
N642   N     0.25420   0.67689   0.25649   0.00000  Uiso   1.00
N643   N     0.74111   0.74565   0.22577   0.00000  Uiso   1.00
N644   N     0.01362   0.64139   0.80838   0.00000  Uiso   1.00
C645   C     0.26079   0.98939   0.80736   0.00000  Uiso   1.00
C646   C     0.31762   0.96888   0.74552   0.00000  Uiso   1.00
C647   C     0.34321   0.98383   0.67143   0.00000  Uiso   1.00
C648   C     0.39522   0.96053   0.62351   0.00000  Uiso   1.00
C649   C     0.47962   0.93431   0.52364   0.00000  Uiso   1.00
C650   C     0.30655   0.99156   0.88297   0.00000  Uiso   1.00
C651   C     0.32282   0.02558   0.92447   0.00000  Uiso   1.00
C652   C     0.36550   0.02137   0.99227   0.00000  Uiso   1.00
C653   C     0.43266   0.03035   0.10584   0.00000  Uiso   1.00
C654   C     0.19033   0.96115   0.82556   0.00000  Uiso   1.00
C655   C     0.10887   0.96961   0.81880   0.00000  Uiso   1.00
C656   C     0.05371   0.93980   0.83827   0.00000  Uiso   1.00
C657   C     0.94042   0.90157   0.86269   0.00000  Uiso   1.00
C658   C     0.30765   0.92141   0.85399   0.00000  Uiso   1.00
C659   C     0.34307   0.93195   0.77085   0.00000  Uiso   1.00
C660   C     0.39506   0.90862   0.72302   0.00000  Uiso   1.00
C661   C     0.42072   0.92354   0.64888   0.00000  Uiso   1.00
C662   C     0.33200   0.95463   0.90830   0.00000  Uiso   1.00
C663   C     0.37466   0.95037   0.97606   0.00000  Uiso   1.00
C664   C     0.39100   0.98438   0.01764   0.00000  Uiso   1.00
C665   C     0.21578   0.92423   0.85088   0.00000  Uiso   1.00
C666   C     0.16073   0.89440   0.87038   0.00000  Uiso   1.00
C667   C     0.07921   0.90281   0.86365   0.00000  Uiso   1.00
H668   H     0.24097   0.01814   0.78765   0.00000  Uiso   1.00
H669   H     0.32350   0.01241   0.65186   0.00000  Uiso   1.00
H670   H     0.30311   0.05415   0.90486   0.00000  Uiso   1.00
H671   H     0.08920   0.99819   0.79920   0.00000  Uiso   1.00
H672   H     0.42625   0.98979   0.51249   0.00000  Uiso   1.00
H673   H     0.38322   0.07779   0.04597   0.00000  Uiso   1.00
H674   H     0.93215   0.95979   0.82316   0.00000  Uiso   1.00
H675   H     0.32747   0.89266   0.87371   0.00000  Uiso   1.00
H676   H     0.41474   0.88005   0.74264   0.00000  Uiso   1.00
H677   H     0.39435   0.92179   0.99564   0.00000  Uiso   1.00
H678   H     0.18044   0.86583   0.88998   0.00000  Uiso   1.00
H679   H     0.50031   0.88236   0.58617   0.00000  Uiso   1.00
H680   H     0.45727   0.97036   0.11966   0.00000  Uiso   1.00
H681   H     0.00621   0.85236   0.89685   0.00000  Uiso   1.00
O682   O     0.51915   0.93004   0.46156   0.00000  Uiso   1.00
O683   O     0.46268   0.04550   0.16148   0.00000  Uiso   1.00
O684   O     0.87090   0.89069   0.86915   0.00000  Uiso   1.00
N685   N     0.43169   0.96623   0.54781   0.00000  Uiso   1.00
N686   N     0.39147   0.04851   0.04658   0.00000  Uiso   1.00
N687   N     0.96976   0.93819   0.83829   0.00000  Uiso   1.00
N688   N     0.47154   0.90842   0.58746   0.00000  Uiso   1.00
N689   N     0.43132   0.99070   0.08623   0.00000  Uiso   1.00
N690   N     0.00961   0.88038   0.87794   0.00000  Uiso   1.00
C691   C     0.56066   0.74492   0.08049   0.00000  Uiso   1.00
C692   C     0.50240   0.72694   0.02403   0.00000  Uiso   1.00
C693   C     0.42927   0.74316   0.00439   0.00000  Uiso   1.00
C694   C     0.38475   0.72215   0.95162   0.00000  Uiso   1.00
C695   C     0.29009   0.69971   0.86878   0.00000  Uiso   1.00
C696   C     0.64214   0.74852   0.03298   0.00000  Uiso   1.00
C697   C     0.68651   0.78288   0.02087   0.00000  Uiso   1.00
C698   C     0.75963   0.78003   0.97565   0.00000  Uiso   1.00
C699   C     0.88195   0.79107   0.90675   0.00000  Uiso   1.00
C700   C     0.57240   0.71398   0.14419   0.00000  Uiso   1.00
C701   C     0.55814   0.71930   0.22559   0.00000  Uiso   1.00
C702   C     0.57256   0.68737   0.27400   0.00000  Uiso   1.00
C703   C     0.58658   0.64479   0.37777   0.00000  Uiso   1.00
C704   C     0.61165   0.67877   0.02173   0.00000  Uiso   1.00
C705   C     0.53010   0.69101   0.99212   0.00000  Uiso   1.00
C706   C     0.48568   0.66997   0.93937   0.00000  Uiso   1.00
C707   C     0.41249   0.68616   0.91965   0.00000  Uiso   1.00
C708   C     0.66984   0.71259   0.00107   0.00000  Uiso   1.00
C709   C     0.74292   0.70969   0.95586   0.00000  Uiso   1.00
C710   C     0.78738   0.74403   0.94368   0.00000  Uiso   1.00
C711   C     0.60009   0.67805   0.11228   0.00000  Uiso   1.00
C712   C     0.61454   0.64611   0.16057   0.00000  Uiso   1.00
C713   C     0.60030   0.65137   0.24203   0.00000  Uiso   1.00
H714   H     0.53911   0.77290   0.10534   0.00000  Uiso   1.00
H715   H     0.40786   0.77097   0.02909   0.00000  Uiso   1.00
H716   H     0.66506   0.81068   0.04558   0.00000  Uiso   1.00
H717   H     0.53671   0.74711   0.25027   0.00000  Uiso   1.00
H718   H     0.27458   0.75300   0.93046   0.00000  Uiso   1.00
H719   H     0.81691   0.83672   0.96525   0.00000  Uiso   1.00
H720   H     0.54625   0.70267   0.39687   0.00000  Uiso   1.00
H721   H     0.63321   0.65080   0.99688   0.00000  Uiso   1.00
H722   H     0.50712   0.64217   0.91468   0.00000  Uiso   1.00
H723   H     0.76433   0.68188   0.93117   0.00000  Uiso   1.00
H724   H     0.63597   0.61830   0.13586   0.00000  Uiso   1.00
H725   H     0.35514   0.64846   0.83760   0.00000  Uiso   1.00
H726   H     0.89748   0.73218   0.87240   0.00000  Uiso   1.00
H727   H     0.62682   0.59813   0.30401   0.00000  Uiso   1.00
O728   O     0.23023   0.69726   0.83189   0.00000  Uiso   1.00
O729   O     0.94176   0.80710   0.87756   0.00000  Uiso   1.00
O730   O     0.58666   0.63123   0.44382   0.00000  Uiso   1.00
N731   N     0.31083   0.72957   0.91990   0.00000  Uiso   1.00
N732   N     0.81788   0.80785   0.95242   0.00000  Uiso   1.00
N733   N     0.56486   0.68253   0.35594   0.00000  Uiso   1.00
N734   N     0.35418   0.67332   0.86993   0.00000  Uiso   1.00
N735   N     0.86123   0.75159   0.90245   0.00000  Uiso   1.00
N736   N     0.60821   0.62627   0.30598   0.00000  Uiso   1.00
