data_job_03403
_audit_creation_date              2018-12-19
_audit_creation_method            'Materials Studio'
_symmetry_space_group_name_H-M    'P1'
_symmetry_Int_Tables_number       1
_symmetry_cell_setting            triclinic
loop_
_symmetry_equiv_pos_as_xyz
  x,y,z
_cell_length_a                    11.8983
_cell_length_b                    76.2105
_cell_length_c                    15.8697
_cell_angle_alpha                 90.0000
_cell_angle_beta                  90.0000
_cell_angle_gamma                 90.0000
loop_
_atom_site_label
_atom_site_type_symbol
_atom_site_fract_x
_atom_site_fract_y
_atom_site_fract_z
_atom_site_U_iso_or_equiv
_atom_site_adp_type
_atom_site_occupancy
C1     C     0.62749   0.56684   0.22893   0.00000  Uiso   1.00
C2     C     0.62069   0.57755   0.14794   0.00000  Uiso   1.00
C3     C     0.54209   0.57531   0.08423   0.00000  Uiso   1.00
C4     C     0.55004   0.58644   0.01522   0.00000  Uiso   1.00
C5     C     0.52679   0.60111   0.89021   0.00000  Uiso   1.00
C6     C     0.74588   0.55919   0.23150   0.00000  Uiso   1.00
C7     C     0.77254   0.54152   0.23806   0.00000  Uiso   1.00
C8     C     0.88588   0.53719   0.23940   0.00000  Uiso   1.00
C9     C     0.05699   0.52335   0.24417   0.00000  Uiso   1.00
C10    C     0.62137   0.58004   0.30100   0.00000  Uiso   1.00
C11    C     0.54336   0.57989   0.36601   0.00000  Uiso   1.00
C12    C     0.55188   0.59311   0.42587   0.00000  Uiso   1.00
C13    C     0.52967   0.61164   0.53855   0.00000  Uiso   1.00
C14    C     0.78137   0.59058   0.21966   0.00000  Uiso   1.00
C15    C     0.70427   0.59045   0.14291   0.00000  Uiso   1.00
C16    C     0.71233   0.60158   0.07397   0.00000  Uiso   1.00
C17    C     0.63376   0.59936   0.01017   0.00000  Uiso   1.00
C18    C     0.82946   0.57209   0.22646   0.00000  Uiso   1.00
C19    C     0.94278   0.56778   0.22780   0.00000  Uiso   1.00
C20    C     0.96961   0.55011   0.23435   0.00000  Uiso   1.00
C21    C     0.70495   0.59293   0.29596   0.00000  Uiso   1.00
C22    C     0.71360   0.60616   0.35574   0.00000  Uiso   1.00
C23    C     0.63561   0.60603   0.42083   0.00000  Uiso   1.00
H24    H     0.56243   0.55680   0.23286   0.00000  Uiso   1.00
H25    H     0.47743   0.56533   0.08815   0.00000  Uiso   1.00
H26    H     0.70784   0.53154   0.24196   0.00000  Uiso   1.00
H27    H     0.47869   0.56991   0.36989   0.00000  Uiso   1.00
H28    H     0.42007   0.58048   0.92548   0.00000  Uiso   1.00
H29    H     0.90591   0.50922   0.24983   0.00000  Uiso   1.00
H30    H     0.42271   0.59013   0.51959   0.00000  Uiso   1.00
H31    H     0.84645   0.60062   0.21574   0.00000  Uiso   1.00
H32    H     0.77702   0.61156   0.07009   0.00000  Uiso   1.00
H33    H     0.00744   0.57777   0.22390   0.00000  Uiso   1.00
H34    H     0.77829   0.61613   0.35183   0.00000  Uiso   1.00
H35    H     0.66324   0.61800   0.91082   0.00000  Uiso   1.00
H36    H     0.14908   0.54674   0.23518   0.00000  Uiso   1.00
H37    H     0.66587   0.62765   0.50493   0.00000  Uiso   1.00
O38    O     0.49089   0.60564   0.82264   0.00000  Uiso   1.00
O39    O     0.12829   0.51216   0.24819   0.00000  Uiso   1.00
O40    O     0.49433   0.61830   0.60209   0.00000  Uiso   1.00
N41    N     0.48681   0.58781   0.94203   0.00000  Uiso   1.00
N42    N     0.94105   0.52119   0.24526   0.00000  Uiso   1.00
N43    N     0.48931   0.59682   0.49747   0.00000  Uiso   1.00
N44    N     0.61766   0.60800   0.93414   0.00000  Uiso   1.00
N45    N     0.07189   0.54138   0.23738   0.00000  Uiso   1.00
N46    N     0.62015   0.61701   0.48958   0.00000  Uiso   1.00
C47    C     0.62749   0.06684   0.72893   0.00000  Uiso   1.00
C48    C     0.62069   0.07755   0.64794   0.00000  Uiso   1.00
C49    C     0.54209   0.07531   0.58423   0.00000  Uiso   1.00
C50    C     0.55004   0.08644   0.51522   0.00000  Uiso   1.00
C51    C     0.52679   0.10111   0.39021   0.00000  Uiso   1.00
C52    C     0.74588   0.05919   0.73150   0.00000  Uiso   1.00
C53    C     0.77254   0.04152   0.73806   0.00000  Uiso   1.00
C54    C     0.88588   0.03719   0.73940   0.00000  Uiso   1.00
C55    C     0.05699   0.02335   0.74417   0.00000  Uiso   1.00
C56    C     0.62137   0.08004   0.80100   0.00000  Uiso   1.00
C57    C     0.54336   0.07989   0.86601   0.00000  Uiso   1.00
C58    C     0.55188   0.09311   0.92587   0.00000  Uiso   1.00
C59    C     0.52967   0.11164   0.03855   0.00000  Uiso   1.00
C60    C     0.78137   0.09058   0.71966   0.00000  Uiso   1.00
C61    C     0.70427   0.09045   0.64291   0.00000  Uiso   1.00
C62    C     0.71233   0.10158   0.57397   0.00000  Uiso   1.00
C63    C     0.63376   0.09936   0.51017   0.00000  Uiso   1.00
C64    C     0.82946   0.07209   0.72646   0.00000  Uiso   1.00
C65    C     0.94278   0.06778   0.72780   0.00000  Uiso   1.00
C66    C     0.96961   0.05011   0.73435   0.00000  Uiso   1.00
C67    C     0.70495   0.09293   0.79596   0.00000  Uiso   1.00
C68    C     0.71360   0.10616   0.85574   0.00000  Uiso   1.00
C69    C     0.63561   0.10603   0.92083   0.00000  Uiso   1.00
H70    H     0.56243   0.05680   0.73286   0.00000  Uiso   1.00
H71    H     0.47743   0.06533   0.58815   0.00000  Uiso   1.00
H72    H     0.70784   0.03154   0.74196   0.00000  Uiso   1.00
H73    H     0.47869   0.06991   0.86989   0.00000  Uiso   1.00
H74    H     0.42007   0.08048   0.42548   0.00000  Uiso   1.00
H75    H     0.90591   0.00922   0.74983   0.00000  Uiso   1.00
H76    H     0.42271   0.09013   0.01959   0.00000  Uiso   1.00
H77    H     0.84645   0.10062   0.71574   0.00000  Uiso   1.00
H78    H     0.77702   0.11156   0.57009   0.00000  Uiso   1.00
H79    H     0.00744   0.07777   0.72390   0.00000  Uiso   1.00
H80    H     0.77829   0.11613   0.85183   0.00000  Uiso   1.00
H81    H     0.66324   0.11800   0.41082   0.00000  Uiso   1.00
H82    H     0.14908   0.04674   0.73518   0.00000  Uiso   1.00
H83    H     0.66587   0.12765   0.00493   0.00000  Uiso   1.00
O84    O     0.49089   0.10564   0.32264   0.00000  Uiso   1.00
O85    O     0.12829   0.01216   0.74819   0.00000  Uiso   1.00
O86    O     0.49433   0.11830   0.10209   0.00000  Uiso   1.00
N87    N     0.48681   0.08781   0.44203   0.00000  Uiso   1.00
N88    N     0.94105   0.02119   0.74526   0.00000  Uiso   1.00
N89    N     0.48931   0.09682   0.99747   0.00000  Uiso   1.00
N90    N     0.61766   0.10800   0.43414   0.00000  Uiso   1.00
N91    N     0.07189   0.04138   0.73738   0.00000  Uiso   1.00
N92    N     0.62015   0.11701   0.98958   0.00000  Uiso   1.00
C93    C     0.12749   0.56684   0.72893   0.00000  Uiso   1.00
C94    C     0.12069   0.57755   0.64794   0.00000  Uiso   1.00
C95    C     0.04209   0.57531   0.58423   0.00000  Uiso   1.00
C96    C     0.05004   0.58644   0.51522   0.00000  Uiso   1.00
C97    C     0.02679   0.60111   0.39021   0.00000  Uiso   1.00
C98    C     0.24588   0.55919   0.73150   0.00000  Uiso   1.00
C99    C     0.27254   0.54152   0.73806   0.00000  Uiso   1.00
C100   C     0.38588   0.53719   0.73940   0.00000  Uiso   1.00
C101   C     0.55699   0.52335   0.74417   0.00000  Uiso   1.00
C102   C     0.12137   0.58004   0.80100   0.00000  Uiso   1.00
C103   C     0.04336   0.57989   0.86601   0.00000  Uiso   1.00
C104   C     0.05188   0.59311   0.92587   0.00000  Uiso   1.00
C105   C     0.02967   0.61164   0.03855   0.00000  Uiso   1.00
C106   C     0.28137   0.59058   0.71966   0.00000  Uiso   1.00
C107   C     0.20427   0.59045   0.64291   0.00000  Uiso   1.00
C108   C     0.21233   0.60158   0.57397   0.00000  Uiso   1.00
C109   C     0.13376   0.59936   0.51017   0.00000  Uiso   1.00
C110   C     0.32946   0.57209   0.72646   0.00000  Uiso   1.00
C111   C     0.44278   0.56778   0.72780   0.00000  Uiso   1.00
C112   C     0.46961   0.55011   0.73435   0.00000  Uiso   1.00
C113   C     0.20495   0.59293   0.79596   0.00000  Uiso   1.00
C114   C     0.21360   0.60616   0.85574   0.00000  Uiso   1.00
C115   C     0.13561   0.60603   0.92083   0.00000  Uiso   1.00
H116   H     0.06243   0.55680   0.73286   0.00000  Uiso   1.00
H117   H     0.97743   0.56533   0.58815   0.00000  Uiso   1.00
H118   H     0.20784   0.53154   0.74196   0.00000  Uiso   1.00
H119   H     0.97869   0.56991   0.86989   0.00000  Uiso   1.00
H120   H     0.92007   0.58048   0.42548   0.00000  Uiso   1.00
H121   H     0.40591   0.50922   0.74983   0.00000  Uiso   1.00
H122   H     0.92271   0.59013   0.01959   0.00000  Uiso   1.00
H123   H     0.34645   0.60062   0.71574   0.00000  Uiso   1.00
H124   H     0.27702   0.61156   0.57009   0.00000  Uiso   1.00
H125   H     0.50744   0.57777   0.72390   0.00000  Uiso   1.00
H126   H     0.27829   0.61613   0.85183   0.00000  Uiso   1.00
H127   H     0.16324   0.61800   0.41082   0.00000  Uiso   1.00
H128   H     0.64908   0.54674   0.73518   0.00000  Uiso   1.00
H129   H     0.16587   0.62765   0.00493   0.00000  Uiso   1.00
O130   O     0.99089   0.60564   0.32264   0.00000  Uiso   1.00
O131   O     0.62829   0.51216   0.74819   0.00000  Uiso   1.00
O132   O     0.99433   0.61830   0.10209   0.00000  Uiso   1.00
N133   N     0.98681   0.58781   0.44203   0.00000  Uiso   1.00
N134   N     0.44105   0.52119   0.74526   0.00000  Uiso   1.00
N135   N     0.98931   0.59682   0.99747   0.00000  Uiso   1.00
N136   N     0.11766   0.60800   0.43414   0.00000  Uiso   1.00
N137   N     0.57189   0.54138   0.73738   0.00000  Uiso   1.00
N138   N     0.12015   0.61701   0.98958   0.00000  Uiso   1.00
C139   C     0.12749   0.06684   0.22893   0.00000  Uiso   1.00
C140   C     0.12069   0.07755   0.14794   0.00000  Uiso   1.00
C141   C     0.04209   0.07531   0.08423   0.00000  Uiso   1.00
C142   C     0.05004   0.08644   0.01522   0.00000  Uiso   1.00
C143   C     0.02679   0.10111   0.89021   0.00000  Uiso   1.00
C144   C     0.24588   0.05919   0.23150   0.00000  Uiso   1.00
C145   C     0.27254   0.04152   0.23806   0.00000  Uiso   1.00
C146   C     0.38588   0.03719   0.23940   0.00000  Uiso   1.00
C147   C     0.55699   0.02335   0.24417   0.00000  Uiso   1.00
C148   C     0.12137   0.08004   0.30100   0.00000  Uiso   1.00
C149   C     0.04336   0.07989   0.36601   0.00000  Uiso   1.00
C150   C     0.05188   0.09311   0.42587   0.00000  Uiso   1.00
C151   C     0.02967   0.11164   0.53855   0.00000  Uiso   1.00
C152   C     0.28137   0.09058   0.21966   0.00000  Uiso   1.00
C153   C     0.20427   0.09045   0.14291   0.00000  Uiso   1.00
C154   C     0.21233   0.10158   0.07397   0.00000  Uiso   1.00
C155   C     0.13376   0.09936   0.01017   0.00000  Uiso   1.00
C156   C     0.32946   0.07209   0.22646   0.00000  Uiso   1.00
C157   C     0.44278   0.06778   0.22780   0.00000  Uiso   1.00
C158   C     0.46961   0.05011   0.23435   0.00000  Uiso   1.00
C159   C     0.20495   0.09293   0.29596   0.00000  Uiso   1.00
C160   C     0.21360   0.10616   0.35574   0.00000  Uiso   1.00
C161   C     0.13561   0.10603   0.42083   0.00000  Uiso   1.00
H162   H     0.06243   0.05680   0.23286   0.00000  Uiso   1.00
H163   H     0.97743   0.06533   0.08815   0.00000  Uiso   1.00
H164   H     0.20784   0.03154   0.24196   0.00000  Uiso   1.00
H165   H     0.97869   0.06991   0.36989   0.00000  Uiso   1.00
H166   H     0.92007   0.08048   0.92548   0.00000  Uiso   1.00
H167   H     0.40591   0.00922   0.24983   0.00000  Uiso   1.00
H168   H     0.92271   0.09013   0.51959   0.00000  Uiso   1.00
H169   H     0.34645   0.10062   0.21574   0.00000  Uiso   1.00
H170   H     0.27702   0.11156   0.07009   0.00000  Uiso   1.00
H171   H     0.50744   0.07777   0.22390   0.00000  Uiso   1.00
H172   H     0.27829   0.11613   0.35183   0.00000  Uiso   1.00
H173   H     0.16324   0.11800   0.91082   0.00000  Uiso   1.00
H174   H     0.64908   0.04674   0.23518   0.00000  Uiso   1.00
H175   H     0.16587   0.12765   0.50493   0.00000  Uiso   1.00
O176   O     0.99089   0.10564   0.82264   0.00000  Uiso   1.00
O177   O     0.62829   0.01216   0.24819   0.00000  Uiso   1.00
O178   O     0.99433   0.11830   0.60209   0.00000  Uiso   1.00
N179   N     0.98681   0.08781   0.94203   0.00000  Uiso   1.00
N180   N     0.44105   0.02119   0.24526   0.00000  Uiso   1.00
N181   N     0.98931   0.09682   0.49747   0.00000  Uiso   1.00
N182   N     0.11766   0.10800   0.93414   0.00000  Uiso   1.00
N183   N     0.57189   0.04138   0.23738   0.00000  Uiso   1.00
N184   N     0.12015   0.11701   0.48958   0.00000  Uiso   1.00
C185   C     0.37251   0.43316   0.22893   0.00000  Uiso   1.00
C186   C     0.37931   0.42245   0.14794   0.00000  Uiso   1.00
C187   C     0.45791   0.42469   0.08423   0.00000  Uiso   1.00
C188   C     0.44996   0.41356   0.01522   0.00000  Uiso   1.00
C189   C     0.47321   0.39889   0.89021   0.00000  Uiso   1.00
C190   C     0.25412   0.44081   0.23150   0.00000  Uiso   1.00
C191   C     0.22746   0.45848   0.23806   0.00000  Uiso   1.00
C192   C     0.11412   0.46281   0.23940   0.00000  Uiso   1.00
C193   C     0.94301   0.47665   0.24417   0.00000  Uiso   1.00
C194   C     0.37863   0.41996   0.30100   0.00000  Uiso   1.00
C195   C     0.45664   0.42011   0.36601   0.00000  Uiso   1.00
C196   C     0.44812   0.40689   0.42587   0.00000  Uiso   1.00
C197   C     0.47033   0.38836   0.53855   0.00000  Uiso   1.00
C198   C     0.21863   0.40942   0.21966   0.00000  Uiso   1.00
C199   C     0.29573   0.40955   0.14291   0.00000  Uiso   1.00
C200   C     0.28767   0.39842   0.07397   0.00000  Uiso   1.00
C201   C     0.36624   0.40064   0.01017   0.00000  Uiso   1.00
C202   C     0.17054   0.42791   0.22646   0.00000  Uiso   1.00
C203   C     0.05722   0.43222   0.22780   0.00000  Uiso   1.00
C204   C     0.03039   0.44989   0.23435   0.00000  Uiso   1.00
C205   C     0.29505   0.40707   0.29596   0.00000  Uiso   1.00
C206   C     0.28640   0.39384   0.35574   0.00000  Uiso   1.00
C207   C     0.36439   0.39397   0.42083   0.00000  Uiso   1.00
H208   H     0.43757   0.44320   0.23286   0.00000  Uiso   1.00
H209   H     0.52257   0.43467   0.08815   0.00000  Uiso   1.00
H210   H     0.29216   0.46846   0.24196   0.00000  Uiso   1.00
H211   H     0.52131   0.43009   0.36989   0.00000  Uiso   1.00
H212   H     0.57993   0.41952   0.92548   0.00000  Uiso   1.00
H213   H     0.09409   0.49078   0.24983   0.00000  Uiso   1.00
H214   H     0.57729   0.40987   0.51959   0.00000  Uiso   1.00
H215   H     0.15355   0.39938   0.21574   0.00000  Uiso   1.00
H216   H     0.22298   0.38844   0.07009   0.00000  Uiso   1.00
H217   H     0.99256   0.42223   0.22390   0.00000  Uiso   1.00
H218   H     0.22171   0.38387   0.35183   0.00000  Uiso   1.00
H219   H     0.33676   0.38200   0.91082   0.00000  Uiso   1.00
H220   H     0.85092   0.45326   0.23518   0.00000  Uiso   1.00
H221   H     0.33413   0.37235   0.50493   0.00000  Uiso   1.00
O222   O     0.50911   0.39436   0.82264   0.00000  Uiso   1.00
O223   O     0.87171   0.48784   0.24819   0.00000  Uiso   1.00
O224   O     0.50567   0.38170   0.60209   0.00000  Uiso   1.00
N225   N     0.51319   0.41219   0.94203   0.00000  Uiso   1.00
N226   N     0.05895   0.47881   0.24526   0.00000  Uiso   1.00
N227   N     0.51069   0.40318   0.49747   0.00000  Uiso   1.00
N228   N     0.38234   0.39200   0.93414   0.00000  Uiso   1.00
N229   N     0.92811   0.45862   0.23738   0.00000  Uiso   1.00
N230   N     0.37985   0.38299   0.48958   0.00000  Uiso   1.00
C231   C     0.37251   0.93316   0.72893   0.00000  Uiso   1.00
C232   C     0.37931   0.92245   0.64794   0.00000  Uiso   1.00
C233   C     0.45791   0.92469   0.58423   0.00000  Uiso   1.00
C234   C     0.44996   0.91356   0.51522   0.00000  Uiso   1.00
C235   C     0.47321   0.89889   0.39021   0.00000  Uiso   1.00
C236   C     0.25412   0.94081   0.73150   0.00000  Uiso   1.00
C237   C     0.22746   0.95848   0.73806   0.00000  Uiso   1.00
C238   C     0.11412   0.96281   0.73940   0.00000  Uiso   1.00
C239   C     0.94301   0.97665   0.74417   0.00000  Uiso   1.00
C240   C     0.37863   0.91996   0.80100   0.00000  Uiso   1.00
C241   C     0.45664   0.92011   0.86601   0.00000  Uiso   1.00
C242   C     0.44812   0.90689   0.92587   0.00000  Uiso   1.00
C243   C     0.47033   0.88836   0.03855   0.00000  Uiso   1.00
C244   C     0.21863   0.90942   0.71966   0.00000  Uiso   1.00
C245   C     0.29573   0.90955   0.64291   0.00000  Uiso   1.00
C246   C     0.28767   0.89842   0.57397   0.00000  Uiso   1.00
C247   C     0.36624   0.90064   0.51017   0.00000  Uiso   1.00
C248   C     0.17054   0.92791   0.72646   0.00000  Uiso   1.00
C249   C     0.05722   0.93222   0.72780   0.00000  Uiso   1.00
C250   C     0.03039   0.94989   0.73435   0.00000  Uiso   1.00
C251   C     0.29505   0.90707   0.79596   0.00000  Uiso   1.00
C252   C     0.28640   0.89384   0.85574   0.00000  Uiso   1.00
C253   C     0.36439   0.89397   0.92083   0.00000  Uiso   1.00
H254   H     0.43757   0.94320   0.73286   0.00000  Uiso   1.00
H255   H     0.52257   0.93467   0.58815   0.00000  Uiso   1.00
H256   H     0.29216   0.96846   0.74196   0.00000  Uiso   1.00
H257   H     0.52131   0.93009   0.86989   0.00000  Uiso   1.00
H258   H     0.57993   0.91952   0.42548   0.00000  Uiso   1.00
H259   H     0.09409   0.99078   0.74983   0.00000  Uiso   1.00
H260   H     0.57729   0.90987   0.01959   0.00000  Uiso   1.00
H261   H     0.15355   0.89938   0.71574   0.00000  Uiso   1.00
H262   H     0.22298   0.88844   0.57009   0.00000  Uiso   1.00
H263   H     0.99256   0.92223   0.72390   0.00000  Uiso   1.00
H264   H     0.22171   0.88387   0.85183   0.00000  Uiso   1.00
H265   H     0.33676   0.88200   0.41082   0.00000  Uiso   1.00
H266   H     0.85092   0.95326   0.73518   0.00000  Uiso   1.00
H267   H     0.33413   0.87235   0.00493   0.00000  Uiso   1.00
O268   O     0.50911   0.89436   0.32264   0.00000  Uiso   1.00
O269   O     0.87171   0.98784   0.74819   0.00000  Uiso   1.00
O270   O     0.50567   0.88170   0.10209   0.00000  Uiso   1.00
N271   N     0.51319   0.91219   0.44203   0.00000  Uiso   1.00
N272   N     0.05895   0.97881   0.74526   0.00000  Uiso   1.00
N273   N     0.51069   0.90318   0.99747   0.00000  Uiso   1.00
N274   N     0.38234   0.89200   0.43414   0.00000  Uiso   1.00
N275   N     0.92811   0.95862   0.73738   0.00000  Uiso   1.00
N276   N     0.37985   0.88299   0.98958   0.00000  Uiso   1.00
C277   C     0.87251   0.43316   0.72893   0.00000  Uiso   1.00
C278   C     0.87931   0.42245   0.64794   0.00000  Uiso   1.00
C279   C     0.95791   0.42469   0.58423   0.00000  Uiso   1.00
C280   C     0.94996   0.41356   0.51522   0.00000  Uiso   1.00
C281   C     0.97321   0.39889   0.39021   0.00000  Uiso   1.00
C282   C     0.75412   0.44081   0.73150   0.00000  Uiso   1.00
C283   C     0.72746   0.45848   0.73806   0.00000  Uiso   1.00
C284   C     0.61412   0.46281   0.73940   0.00000  Uiso   1.00
C285   C     0.44301   0.47665   0.74417   0.00000  Uiso   1.00
C286   C     0.87863   0.41996   0.80100   0.00000  Uiso   1.00
C287   C     0.95664   0.42011   0.86601   0.00000  Uiso   1.00
C288   C     0.94812   0.40689   0.92587   0.00000  Uiso   1.00
C289   C     0.97033   0.38836   0.03855   0.00000  Uiso   1.00
C290   C     0.71863   0.40942   0.71966   0.00000  Uiso   1.00
C291   C     0.79573   0.40955   0.64291   0.00000  Uiso   1.00
C292   C     0.78767   0.39842   0.57397   0.00000  Uiso   1.00
C293   C     0.86624   0.40064   0.51017   0.00000  Uiso   1.00
C294   C     0.67054   0.42791   0.72646   0.00000  Uiso   1.00
C295   C     0.55722   0.43222   0.72780   0.00000  Uiso   1.00
C296   C     0.53039   0.44989   0.73435   0.00000  Uiso   1.00
C297   C     0.79505   0.40707   0.79596   0.00000  Uiso   1.00
C298   C     0.78640   0.39384   0.85574   0.00000  Uiso   1.00
C299   C     0.86439   0.39397   0.92083   0.00000  Uiso   1.00
H300   H     0.93757   0.44320   0.73286   0.00000  Uiso   1.00
H301   H     0.02257   0.43467   0.58815   0.00000  Uiso   1.00
H302   H     0.79216   0.46846   0.74196   0.00000  Uiso   1.00
H303   H     0.02131   0.43009   0.86989   0.00000  Uiso   1.00
H304   H     0.07993   0.41952   0.42548   0.00000  Uiso   1.00
H305   H     0.59409   0.49078   0.74983   0.00000  Uiso   1.00
H306   H     0.07729   0.40987   0.01959   0.00000  Uiso   1.00
H307   H     0.65355   0.39938   0.71574   0.00000  Uiso   1.00
H308   H     0.72298   0.38844   0.57009   0.00000  Uiso   1.00
H309   H     0.49256   0.42223   0.72390   0.00000  Uiso   1.00
H310   H     0.72171   0.38387   0.85183   0.00000  Uiso   1.00
H311   H     0.83676   0.38200   0.41082   0.00000  Uiso   1.00
H312   H     0.35092   0.45326   0.73518   0.00000  Uiso   1.00
H313   H     0.83413   0.37235   0.00493   0.00000  Uiso   1.00
O314   O     0.00911   0.39436   0.32264   0.00000  Uiso   1.00
O315   O     0.37171   0.48784   0.74819   0.00000  Uiso   1.00
O316   O     0.00567   0.38170   0.10209   0.00000  Uiso   1.00
N317   N     0.01319   0.41219   0.44203   0.00000  Uiso   1.00
N318   N     0.55895   0.47881   0.74526   0.00000  Uiso   1.00
N319   N     0.01069   0.40318   0.99747   0.00000  Uiso   1.00
N320   N     0.88234   0.39200   0.43414   0.00000  Uiso   1.00
N321   N     0.42811   0.45862   0.73738   0.00000  Uiso   1.00
N322   N     0.87985   0.38299   0.98958   0.00000  Uiso   1.00
C323   C     0.87251   0.93316   0.22893   0.00000  Uiso   1.00
C324   C     0.87931   0.92245   0.14794   0.00000  Uiso   1.00
C325   C     0.95791   0.92469   0.08423   0.00000  Uiso   1.00
C326   C     0.94996   0.91356   0.01522   0.00000  Uiso   1.00
C327   C     0.97321   0.89889   0.89021   0.00000  Uiso   1.00
C328   C     0.75412   0.94081   0.23150   0.00000  Uiso   1.00
C329   C     0.72746   0.95848   0.23806   0.00000  Uiso   1.00
C330   C     0.61412   0.96281   0.23940   0.00000  Uiso   1.00
C331   C     0.44301   0.97665   0.24417   0.00000  Uiso   1.00
C332   C     0.87863   0.91996   0.30100   0.00000  Uiso   1.00
C333   C     0.95664   0.92011   0.36601   0.00000  Uiso   1.00
C334   C     0.94812   0.90689   0.42587   0.00000  Uiso   1.00
C335   C     0.97033   0.88836   0.53855   0.00000  Uiso   1.00
C336   C     0.71863   0.90942   0.21966   0.00000  Uiso   1.00
C337   C     0.79573   0.90955   0.14291   0.00000  Uiso   1.00
C338   C     0.78767   0.89842   0.07397   0.00000  Uiso   1.00
C339   C     0.86624   0.90064   0.01017   0.00000  Uiso   1.00
C340   C     0.67054   0.92791   0.22646   0.00000  Uiso   1.00
C341   C     0.55722   0.93222   0.22780   0.00000  Uiso   1.00
C342   C     0.53039   0.94989   0.23435   0.00000  Uiso   1.00
C343   C     0.79505   0.90707   0.29596   0.00000  Uiso   1.00
C344   C     0.78640   0.89384   0.35574   0.00000  Uiso   1.00
C345   C     0.86439   0.89397   0.42083   0.00000  Uiso   1.00
H346   H     0.93757   0.94320   0.23286   0.00000  Uiso   1.00
H347   H     0.02257   0.93467   0.08815   0.00000  Uiso   1.00
H348   H     0.79216   0.96846   0.24196   0.00000  Uiso   1.00
H349   H     0.02131   0.93009   0.36989   0.00000  Uiso   1.00
H350   H     0.07993   0.91952   0.92548   0.00000  Uiso   1.00
H351   H     0.59409   0.99078   0.24983   0.00000  Uiso   1.00
H352   H     0.07729   0.90987   0.51959   0.00000  Uiso   1.00
H353   H     0.65355   0.89938   0.21574   0.00000  Uiso   1.00
H354   H     0.72298   0.88844   0.07009   0.00000  Uiso   1.00
H355   H     0.49256   0.92223   0.22390   0.00000  Uiso   1.00
H356   H     0.72171   0.88387   0.35183   0.00000  Uiso   1.00
H357   H     0.83676   0.88200   0.91082   0.00000  Uiso   1.00
H358   H     0.35092   0.95326   0.23518   0.00000  Uiso   1.00
H359   H     0.83413   0.87235   0.50493   0.00000  Uiso   1.00
O360   O     0.00911   0.89436   0.82264   0.00000  Uiso   1.00
O361   O     0.37171   0.98784   0.24819   0.00000  Uiso   1.00
O362   O     0.00567   0.88170   0.60209   0.00000  Uiso   1.00
N363   N     0.01319   0.91219   0.94203   0.00000  Uiso   1.00
N364   N     0.55895   0.97881   0.24526   0.00000  Uiso   1.00
N365   N     0.01069   0.90318   0.49747   0.00000  Uiso   1.00
N366   N     0.88234   0.89200   0.93414   0.00000  Uiso   1.00
N367   N     0.42811   0.95862   0.23738   0.00000  Uiso   1.00
N368   N     0.87985   0.88299   0.48958   0.00000  Uiso   1.00
C369   C     0.87749   0.68316   0.47893   0.00000  Uiso   1.00
C370   C     0.87069   0.67245   0.39794   0.00000  Uiso   1.00
C371   C     0.79209   0.67469   0.33423   0.00000  Uiso   1.00
C372   C     0.80004   0.66356   0.26522   0.00000  Uiso   1.00
C373   C     0.77679   0.64889   0.14021   0.00000  Uiso   1.00
C374   C     0.99588   0.69081   0.48150   0.00000  Uiso   1.00
C375   C     0.02254   0.70848   0.48806   0.00000  Uiso   1.00
C376   C     0.13588   0.71281   0.48940   0.00000  Uiso   1.00
C377   C     0.30699   0.72665   0.49417   0.00000  Uiso   1.00
C378   C     0.87137   0.66996   0.55100   0.00000  Uiso   1.00
C379   C     0.79336   0.67011   0.61601   0.00000  Uiso   1.00
C380   C     0.80188   0.65689   0.67587   0.00000  Uiso   1.00
C381   C     0.77967   0.63836   0.78855   0.00000  Uiso   1.00
C382   C     0.03137   0.65942   0.46966   0.00000  Uiso   1.00
C383   C     0.95427   0.65955   0.39291   0.00000  Uiso   1.00
C384   C     0.96233   0.64842   0.32397   0.00000  Uiso   1.00
C385   C     0.88376   0.65064   0.26017   0.00000  Uiso   1.00
C386   C     0.07946   0.67791   0.47646   0.00000  Uiso   1.00
C387   C     0.19278   0.68222   0.47780   0.00000  Uiso   1.00
C388   C     0.21961   0.69989   0.48435   0.00000  Uiso   1.00
C389   C     0.95495   0.65707   0.54596   0.00000  Uiso   1.00
C390   C     0.96360   0.64384   0.60574   0.00000  Uiso   1.00
C391   C     0.88561   0.64397   0.67083   0.00000  Uiso   1.00
H392   H     0.81243   0.69320   0.48286   0.00000  Uiso   1.00
H393   H     0.72743   0.68467   0.33815   0.00000  Uiso   1.00
H394   H     0.95784   0.71846   0.49196   0.00000  Uiso   1.00
H395   H     0.72869   0.68009   0.61989   0.00000  Uiso   1.00
H396   H     0.67007   0.66952   0.17548   0.00000  Uiso   1.00
H397   H     0.15591   0.74078   0.49983   0.00000  Uiso   1.00
H398   H     0.67271   0.65987   0.76959   0.00000  Uiso   1.00
H399   H     0.09645   0.64938   0.46574   0.00000  Uiso   1.00
H400   H     0.02702   0.63844   0.32009   0.00000  Uiso   1.00
H401   H     0.25744   0.67223   0.47390   0.00000  Uiso   1.00
H402   H     0.02829   0.63387   0.60183   0.00000  Uiso   1.00
H403   H     0.91324   0.63200   0.16082   0.00000  Uiso   1.00
H404   H     0.39908   0.70326   0.48518   0.00000  Uiso   1.00
H405   H     0.91587   0.62235   0.75493   0.00000  Uiso   1.00
O406   O     0.74089   0.64436   0.07264   0.00000  Uiso   1.00
O407   O     0.37829   0.73784   0.49819   0.00000  Uiso   1.00
O408   O     0.74433   0.63170   0.85209   0.00000  Uiso   1.00
N409   N     0.73681   0.66219   0.19203   0.00000  Uiso   1.00
N410   N     0.19105   0.72881   0.49526   0.00000  Uiso   1.00
N411   N     0.73931   0.65318   0.74747   0.00000  Uiso   1.00
N412   N     0.86766   0.64200   0.18414   0.00000  Uiso   1.00
N413   N     0.32189   0.70862   0.48738   0.00000  Uiso   1.00
N414   N     0.87015   0.63299   0.73958   0.00000  Uiso   1.00
C415   C     0.87749   0.18316   0.97893   0.00000  Uiso   1.00
C416   C     0.87069   0.17245   0.89794   0.00000  Uiso   1.00
C417   C     0.79209   0.17469   0.83423   0.00000  Uiso   1.00
C418   C     0.80004   0.16356   0.76522   0.00000  Uiso   1.00
C419   C     0.77679   0.14889   0.64021   0.00000  Uiso   1.00
C420   C     0.99588   0.19081   0.98150   0.00000  Uiso   1.00
C421   C     0.02254   0.20848   0.98806   0.00000  Uiso   1.00
C422   C     0.13588   0.21281   0.98940   0.00000  Uiso   1.00
C423   C     0.30699   0.22665   0.99417   0.00000  Uiso   1.00
C424   C     0.87137   0.16996   0.05100   0.00000  Uiso   1.00
C425   C     0.79336   0.17011   0.11601   0.00000  Uiso   1.00
C426   C     0.80188   0.15689   0.17587   0.00000  Uiso   1.00
C427   C     0.77967   0.13836   0.28855   0.00000  Uiso   1.00
C428   C     0.03137   0.15942   0.96966   0.00000  Uiso   1.00
C429   C     0.95427   0.15955   0.89291   0.00000  Uiso   1.00
C430   C     0.96233   0.14842   0.82397   0.00000  Uiso   1.00
C431   C     0.88376   0.15064   0.76017   0.00000  Uiso   1.00
C432   C     0.07946   0.17791   0.97646   0.00000  Uiso   1.00
C433   C     0.19278   0.18222   0.97780   0.00000  Uiso   1.00
C434   C     0.21961   0.19989   0.98435   0.00000  Uiso   1.00
C435   C     0.95495   0.15707   0.04596   0.00000  Uiso   1.00
C436   C     0.96360   0.14384   0.10574   0.00000  Uiso   1.00
C437   C     0.88561   0.14397   0.17083   0.00000  Uiso   1.00
H438   H     0.81243   0.19320   0.98286   0.00000  Uiso   1.00
H439   H     0.72743   0.18467   0.83815   0.00000  Uiso   1.00
H440   H     0.95784   0.21846   0.99196   0.00000  Uiso   1.00
H441   H     0.72869   0.18009   0.11989   0.00000  Uiso   1.00
H442   H     0.67007   0.16952   0.67548   0.00000  Uiso   1.00
H443   H     0.15591   0.24078   0.99983   0.00000  Uiso   1.00
H444   H     0.67271   0.15987   0.26959   0.00000  Uiso   1.00
H445   H     0.09645   0.14938   0.96574   0.00000  Uiso   1.00
H446   H     0.02702   0.13844   0.82009   0.00000  Uiso   1.00
H447   H     0.25744   0.17223   0.97390   0.00000  Uiso   1.00
H448   H     0.02829   0.13387   0.10183   0.00000  Uiso   1.00
H449   H     0.91324   0.13200   0.66082   0.00000  Uiso   1.00
H450   H     0.39908   0.20326   0.98518   0.00000  Uiso   1.00
H451   H     0.91587   0.12235   0.25493   0.00000  Uiso   1.00
O452   O     0.74089   0.14436   0.57264   0.00000  Uiso   1.00
O453   O     0.37829   0.23784   0.99819   0.00000  Uiso   1.00
O454   O     0.74433   0.13170   0.35209   0.00000  Uiso   1.00
N455   N     0.73681   0.16219   0.69203   0.00000  Uiso   1.00
N456   N     0.19105   0.22881   0.99526   0.00000  Uiso   1.00
N457   N     0.73931   0.15318   0.24747   0.00000  Uiso   1.00
N458   N     0.86766   0.14200   0.68414   0.00000  Uiso   1.00
N459   N     0.32189   0.20862   0.98738   0.00000  Uiso   1.00
N460   N     0.87015   0.13299   0.23958   0.00000  Uiso   1.00
C461   C     0.37749   0.68316   0.97893   0.00000  Uiso   1.00
C462   C     0.37069   0.67245   0.89794   0.00000  Uiso   1.00
C463   C     0.29209   0.67469   0.83423   0.00000  Uiso   1.00
C464   C     0.30004   0.66356   0.76522   0.00000  Uiso   1.00
C465   C     0.27679   0.64889   0.64021   0.00000  Uiso   1.00
C466   C     0.49588   0.69081   0.98150   0.00000  Uiso   1.00
C467   C     0.52254   0.70848   0.98806   0.00000  Uiso   1.00
C468   C     0.63588   0.71281   0.98940   0.00000  Uiso   1.00
C469   C     0.80699   0.72665   0.99417   0.00000  Uiso   1.00
C470   C     0.37137   0.66996   0.05100   0.00000  Uiso   1.00
C471   C     0.29336   0.67011   0.11601   0.00000  Uiso   1.00
C472   C     0.30188   0.65689   0.17587   0.00000  Uiso   1.00
C473   C     0.27967   0.63836   0.28855   0.00000  Uiso   1.00
C474   C     0.53137   0.65942   0.96966   0.00000  Uiso   1.00
C475   C     0.45427   0.65955   0.89291   0.00000  Uiso   1.00
C476   C     0.46233   0.64842   0.82397   0.00000  Uiso   1.00
C477   C     0.38376   0.65064   0.76017   0.00000  Uiso   1.00
C478   C     0.57946   0.67791   0.97646   0.00000  Uiso   1.00
C479   C     0.69278   0.68222   0.97780   0.00000  Uiso   1.00
C480   C     0.71961   0.69989   0.98435   0.00000  Uiso   1.00
C481   C     0.45495   0.65707   0.04596   0.00000  Uiso   1.00
C482   C     0.46360   0.64384   0.10574   0.00000  Uiso   1.00
C483   C     0.38561   0.64397   0.17083   0.00000  Uiso   1.00
H484   H     0.31243   0.69320   0.98286   0.00000  Uiso   1.00
H485   H     0.22743   0.68467   0.83815   0.00000  Uiso   1.00
H486   H     0.45784   0.71846   0.99196   0.00000  Uiso   1.00
H487   H     0.22869   0.68009   0.11989   0.00000  Uiso   1.00
H488   H     0.17007   0.66952   0.67548   0.00000  Uiso   1.00
H489   H     0.65591   0.74078   0.99983   0.00000  Uiso   1.00
H490   H     0.17271   0.65987   0.26959   0.00000  Uiso   1.00
H491   H     0.59645   0.64938   0.96574   0.00000  Uiso   1.00
H492   H     0.52702   0.63844   0.82009   0.00000  Uiso   1.00
H493   H     0.75744   0.67223   0.97390   0.00000  Uiso   1.00
H494   H     0.52829   0.63387   0.10183   0.00000  Uiso   1.00
H495   H     0.41324   0.63200   0.66082   0.00000  Uiso   1.00
H496   H     0.89908   0.70326   0.98518   0.00000  Uiso   1.00
H497   H     0.41587   0.62235   0.25493   0.00000  Uiso   1.00
O498   O     0.24089   0.64436   0.57264   0.00000  Uiso   1.00
O499   O     0.87829   0.73784   0.99819   0.00000  Uiso   1.00
O500   O     0.24433   0.63170   0.35209   0.00000  Uiso   1.00
N501   N     0.23681   0.66219   0.69203   0.00000  Uiso   1.00
N502   N     0.69105   0.72881   0.99526   0.00000  Uiso   1.00
N503   N     0.23931   0.65318   0.24747   0.00000  Uiso   1.00
N504   N     0.36766   0.64200   0.68414   0.00000  Uiso   1.00
N505   N     0.82189   0.70862   0.98738   0.00000  Uiso   1.00
N506   N     0.37015   0.63299   0.23958   0.00000  Uiso   1.00
C507   C     0.37749   0.18316   0.47893   0.00000  Uiso   1.00
C508   C     0.37069   0.17245   0.39794   0.00000  Uiso   1.00
C509   C     0.29209   0.17469   0.33423   0.00000  Uiso   1.00
C510   C     0.30004   0.16356   0.26522   0.00000  Uiso   1.00
C511   C     0.27679   0.14889   0.14021   0.00000  Uiso   1.00
C512   C     0.49588   0.19081   0.48150   0.00000  Uiso   1.00
C513   C     0.52254   0.20848   0.48806   0.00000  Uiso   1.00
C514   C     0.63588   0.21281   0.48940   0.00000  Uiso   1.00
C515   C     0.80699   0.22665   0.49417   0.00000  Uiso   1.00
C516   C     0.37137   0.16996   0.55100   0.00000  Uiso   1.00
C517   C     0.29336   0.17011   0.61601   0.00000  Uiso   1.00
C518   C     0.30188   0.15689   0.67587   0.00000  Uiso   1.00
C519   C     0.27967   0.13836   0.78855   0.00000  Uiso   1.00
C520   C     0.53137   0.15942   0.46966   0.00000  Uiso   1.00
C521   C     0.45427   0.15955   0.39291   0.00000  Uiso   1.00
C522   C     0.46233   0.14842   0.32397   0.00000  Uiso   1.00
C523   C     0.38376   0.15064   0.26017   0.00000  Uiso   1.00
C524   C     0.57946   0.17791   0.47646   0.00000  Uiso   1.00
C525   C     0.69278   0.18222   0.47780   0.00000  Uiso   1.00
C526   C     0.71961   0.19989   0.48435   0.00000  Uiso   1.00
C527   C     0.45495   0.15707   0.54596   0.00000  Uiso   1.00
C528   C     0.46360   0.14384   0.60574   0.00000  Uiso   1.00
C529   C     0.38561   0.14397   0.67083   0.00000  Uiso   1.00
H530   H     0.31243   0.19320   0.48286   0.00000  Uiso   1.00
H531   H     0.22743   0.18467   0.33815   0.00000  Uiso   1.00
H532   H     0.45784   0.21846   0.49196   0.00000  Uiso   1.00
H533   H     0.22869   0.18009   0.61989   0.00000  Uiso   1.00
H534   H     0.17007   0.16952   0.17548   0.00000  Uiso   1.00
H535   H     0.65591   0.24078   0.49983   0.00000  Uiso   1.00
H536   H     0.17271   0.15987   0.76959   0.00000  Uiso   1.00
H537   H     0.59645   0.14938   0.46574   0.00000  Uiso   1.00
H538   H     0.52702   0.13844   0.32009   0.00000  Uiso   1.00
H539   H     0.75744   0.17223   0.47390   0.00000  Uiso   1.00
H540   H     0.52829   0.13387   0.60183   0.00000  Uiso   1.00
H541   H     0.41324   0.13200   0.16082   0.00000  Uiso   1.00
H542   H     0.89908   0.20326   0.48518   0.00000  Uiso   1.00
H543   H     0.41587   0.12235   0.75493   0.00000  Uiso   1.00
O544   O     0.24089   0.14436   0.07264   0.00000  Uiso   1.00
O545   O     0.87829   0.23784   0.49819   0.00000  Uiso   1.00
O546   O     0.24433   0.13170   0.85209   0.00000  Uiso   1.00
N547   N     0.23681   0.16219   0.19203   0.00000  Uiso   1.00
N548   N     0.69105   0.22881   0.49526   0.00000  Uiso   1.00
N549   N     0.23931   0.15318   0.74747   0.00000  Uiso   1.00
N550   N     0.36766   0.14200   0.18414   0.00000  Uiso   1.00
N551   N     0.82189   0.20862   0.48738   0.00000  Uiso   1.00
N552   N     0.37015   0.13299   0.73958   0.00000  Uiso   1.00
C553   C     0.62251   0.81684   0.47893   0.00000  Uiso   1.00
C554   C     0.62931   0.82755   0.39794   0.00000  Uiso   1.00
C555   C     0.70791   0.82531   0.33423   0.00000  Uiso   1.00
C556   C     0.69996   0.83644   0.26522   0.00000  Uiso   1.00
C557   C     0.72321   0.85111   0.14021   0.00000  Uiso   1.00
C558   C     0.50412   0.80919   0.48150   0.00000  Uiso   1.00
C559   C     0.47746   0.79152   0.48806   0.00000  Uiso   1.00
C560   C     0.36412   0.78719   0.48940   0.00000  Uiso   1.00
C561   C     0.19301   0.77335   0.49417   0.00000  Uiso   1.00
C562   C     0.62863   0.83004   0.55100   0.00000  Uiso   1.00
C563   C     0.70664   0.82989   0.61601   0.00000  Uiso   1.00
C564   C     0.69812   0.84311   0.67587   0.00000  Uiso   1.00
C565   C     0.72033   0.86164   0.78855   0.00000  Uiso   1.00
C566   C     0.46863   0.84058   0.46966   0.00000  Uiso   1.00
C567   C     0.54573   0.84045   0.39291   0.00000  Uiso   1.00
C568   C     0.53767   0.85158   0.32397   0.00000  Uiso   1.00
C569   C     0.61624   0.84936   0.26017   0.00000  Uiso   1.00
C570   C     0.42054   0.82209   0.47646   0.00000  Uiso   1.00
C571   C     0.30722   0.81778   0.47780   0.00000  Uiso   1.00
C572   C     0.28039   0.80011   0.48435   0.00000  Uiso   1.00
C573   C     0.54505   0.84293   0.54596   0.00000  Uiso   1.00
C574   C     0.53640   0.85616   0.60574   0.00000  Uiso   1.00
C575   C     0.61439   0.85603   0.67083   0.00000  Uiso   1.00
H576   H     0.68757   0.80680   0.48286   0.00000  Uiso   1.00
H577   H     0.77257   0.81533   0.33815   0.00000  Uiso   1.00
H578   H     0.54216   0.78154   0.49196   0.00000  Uiso   1.00
H579   H     0.77131   0.81991   0.61989   0.00000  Uiso   1.00
H580   H     0.82993   0.83048   0.17548   0.00000  Uiso   1.00
H581   H     0.34409   0.75922   0.49983   0.00000  Uiso   1.00
H582   H     0.82729   0.84013   0.76959   0.00000  Uiso   1.00
H583   H     0.40355   0.85062   0.46574   0.00000  Uiso   1.00
H584   H     0.47298   0.86156   0.32009   0.00000  Uiso   1.00
H585   H     0.24256   0.82777   0.47390   0.00000  Uiso   1.00
H586   H     0.47171   0.86613   0.60183   0.00000  Uiso   1.00
H587   H     0.58676   0.86800   0.16082   0.00000  Uiso   1.00
H588   H     0.10092   0.79674   0.48518   0.00000  Uiso   1.00
H589   H     0.58413   0.87765   0.75493   0.00000  Uiso   1.00
O590   O     0.75911   0.85564   0.07264   0.00000  Uiso   1.00
O591   O     0.12171   0.76216   0.49819   0.00000  Uiso   1.00
O592   O     0.75567   0.86830   0.85209   0.00000  Uiso   1.00
N593   N     0.76319   0.83781   0.19203   0.00000  Uiso   1.00
N594   N     0.30895   0.77119   0.49526   0.00000  Uiso   1.00
N595   N     0.76069   0.84682   0.74747   0.00000  Uiso   1.00
N596   N     0.63234   0.85800   0.18414   0.00000  Uiso   1.00
N597   N     0.17811   0.79138   0.48738   0.00000  Uiso   1.00
N598   N     0.62985   0.86701   0.73958   0.00000  Uiso   1.00
C599   C     0.62251   0.31684   0.97893   0.00000  Uiso   1.00
C600   C     0.62931   0.32755   0.89794   0.00000  Uiso   1.00
C601   C     0.70791   0.32531   0.83423   0.00000  Uiso   1.00
C602   C     0.69996   0.33644   0.76522   0.00000  Uiso   1.00
C603   C     0.72321   0.35111   0.64021   0.00000  Uiso   1.00
C604   C     0.50412   0.30919   0.98150   0.00000  Uiso   1.00
C605   C     0.47746   0.29152   0.98806   0.00000  Uiso   1.00
C606   C     0.36412   0.28719   0.98940   0.00000  Uiso   1.00
C607   C     0.19301   0.27335   0.99417   0.00000  Uiso   1.00
C608   C     0.62863   0.33004   0.05100   0.00000  Uiso   1.00
C609   C     0.70664   0.32989   0.11601   0.00000  Uiso   1.00
C610   C     0.69812   0.34311   0.17587   0.00000  Uiso   1.00
C611   C     0.72033   0.36164   0.28855   0.00000  Uiso   1.00
C612   C     0.46863   0.34058   0.96966   0.00000  Uiso   1.00
C613   C     0.54573   0.34045   0.89291   0.00000  Uiso   1.00
C614   C     0.53767   0.35158   0.82397   0.00000  Uiso   1.00
C615   C     0.61624   0.34936   0.76017   0.00000  Uiso   1.00
C616   C     0.42054   0.32209   0.97646   0.00000  Uiso   1.00
C617   C     0.30722   0.31778   0.97780   0.00000  Uiso   1.00
C618   C     0.28039   0.30011   0.98435   0.00000  Uiso   1.00
C619   C     0.54505   0.34293   0.04596   0.00000  Uiso   1.00
C620   C     0.53640   0.35616   0.10574   0.00000  Uiso   1.00
C621   C     0.61439   0.35603   0.17083   0.00000  Uiso   1.00
H622   H     0.68757   0.30680   0.98286   0.00000  Uiso   1.00
H623   H     0.77257   0.31533   0.83815   0.00000  Uiso   1.00
H624   H     0.54216   0.28154   0.99196   0.00000  Uiso   1.00
H625   H     0.77131   0.31991   0.11989   0.00000  Uiso   1.00
H626   H     0.82993   0.33048   0.67548   0.00000  Uiso   1.00
H627   H     0.34409   0.25922   0.99983   0.00000  Uiso   1.00
H628   H     0.82729   0.34013   0.26959   0.00000  Uiso   1.00
H629   H     0.40355   0.35062   0.96574   0.00000  Uiso   1.00
H630   H     0.47298   0.36156   0.82009   0.00000  Uiso   1.00
H631   H     0.24256   0.32777   0.97390   0.00000  Uiso   1.00
H632   H     0.47171   0.36613   0.10183   0.00000  Uiso   1.00
H633   H     0.58676   0.36800   0.66082   0.00000  Uiso   1.00
H634   H     0.10092   0.29674   0.98518   0.00000  Uiso   1.00
H635   H     0.58413   0.37765   0.25493   0.00000  Uiso   1.00
O636   O     0.75911   0.35564   0.57264   0.00000  Uiso   1.00
O637   O     0.12171   0.26216   0.99819   0.00000  Uiso   1.00
O638   O     0.75567   0.36830   0.35209   0.00000  Uiso   1.00
N639   N     0.76319   0.33781   0.69203   0.00000  Uiso   1.00
N640   N     0.30895   0.27119   0.99526   0.00000  Uiso   1.00
N641   N     0.76069   0.34682   0.24747   0.00000  Uiso   1.00
N642   N     0.63234   0.35800   0.68414   0.00000  Uiso   1.00
N643   N     0.17811   0.29138   0.98738   0.00000  Uiso   1.00
N644   N     0.62985   0.36701   0.23958   0.00000  Uiso   1.00
C645   C     0.12251   0.81684   0.97893   0.00000  Uiso   1.00
C646   C     0.12931   0.82755   0.89794   0.00000  Uiso   1.00
C647   C     0.20791   0.82531   0.83423   0.00000  Uiso   1.00
C648   C     0.19996   0.83644   0.76522   0.00000  Uiso   1.00
C649   C     0.22321   0.85111   0.64021   0.00000  Uiso   1.00
C650   C     0.00412   0.80919   0.98150   0.00000  Uiso   1.00
C651   C     0.97746   0.79152   0.98806   0.00000  Uiso   1.00
C652   C     0.86412   0.78719   0.98940   0.00000  Uiso   1.00
C653   C     0.69301   0.77335   0.99417   0.00000  Uiso   1.00
C654   C     0.12863   0.83004   0.05100   0.00000  Uiso   1.00
C655   C     0.20664   0.82989   0.11601   0.00000  Uiso   1.00
C656   C     0.19812   0.84311   0.17587   0.00000  Uiso   1.00
C657   C     0.22033   0.86164   0.28855   0.00000  Uiso   1.00
C658   C     0.96863   0.84058   0.96966   0.00000  Uiso   1.00
C659   C     0.04573   0.84045   0.89291   0.00000  Uiso   1.00
C660   C     0.03767   0.85158   0.82397   0.00000  Uiso   1.00
C661   C     0.11624   0.84936   0.76017   0.00000  Uiso   1.00
C662   C     0.92054   0.82209   0.97646   0.00000  Uiso   1.00
C663   C     0.80722   0.81778   0.97780   0.00000  Uiso   1.00
C664   C     0.78039   0.80011   0.98435   0.00000  Uiso   1.00
C665   C     0.04505   0.84293   0.04596   0.00000  Uiso   1.00
C666   C     0.03640   0.85616   0.10574   0.00000  Uiso   1.00
C667   C     0.11439   0.85603   0.17083   0.00000  Uiso   1.00
H668   H     0.18757   0.80680   0.98286   0.00000  Uiso   1.00
H669   H     0.27257   0.81533   0.83815   0.00000  Uiso   1.00
H670   H     0.04216   0.78154   0.99196   0.00000  Uiso   1.00
H671   H     0.27131   0.81991   0.11989   0.00000  Uiso   1.00
H672   H     0.32993   0.83048   0.67548   0.00000  Uiso   1.00
H673   H     0.84409   0.75922   0.99983   0.00000  Uiso   1.00
H674   H     0.32729   0.84013   0.26959   0.00000  Uiso   1.00
H675   H     0.90355   0.85062   0.96574   0.00000  Uiso   1.00
H676   H     0.97298   0.86156   0.82009   0.00000  Uiso   1.00
H677   H     0.74256   0.82777   0.97390   0.00000  Uiso   1.00
H678   H     0.97171   0.86613   0.10183   0.00000  Uiso   1.00
H679   H     0.08676   0.86800   0.66082   0.00000  Uiso   1.00
H680   H     0.60092   0.79674   0.98518   0.00000  Uiso   1.00
H681   H     0.08413   0.87765   0.25493   0.00000  Uiso   1.00
O682   O     0.25911   0.85564   0.57264   0.00000  Uiso   1.00
O683   O     0.62171   0.76216   0.99819   0.00000  Uiso   1.00
O684   O     0.25567   0.86830   0.35209   0.00000  Uiso   1.00
N685   N     0.26319   0.83781   0.69203   0.00000  Uiso   1.00
N686   N     0.80895   0.77119   0.99526   0.00000  Uiso   1.00
N687   N     0.26069   0.84682   0.24747   0.00000  Uiso   1.00
N688   N     0.13234   0.85800   0.68414   0.00000  Uiso   1.00
N689   N     0.67811   0.79138   0.98738   0.00000  Uiso   1.00
N690   N     0.12985   0.86701   0.23958   0.00000  Uiso   1.00
C691   C     0.12251   0.31684   0.47893   0.00000  Uiso   1.00
C692   C     0.12931   0.32755   0.39794   0.00000  Uiso   1.00
C693   C     0.20791   0.32531   0.33423   0.00000  Uiso   1.00
C694   C     0.19996   0.33644   0.26522   0.00000  Uiso   1.00
C695   C     0.22321   0.35111   0.14021   0.00000  Uiso   1.00
C696   C     0.00412   0.30919   0.48150   0.00000  Uiso   1.00
C697   C     0.97746   0.29152   0.48806   0.00000  Uiso   1.00
C698   C     0.86412   0.28719   0.48940   0.00000  Uiso   1.00
C699   C     0.69301   0.27335   0.49417   0.00000  Uiso   1.00
C700   C     0.12863   0.33004   0.55100   0.00000  Uiso   1.00
C701   C     0.20664   0.32989   0.61601   0.00000  Uiso   1.00
C702   C     0.19812   0.34311   0.67587   0.00000  Uiso   1.00
C703   C     0.22033   0.36164   0.78855   0.00000  Uiso   1.00
C704   C     0.96863   0.34058   0.46966   0.00000  Uiso   1.00
C705   C     0.04573   0.34045   0.39291   0.00000  Uiso   1.00
C706   C     0.03767   0.35158   0.32397   0.00000  Uiso   1.00
C707   C     0.11624   0.34936   0.26017   0.00000  Uiso   1.00
C708   C     0.92054   0.32209   0.47646   0.00000  Uiso   1.00
C709   C     0.80722   0.31778   0.47780   0.00000  Uiso   1.00
C710   C     0.78039   0.30011   0.48435   0.00000  Uiso   1.00
C711   C     0.04505   0.34293   0.54596   0.00000  Uiso   1.00
C712   C     0.03640   0.35616   0.60574   0.00000  Uiso   1.00
C713   C     0.11439   0.35603   0.67083   0.00000  Uiso   1.00
H714   H     0.18757   0.30680   0.48286   0.00000  Uiso   1.00
H715   H     0.27257   0.31533   0.33815   0.00000  Uiso   1.00
H716   H     0.04216   0.28154   0.49196   0.00000  Uiso   1.00
H717   H     0.27131   0.31991   0.61989   0.00000  Uiso   1.00
H718   H     0.32993   0.33048   0.17548   0.00000  Uiso   1.00
H719   H     0.84409   0.25922   0.49983   0.00000  Uiso   1.00
H720   H     0.32729   0.34013   0.76959   0.00000  Uiso   1.00
H721   H     0.90355   0.35062   0.46574   0.00000  Uiso   1.00
H722   H     0.97298   0.36156   0.32009   0.00000  Uiso   1.00
H723   H     0.74256   0.32777   0.47390   0.00000  Uiso   1.00
H724   H     0.97171   0.36613   0.60183   0.00000  Uiso   1.00
H725   H     0.08676   0.36800   0.16082   0.00000  Uiso   1.00
H726   H     0.60092   0.29674   0.48518   0.00000  Uiso   1.00
H727   H     0.08413   0.37765   0.75493   0.00000  Uiso   1.00
O728   O     0.25911   0.35564   0.07264   0.00000  Uiso   1.00
O729   O     0.62171   0.26216   0.49819   0.00000  Uiso   1.00
O730   O     0.25567   0.36830   0.85209   0.00000  Uiso   1.00
N731   N     0.26319   0.33781   0.19203   0.00000  Uiso   1.00
N732   N     0.80895   0.27119   0.49526   0.00000  Uiso   1.00
N733   N     0.26069   0.34682   0.74747   0.00000  Uiso   1.00
N734   N     0.13234   0.35800   0.18414   0.00000  Uiso   1.00
N735   N     0.67811   0.29138   0.48738   0.00000  Uiso   1.00
N736   N     0.12985   0.36701   0.73958   0.00000  Uiso   1.00
