data_job_01760
_audit_creation_date              2018-12-19
_audit_creation_method            'Materials Studio'
_symmetry_space_group_name_H-M    'P1'
_symmetry_Int_Tables_number       1
_symmetry_cell_setting            triclinic
loop_
_symmetry_equiv_pos_as_xyz
  x,y,z
_cell_length_a                    28.0991
_cell_length_b                    28.0991
_cell_length_c                    12.9226
_cell_angle_alpha                 90.0000
_cell_angle_beta                  90.0000
_cell_angle_gamma                 90.0000
loop_
_atom_site_label
_atom_site_type_symbol
_atom_site_fract_x
_atom_site_fract_y
_atom_site_fract_z
_atom_site_U_iso_or_equiv
_atom_site_adp_type
_atom_site_occupancy
C1     C     0.62667   0.55117   0.36186   0.00000  Uiso   1.00
C2     C     0.58020   0.57384   0.32597   0.00000  Uiso   1.00
C3     C     0.53480   0.55839   0.35158   0.00000  Uiso   1.00
C4     C     0.49687   0.58393   0.31089   0.00000  Uiso   1.00
C5     C     0.42361   0.61309   0.26485   0.00000  Uiso   1.00
C6     C     0.65425   0.53896   0.26376   0.00000  Uiso   1.00
C7     C     0.67110   0.49418   0.23707   0.00000  Uiso   1.00
C8     C     0.69550   0.49037   0.14401   0.00000  Uiso   1.00
C9     C     0.73723   0.46538   0.00142   0.00000  Uiso   1.00
C10    C     0.65473   0.59064   0.41513   0.00000  Uiso   1.00
C11    C     0.67201   0.58931   0.51570   0.00000  Uiso   1.00
C12    C     0.69683   0.62900   0.55008   0.00000  Uiso   1.00
C13    C     0.73931   0.68426   0.64251   0.00000  Uiso   1.00
C14    C     0.64005   0.62401   0.24407   0.00000  Uiso   1.00
C15    C     0.58748   0.61340   0.26199   0.00000  Uiso   1.00
C16    C     0.54960   0.63898   0.22126   0.00000  Uiso   1.00
C17    C     0.50415   0.62357   0.24680   0.00000  Uiso   1.00
C18    C     0.66152   0.57852   0.19978   0.00000  Uiso   1.00
C19    C     0.68590   0.57477   0.10675   0.00000  Uiso   1.00
C20    C     0.70278   0.53000   0.07992   0.00000  Uiso   1.00
C21    C     0.66200   0.63020   0.35115   0.00000  Uiso   1.00
C22    C     0.68681   0.66990   0.38538   0.00000  Uiso   1.00
C23    C     0.70411   0.66864   0.48598   0.00000  Uiso   1.00
H24    H     0.62101   0.52037   0.41167   0.00000  Uiso   1.00
H25    H     0.52919   0.52776   0.40109   0.00000  Uiso   1.00
H26    H     0.66547   0.46357   0.28660   0.00000  Uiso   1.00
H27    H     0.66637   0.55869   0.56519   0.00000  Uiso   1.00
H28    H     0.43058   0.55340   0.36111   0.00000  Uiso   1.00
H29    H     0.71796   0.41805   0.11972   0.00000  Uiso   1.00
H30    H     0.71987   0.61862   0.70718   0.00000  Uiso   1.00
H31    H     0.64571   0.65482   0.19426   0.00000  Uiso   1.00
H32    H     0.55524   0.66959   0.17175   0.00000  Uiso   1.00
H33    H     0.69152   0.60540   0.05726   0.00000  Uiso   1.00
H34    H     0.69243   0.70051   0.33585   0.00000  Uiso   1.00
H35    H     0.45173   0.66851   0.17496   0.00000  Uiso   1.00
H36    H     0.73911   0.53316   0.93358   0.00000  Uiso   1.00
H37    H     0.74102   0.73373   0.52104   0.00000  Uiso   1.00
O38    O     0.38120   0.61824   0.25712   0.00000  Uiso   1.00
O39    O     0.75823   0.44067   0.94044   0.00000  Uiso   1.00
O40    O     0.76073   0.70381   0.71118   0.00000  Uiso   1.00
N41    N     0.44798   0.57847   0.32040   0.00000  Uiso   1.00
N42    N     0.71665   0.45192   0.09471   0.00000  Uiso   1.00
N43    N     0.71845   0.63943   0.64393   0.00000  Uiso   1.00
N44    N     0.45936   0.64041   0.22024   0.00000  Uiso   1.00
N45    N     0.72803   0.51386   0.99455   0.00000  Uiso   1.00
N46    N     0.72982   0.70137   0.54377   0.00000  Uiso   1.00
C47    C     0.12667   0.05117   0.86186   0.00000  Uiso   1.00
C48    C     0.08020   0.07384   0.82597   0.00000  Uiso   1.00
C49    C     0.03480   0.05839   0.85158   0.00000  Uiso   1.00
C50    C     0.99687   0.08393   0.81089   0.00000  Uiso   1.00
C51    C     0.92361   0.11309   0.76485   0.00000  Uiso   1.00
C52    C     0.15425   0.03896   0.76376   0.00000  Uiso   1.00
C53    C     0.17110   0.99418   0.73707   0.00000  Uiso   1.00
C54    C     0.19550   0.99037   0.64401   0.00000  Uiso   1.00
C55    C     0.23723   0.96538   0.50142   0.00000  Uiso   1.00
C56    C     0.15473   0.09064   0.91513   0.00000  Uiso   1.00
C57    C     0.17201   0.08931   0.01570   0.00000  Uiso   1.00
C58    C     0.19683   0.12900   0.05008   0.00000  Uiso   1.00
C59    C     0.23931   0.18426   0.14251   0.00000  Uiso   1.00
C60    C     0.14005   0.12401   0.74407   0.00000  Uiso   1.00
C61    C     0.08748   0.11340   0.76199   0.00000  Uiso   1.00
C62    C     0.04960   0.13898   0.72126   0.00000  Uiso   1.00
C63    C     0.00415   0.12357   0.74680   0.00000  Uiso   1.00
C64    C     0.16152   0.07852   0.69978   0.00000  Uiso   1.00
C65    C     0.18590   0.07477   0.60675   0.00000  Uiso   1.00
C66    C     0.20278   0.03000   0.57992   0.00000  Uiso   1.00
C67    C     0.16200   0.13020   0.85115   0.00000  Uiso   1.00
C68    C     0.18681   0.16990   0.88538   0.00000  Uiso   1.00
C69    C     0.20411   0.16864   0.98598   0.00000  Uiso   1.00
H70    H     0.12101   0.02037   0.91167   0.00000  Uiso   1.00
H71    H     0.02919   0.02776   0.90109   0.00000  Uiso   1.00
H72    H     0.16547   0.96357   0.78660   0.00000  Uiso   1.00
H73    H     0.16637   0.05869   0.06519   0.00000  Uiso   1.00
H74    H     0.93058   0.05340   0.86111   0.00000  Uiso   1.00
H75    H     0.21796   0.91805   0.61972   0.00000  Uiso   1.00
H76    H     0.21987   0.11862   0.20718   0.00000  Uiso   1.00
H77    H     0.14571   0.15482   0.69426   0.00000  Uiso   1.00
H78    H     0.05524   0.16959   0.67175   0.00000  Uiso   1.00
H79    H     0.19152   0.10540   0.55726   0.00000  Uiso   1.00
H80    H     0.19243   0.20051   0.83585   0.00000  Uiso   1.00
H81    H     0.95173   0.16851   0.67496   0.00000  Uiso   1.00
H82    H     0.23911   0.03316   0.43358   0.00000  Uiso   1.00
H83    H     0.24102   0.23373   0.02104   0.00000  Uiso   1.00
O84    O     0.88120   0.11824   0.75712   0.00000  Uiso   1.00
O85    O     0.25823   0.94067   0.44044   0.00000  Uiso   1.00
O86    O     0.26073   0.20381   0.21118   0.00000  Uiso   1.00
N87    N     0.94798   0.07847   0.82040   0.00000  Uiso   1.00
N88    N     0.21665   0.95192   0.59471   0.00000  Uiso   1.00
N89    N     0.21845   0.13943   0.14393   0.00000  Uiso   1.00
N90    N     0.95936   0.14041   0.72024   0.00000  Uiso   1.00
N91    N     0.22803   0.01386   0.49455   0.00000  Uiso   1.00
N92    N     0.22982   0.20137   0.04377   0.00000  Uiso   1.00
C93    C     0.87333   0.94883   0.86186   0.00000  Uiso   1.00
C94    C     0.91980   0.92616   0.82597   0.00000  Uiso   1.00
C95    C     0.96520   0.94161   0.85158   0.00000  Uiso   1.00
C96    C     0.00313   0.91607   0.81089   0.00000  Uiso   1.00
C97    C     0.07639   0.88691   0.76485   0.00000  Uiso   1.00
C98    C     0.84575   0.96104   0.76376   0.00000  Uiso   1.00
C99    C     0.82890   0.00582   0.73707   0.00000  Uiso   1.00
C100   C     0.80450   0.00963   0.64401   0.00000  Uiso   1.00
C101   C     0.76277   0.03462   0.50142   0.00000  Uiso   1.00
C102   C     0.84527   0.90936   0.91513   0.00000  Uiso   1.00
C103   C     0.82799   0.91069   0.01570   0.00000  Uiso   1.00
C104   C     0.80317   0.87100   0.05008   0.00000  Uiso   1.00
C105   C     0.76069   0.81574   0.14251   0.00000  Uiso   1.00
C106   C     0.85995   0.87599   0.74407   0.00000  Uiso   1.00
C107   C     0.91252   0.88660   0.76199   0.00000  Uiso   1.00
C108   C     0.95040   0.86102   0.72126   0.00000  Uiso   1.00
C109   C     0.99585   0.87643   0.74680   0.00000  Uiso   1.00
C110   C     0.83848   0.92148   0.69978   0.00000  Uiso   1.00
C111   C     0.81410   0.92523   0.60675   0.00000  Uiso   1.00
C112   C     0.79722   0.97000   0.57992   0.00000  Uiso   1.00
C113   C     0.83800   0.86980   0.85115   0.00000  Uiso   1.00
C114   C     0.81319   0.83010   0.88538   0.00000  Uiso   1.00
C115   C     0.79589   0.83136   0.98598   0.00000  Uiso   1.00
H116   H     0.87899   0.97963   0.91167   0.00000  Uiso   1.00
H117   H     0.97081   0.97224   0.90109   0.00000  Uiso   1.00
H118   H     0.83453   0.03643   0.78660   0.00000  Uiso   1.00
H119   H     0.83363   0.94131   0.06519   0.00000  Uiso   1.00
H120   H     0.06942   0.94660   0.86111   0.00000  Uiso   1.00
H121   H     0.78204   0.08195   0.61972   0.00000  Uiso   1.00
H122   H     0.78013   0.88138   0.20718   0.00000  Uiso   1.00
H123   H     0.85429   0.84518   0.69426   0.00000  Uiso   1.00
H124   H     0.94476   0.83041   0.67175   0.00000  Uiso   1.00
H125   H     0.80848   0.89460   0.55726   0.00000  Uiso   1.00
H126   H     0.80757   0.79949   0.83585   0.00000  Uiso   1.00
H127   H     0.04827   0.83149   0.67496   0.00000  Uiso   1.00
H128   H     0.76089   0.96684   0.43358   0.00000  Uiso   1.00
H129   H     0.75898   0.76627   0.02104   0.00000  Uiso   1.00
O130   O     0.11880   0.88176   0.75712   0.00000  Uiso   1.00
O131   O     0.74177   0.05933   0.44044   0.00000  Uiso   1.00
O132   O     0.73927   0.79619   0.21118   0.00000  Uiso   1.00
N133   N     0.05202   0.92153   0.82040   0.00000  Uiso   1.00
N134   N     0.78335   0.04808   0.59471   0.00000  Uiso   1.00
N135   N     0.78155   0.86057   0.14393   0.00000  Uiso   1.00
N136   N     0.04064   0.85959   0.72024   0.00000  Uiso   1.00
N137   N     0.77197   0.98614   0.49455   0.00000  Uiso   1.00
N138   N     0.77018   0.79863   0.04377   0.00000  Uiso   1.00
C139   C     0.37333   0.44883   0.36186   0.00000  Uiso   1.00
C140   C     0.41980   0.42616   0.32597   0.00000  Uiso   1.00
C141   C     0.46520   0.44161   0.35158   0.00000  Uiso   1.00
C142   C     0.50313   0.41607   0.31089   0.00000  Uiso   1.00
C143   C     0.57639   0.38691   0.26485   0.00000  Uiso   1.00
C144   C     0.34575   0.46104   0.26376   0.00000  Uiso   1.00
C145   C     0.32890   0.50582   0.23707   0.00000  Uiso   1.00
C146   C     0.30450   0.50963   0.14401   0.00000  Uiso   1.00
C147   C     0.26277   0.53462   0.00142   0.00000  Uiso   1.00
C148   C     0.34527   0.40936   0.41513   0.00000  Uiso   1.00
C149   C     0.32799   0.41069   0.51570   0.00000  Uiso   1.00
C150   C     0.30317   0.37100   0.55008   0.00000  Uiso   1.00
C151   C     0.26069   0.31574   0.64251   0.00000  Uiso   1.00
C152   C     0.35995   0.37599   0.24407   0.00000  Uiso   1.00
C153   C     0.41252   0.38660   0.26199   0.00000  Uiso   1.00
C154   C     0.45040   0.36102   0.22126   0.00000  Uiso   1.00
C155   C     0.49585   0.37643   0.24680   0.00000  Uiso   1.00
C156   C     0.33848   0.42148   0.19978   0.00000  Uiso   1.00
C157   C     0.31410   0.42523   0.10675   0.00000  Uiso   1.00
C158   C     0.29722   0.47000   0.07992   0.00000  Uiso   1.00
C159   C     0.33800   0.36980   0.35115   0.00000  Uiso   1.00
C160   C     0.31319   0.33010   0.38538   0.00000  Uiso   1.00
C161   C     0.29589   0.33136   0.48598   0.00000  Uiso   1.00
H162   H     0.37899   0.47963   0.41167   0.00000  Uiso   1.00
H163   H     0.47081   0.47224   0.40109   0.00000  Uiso   1.00
H164   H     0.33453   0.53643   0.28660   0.00000  Uiso   1.00
H165   H     0.33363   0.44131   0.56519   0.00000  Uiso   1.00
H166   H     0.56942   0.44660   0.36111   0.00000  Uiso   1.00
H167   H     0.28204   0.58195   0.11972   0.00000  Uiso   1.00
H168   H     0.28013   0.38138   0.70718   0.00000  Uiso   1.00
H169   H     0.35429   0.34518   0.19426   0.00000  Uiso   1.00
H170   H     0.44476   0.33041   0.17175   0.00000  Uiso   1.00
H171   H     0.30848   0.39460   0.05726   0.00000  Uiso   1.00
H172   H     0.30757   0.29949   0.33585   0.00000  Uiso   1.00
H173   H     0.54827   0.33149   0.17496   0.00000  Uiso   1.00
H174   H     0.26089   0.46684   0.93358   0.00000  Uiso   1.00
H175   H     0.25898   0.26627   0.52104   0.00000  Uiso   1.00
O176   O     0.61880   0.38176   0.25712   0.00000  Uiso   1.00
O177   O     0.24177   0.55933   0.94044   0.00000  Uiso   1.00
O178   O     0.23927   0.29619   0.71118   0.00000  Uiso   1.00
N179   N     0.55202   0.42153   0.32040   0.00000  Uiso   1.00
N180   N     0.28335   0.54808   0.09471   0.00000  Uiso   1.00
N181   N     0.28155   0.36057   0.64393   0.00000  Uiso   1.00
N182   N     0.54064   0.35959   0.22024   0.00000  Uiso   1.00
N183   N     0.27197   0.48614   0.99455   0.00000  Uiso   1.00
N184   N     0.27018   0.29863   0.54377   0.00000  Uiso   1.00
C185   C     0.44883   0.12667   0.61186   0.00000  Uiso   1.00
C186   C     0.42616   0.08020   0.57597   0.00000  Uiso   1.00
C187   C     0.44161   0.03480   0.60158   0.00000  Uiso   1.00
C188   C     0.41607   0.99687   0.56089   0.00000  Uiso   1.00
C189   C     0.38691   0.92361   0.51485   0.00000  Uiso   1.00
C190   C     0.46104   0.15425   0.51376   0.00000  Uiso   1.00
C191   C     0.50582   0.17110   0.48707   0.00000  Uiso   1.00
C192   C     0.50963   0.19550   0.39401   0.00000  Uiso   1.00
C193   C     0.53462   0.23723   0.25142   0.00000  Uiso   1.00
C194   C     0.40936   0.15473   0.66513   0.00000  Uiso   1.00
C195   C     0.41069   0.17201   0.76570   0.00000  Uiso   1.00
C196   C     0.37100   0.19683   0.80008   0.00000  Uiso   1.00
C197   C     0.31574   0.23931   0.89251   0.00000  Uiso   1.00
C198   C     0.37599   0.14005   0.49407   0.00000  Uiso   1.00
C199   C     0.38660   0.08748   0.51199   0.00000  Uiso   1.00
C200   C     0.36102   0.04960   0.47126   0.00000  Uiso   1.00
C201   C     0.37643   0.00415   0.49680   0.00000  Uiso   1.00
C202   C     0.42148   0.16152   0.44978   0.00000  Uiso   1.00
C203   C     0.42523   0.18590   0.35675   0.00000  Uiso   1.00
C204   C     0.47000   0.20278   0.32992   0.00000  Uiso   1.00
C205   C     0.36980   0.16200   0.60115   0.00000  Uiso   1.00
C206   C     0.33010   0.18681   0.63538   0.00000  Uiso   1.00
C207   C     0.33136   0.20411   0.73598   0.00000  Uiso   1.00
H208   H     0.47963   0.12101   0.66167   0.00000  Uiso   1.00
H209   H     0.47224   0.02919   0.65109   0.00000  Uiso   1.00
H210   H     0.53643   0.16547   0.53660   0.00000  Uiso   1.00
H211   H     0.44131   0.16637   0.81519   0.00000  Uiso   1.00
H212   H     0.44660   0.93058   0.61111   0.00000  Uiso   1.00
H213   H     0.58195   0.21796   0.36972   0.00000  Uiso   1.00
H214   H     0.38138   0.21987   0.95718   0.00000  Uiso   1.00
H215   H     0.34518   0.14571   0.44426   0.00000  Uiso   1.00
H216   H     0.33041   0.05524   0.42175   0.00000  Uiso   1.00
H217   H     0.39460   0.19152   0.30726   0.00000  Uiso   1.00
H218   H     0.29949   0.19243   0.58585   0.00000  Uiso   1.00
H219   H     0.33149   0.95173   0.42496   0.00000  Uiso   1.00
H220   H     0.46684   0.23911   0.18358   0.00000  Uiso   1.00
H221   H     0.26627   0.24102   0.77104   0.00000  Uiso   1.00
O222   O     0.38176   0.88120   0.50712   0.00000  Uiso   1.00
O223   O     0.55933   0.25823   0.19044   0.00000  Uiso   1.00
O224   O     0.29619   0.26073   0.96118   0.00000  Uiso   1.00
N225   N     0.42153   0.94798   0.57040   0.00000  Uiso   1.00
N226   N     0.54808   0.21665   0.34471   0.00000  Uiso   1.00
N227   N     0.36057   0.21845   0.89393   0.00000  Uiso   1.00
N228   N     0.35959   0.95936   0.47024   0.00000  Uiso   1.00
N229   N     0.48614   0.22803   0.24455   0.00000  Uiso   1.00
N230   N     0.29863   0.22982   0.79377   0.00000  Uiso   1.00
C231   C     0.94883   0.62667   0.11186   0.00000  Uiso   1.00
C232   C     0.92616   0.58020   0.07597   0.00000  Uiso   1.00
C233   C     0.94161   0.53480   0.10158   0.00000  Uiso   1.00
C234   C     0.91607   0.49687   0.06089   0.00000  Uiso   1.00
C235   C     0.88691   0.42361   0.01485   0.00000  Uiso   1.00
C236   C     0.96104   0.65425   0.01376   0.00000  Uiso   1.00
C237   C     0.00582   0.67110   0.98707   0.00000  Uiso   1.00
C238   C     0.00963   0.69550   0.89401   0.00000  Uiso   1.00
C239   C     0.03462   0.73723   0.75142   0.00000  Uiso   1.00
C240   C     0.90936   0.65473   0.16513   0.00000  Uiso   1.00
C241   C     0.91069   0.67201   0.26570   0.00000  Uiso   1.00
C242   C     0.87100   0.69683   0.30008   0.00000  Uiso   1.00
C243   C     0.81574   0.73931   0.39251   0.00000  Uiso   1.00
C244   C     0.87599   0.64005   0.99407   0.00000  Uiso   1.00
C245   C     0.88660   0.58748   0.01199   0.00000  Uiso   1.00
C246   C     0.86102   0.54960   0.97126   0.00000  Uiso   1.00
C247   C     0.87643   0.50415   0.99680   0.00000  Uiso   1.00
C248   C     0.92148   0.66152   0.94978   0.00000  Uiso   1.00
C249   C     0.92523   0.68590   0.85675   0.00000  Uiso   1.00
C250   C     0.97000   0.70278   0.82992   0.00000  Uiso   1.00
C251   C     0.86980   0.66200   0.10115   0.00000  Uiso   1.00
C252   C     0.83010   0.68681   0.13538   0.00000  Uiso   1.00
C253   C     0.83136   0.70411   0.23598   0.00000  Uiso   1.00
H254   H     0.97963   0.62101   0.16167   0.00000  Uiso   1.00
H255   H     0.97224   0.52919   0.15109   0.00000  Uiso   1.00
H256   H     0.03643   0.66547   0.03660   0.00000  Uiso   1.00
H257   H     0.94131   0.66637   0.31519   0.00000  Uiso   1.00
H258   H     0.94660   0.43058   0.11111   0.00000  Uiso   1.00
H259   H     0.08195   0.71796   0.86972   0.00000  Uiso   1.00
H260   H     0.88138   0.71987   0.45718   0.00000  Uiso   1.00
H261   H     0.84518   0.64571   0.94426   0.00000  Uiso   1.00
H262   H     0.83041   0.55524   0.92175   0.00000  Uiso   1.00
H263   H     0.89460   0.69152   0.80726   0.00000  Uiso   1.00
H264   H     0.79949   0.69243   0.08585   0.00000  Uiso   1.00
H265   H     0.83149   0.45173   0.92496   0.00000  Uiso   1.00
H266   H     0.96684   0.73911   0.68358   0.00000  Uiso   1.00
H267   H     0.76627   0.74102   0.27104   0.00000  Uiso   1.00
O268   O     0.88176   0.38120   0.00712   0.00000  Uiso   1.00
O269   O     0.05933   0.75823   0.69044   0.00000  Uiso   1.00
O270   O     0.79619   0.76073   0.46118   0.00000  Uiso   1.00
N271   N     0.92153   0.44798   0.07040   0.00000  Uiso   1.00
N272   N     0.04808   0.71665   0.84471   0.00000  Uiso   1.00
N273   N     0.86057   0.71845   0.39393   0.00000  Uiso   1.00
N274   N     0.85959   0.45936   0.97024   0.00000  Uiso   1.00
N275   N     0.98614   0.72803   0.74455   0.00000  Uiso   1.00
N276   N     0.79863   0.72982   0.29377   0.00000  Uiso   1.00
C277   C     0.05117   0.37333   0.11186   0.00000  Uiso   1.00
C278   C     0.07384   0.41980   0.07597   0.00000  Uiso   1.00
C279   C     0.05839   0.46520   0.10158   0.00000  Uiso   1.00
C280   C     0.08393   0.50313   0.06089   0.00000  Uiso   1.00
C281   C     0.11309   0.57639   0.01485   0.00000  Uiso   1.00
C282   C     0.03896   0.34575   0.01376   0.00000  Uiso   1.00
C283   C     0.99418   0.32890   0.98707   0.00000  Uiso   1.00
C284   C     0.99037   0.30450   0.89401   0.00000  Uiso   1.00
C285   C     0.96538   0.26277   0.75142   0.00000  Uiso   1.00
C286   C     0.09064   0.34527   0.16513   0.00000  Uiso   1.00
C287   C     0.08931   0.32799   0.26570   0.00000  Uiso   1.00
C288   C     0.12900   0.30317   0.30008   0.00000  Uiso   1.00
C289   C     0.18426   0.26069   0.39251   0.00000  Uiso   1.00
C290   C     0.12401   0.35995   0.99407   0.00000  Uiso   1.00
C291   C     0.11340   0.41252   0.01199   0.00000  Uiso   1.00
C292   C     0.13898   0.45040   0.97126   0.00000  Uiso   1.00
C293   C     0.12357   0.49585   0.99680   0.00000  Uiso   1.00
C294   C     0.07852   0.33848   0.94978   0.00000  Uiso   1.00
C295   C     0.07477   0.31410   0.85675   0.00000  Uiso   1.00
C296   C     0.03000   0.29722   0.82992   0.00000  Uiso   1.00
C297   C     0.13020   0.33800   0.10115   0.00000  Uiso   1.00
C298   C     0.16990   0.31319   0.13538   0.00000  Uiso   1.00
C299   C     0.16864   0.29589   0.23598   0.00000  Uiso   1.00
H300   H     0.02037   0.37899   0.16167   0.00000  Uiso   1.00
H301   H     0.02776   0.47081   0.15109   0.00000  Uiso   1.00
H302   H     0.96357   0.33453   0.03660   0.00000  Uiso   1.00
H303   H     0.05869   0.33363   0.31519   0.00000  Uiso   1.00
H304   H     0.05340   0.56942   0.11111   0.00000  Uiso   1.00
H305   H     0.91805   0.28204   0.86972   0.00000  Uiso   1.00
H306   H     0.11862   0.28013   0.45718   0.00000  Uiso   1.00
H307   H     0.15482   0.35429   0.94426   0.00000  Uiso   1.00
H308   H     0.16959   0.44476   0.92175   0.00000  Uiso   1.00
H309   H     0.10540   0.30848   0.80726   0.00000  Uiso   1.00
H310   H     0.20051   0.30757   0.08585   0.00000  Uiso   1.00
H311   H     0.16851   0.54827   0.92496   0.00000  Uiso   1.00
H312   H     0.03316   0.26089   0.68358   0.00000  Uiso   1.00
H313   H     0.23373   0.25898   0.27104   0.00000  Uiso   1.00
O314   O     0.11824   0.61880   0.00712   0.00000  Uiso   1.00
O315   O     0.94067   0.24177   0.69044   0.00000  Uiso   1.00
O316   O     0.20381   0.23927   0.46118   0.00000  Uiso   1.00
N317   N     0.07847   0.55202   0.07040   0.00000  Uiso   1.00
N318   N     0.95192   0.28335   0.84471   0.00000  Uiso   1.00
N319   N     0.13943   0.28155   0.39393   0.00000  Uiso   1.00
N320   N     0.14041   0.54064   0.97024   0.00000  Uiso   1.00
N321   N     0.01386   0.27197   0.74455   0.00000  Uiso   1.00
N322   N     0.20137   0.27018   0.29377   0.00000  Uiso   1.00
C323   C     0.55117   0.87333   0.61186   0.00000  Uiso   1.00
C324   C     0.57384   0.91980   0.57597   0.00000  Uiso   1.00
C325   C     0.55839   0.96520   0.60158   0.00000  Uiso   1.00
C326   C     0.58393   0.00313   0.56089   0.00000  Uiso   1.00
C327   C     0.61309   0.07639   0.51485   0.00000  Uiso   1.00
C328   C     0.53896   0.84575   0.51376   0.00000  Uiso   1.00
C329   C     0.49418   0.82890   0.48707   0.00000  Uiso   1.00
C330   C     0.49037   0.80450   0.39401   0.00000  Uiso   1.00
C331   C     0.46538   0.76277   0.25142   0.00000  Uiso   1.00
C332   C     0.59064   0.84527   0.66513   0.00000  Uiso   1.00
C333   C     0.58931   0.82799   0.76570   0.00000  Uiso   1.00
C334   C     0.62900   0.80317   0.80008   0.00000  Uiso   1.00
C335   C     0.68426   0.76069   0.89251   0.00000  Uiso   1.00
C336   C     0.62401   0.85995   0.49407   0.00000  Uiso   1.00
C337   C     0.61340   0.91252   0.51199   0.00000  Uiso   1.00
C338   C     0.63898   0.95040   0.47126   0.00000  Uiso   1.00
C339   C     0.62357   0.99585   0.49680   0.00000  Uiso   1.00
C340   C     0.57852   0.83848   0.44978   0.00000  Uiso   1.00
C341   C     0.57477   0.81410   0.35675   0.00000  Uiso   1.00
C342   C     0.53000   0.79722   0.32992   0.00000  Uiso   1.00
C343   C     0.63020   0.83800   0.60115   0.00000  Uiso   1.00
C344   C     0.66990   0.81319   0.63538   0.00000  Uiso   1.00
C345   C     0.66864   0.79589   0.73598   0.00000  Uiso   1.00
H346   H     0.52037   0.87899   0.66167   0.00000  Uiso   1.00
H347   H     0.52776   0.97081   0.65109   0.00000  Uiso   1.00
H348   H     0.46357   0.83453   0.53660   0.00000  Uiso   1.00
H349   H     0.55869   0.83363   0.81519   0.00000  Uiso   1.00
H350   H     0.55340   0.06942   0.61111   0.00000  Uiso   1.00
H351   H     0.41805   0.78204   0.36972   0.00000  Uiso   1.00
H352   H     0.61862   0.78013   0.95718   0.00000  Uiso   1.00
H353   H     0.65482   0.85429   0.44426   0.00000  Uiso   1.00
H354   H     0.66959   0.94476   0.42175   0.00000  Uiso   1.00
H355   H     0.60540   0.80848   0.30726   0.00000  Uiso   1.00
H356   H     0.70051   0.80757   0.58585   0.00000  Uiso   1.00
H357   H     0.66851   0.04827   0.42496   0.00000  Uiso   1.00
H358   H     0.53316   0.76089   0.18358   0.00000  Uiso   1.00
H359   H     0.73373   0.75898   0.77104   0.00000  Uiso   1.00
O360   O     0.61824   0.11880   0.50712   0.00000  Uiso   1.00
O361   O     0.44067   0.74177   0.19044   0.00000  Uiso   1.00
O362   O     0.70381   0.73927   0.96118   0.00000  Uiso   1.00
N363   N     0.57847   0.05202   0.57040   0.00000  Uiso   1.00
N364   N     0.45192   0.78335   0.34471   0.00000  Uiso   1.00
N365   N     0.63943   0.78155   0.89393   0.00000  Uiso   1.00
N366   N     0.64041   0.04064   0.47024   0.00000  Uiso   1.00
N367   N     0.51386   0.77197   0.24455   0.00000  Uiso   1.00
N368   N     0.70137   0.77018   0.79377   0.00000  Uiso   1.00
C369   C     0.37333   0.94883   0.88814   0.00000  Uiso   1.00
C370   C     0.41980   0.92616   0.92403   0.00000  Uiso   1.00
C371   C     0.46520   0.94161   0.89842   0.00000  Uiso   1.00
C372   C     0.50313   0.91607   0.93911   0.00000  Uiso   1.00
C373   C     0.57639   0.88691   0.98515   0.00000  Uiso   1.00
C374   C     0.34575   0.96104   0.98624   0.00000  Uiso   1.00
C375   C     0.32890   0.00582   0.01293   0.00000  Uiso   1.00
C376   C     0.30450   0.00963   0.10599   0.00000  Uiso   1.00
C377   C     0.26277   0.03462   0.24858   0.00000  Uiso   1.00
C378   C     0.34527   0.90936   0.83487   0.00000  Uiso   1.00
C379   C     0.32799   0.91069   0.73430   0.00000  Uiso   1.00
C380   C     0.30317   0.87100   0.69992   0.00000  Uiso   1.00
C381   C     0.26069   0.81574   0.60749   0.00000  Uiso   1.00
C382   C     0.35995   0.87599   0.00593   0.00000  Uiso   1.00
C383   C     0.41252   0.88660   0.98801   0.00000  Uiso   1.00
C384   C     0.45040   0.86102   0.02874   0.00000  Uiso   1.00
C385   C     0.49585   0.87643   0.00320   0.00000  Uiso   1.00
C386   C     0.33848   0.92148   0.05022   0.00000  Uiso   1.00
C387   C     0.31410   0.92523   0.14325   0.00000  Uiso   1.00
C388   C     0.29722   0.97000   0.17008   0.00000  Uiso   1.00
C389   C     0.33800   0.86980   0.89885   0.00000  Uiso   1.00
C390   C     0.31319   0.83010   0.86462   0.00000  Uiso   1.00
C391   C     0.29589   0.83136   0.76402   0.00000  Uiso   1.00
H392   H     0.37899   0.97963   0.83833   0.00000  Uiso   1.00
H393   H     0.47081   0.97224   0.84891   0.00000  Uiso   1.00
H394   H     0.33453   0.03643   0.96340   0.00000  Uiso   1.00
H395   H     0.33363   0.94131   0.68481   0.00000  Uiso   1.00
H396   H     0.56942   0.94660   0.88889   0.00000  Uiso   1.00
H397   H     0.28204   0.08195   0.13028   0.00000  Uiso   1.00
H398   H     0.28013   0.88138   0.54282   0.00000  Uiso   1.00
H399   H     0.35429   0.84518   0.05574   0.00000  Uiso   1.00
H400   H     0.44476   0.83041   0.07825   0.00000  Uiso   1.00
H401   H     0.30848   0.89460   0.19274   0.00000  Uiso   1.00
H402   H     0.30757   0.79949   0.91415   0.00000  Uiso   1.00
H403   H     0.54827   0.83149   0.07504   0.00000  Uiso   1.00
H404   H     0.26089   0.96684   0.31642   0.00000  Uiso   1.00
H405   H     0.25898   0.76627   0.72896   0.00000  Uiso   1.00
O406   O     0.61880   0.88176   0.99288   0.00000  Uiso   1.00
O407   O     0.24177   0.05933   0.30956   0.00000  Uiso   1.00
O408   O     0.23927   0.79619   0.53882   0.00000  Uiso   1.00
N409   N     0.55202   0.92153   0.92960   0.00000  Uiso   1.00
N410   N     0.28335   0.04808   0.15529   0.00000  Uiso   1.00
N411   N     0.28155   0.86057   0.60607   0.00000  Uiso   1.00
N412   N     0.54064   0.85959   0.02976   0.00000  Uiso   1.00
N413   N     0.27197   0.98614   0.25545   0.00000  Uiso   1.00
N414   N     0.27018   0.79863   0.70623   0.00000  Uiso   1.00
C415   C     0.87333   0.44883   0.38814   0.00000  Uiso   1.00
C416   C     0.91980   0.42616   0.42403   0.00000  Uiso   1.00
C417   C     0.96520   0.44161   0.39842   0.00000  Uiso   1.00
C418   C     0.00313   0.41607   0.43911   0.00000  Uiso   1.00
C419   C     0.07639   0.38691   0.48515   0.00000  Uiso   1.00
C420   C     0.84575   0.46104   0.48624   0.00000  Uiso   1.00
C421   C     0.82890   0.50582   0.51293   0.00000  Uiso   1.00
C422   C     0.80450   0.50963   0.60599   0.00000  Uiso   1.00
C423   C     0.76277   0.53462   0.74858   0.00000  Uiso   1.00
C424   C     0.84527   0.40936   0.33487   0.00000  Uiso   1.00
C425   C     0.82799   0.41069   0.23430   0.00000  Uiso   1.00
C426   C     0.80317   0.37100   0.19992   0.00000  Uiso   1.00
C427   C     0.76069   0.31574   0.10749   0.00000  Uiso   1.00
C428   C     0.85995   0.37599   0.50593   0.00000  Uiso   1.00
C429   C     0.91252   0.38660   0.48801   0.00000  Uiso   1.00
C430   C     0.95040   0.36102   0.52874   0.00000  Uiso   1.00
C431   C     0.99585   0.37643   0.50320   0.00000  Uiso   1.00
C432   C     0.83848   0.42148   0.55022   0.00000  Uiso   1.00
C433   C     0.81410   0.42523   0.64325   0.00000  Uiso   1.00
C434   C     0.79722   0.47000   0.67008   0.00000  Uiso   1.00
C435   C     0.83800   0.36980   0.39885   0.00000  Uiso   1.00
C436   C     0.81319   0.33010   0.36462   0.00000  Uiso   1.00
C437   C     0.79589   0.33136   0.26402   0.00000  Uiso   1.00
H438   H     0.87899   0.47963   0.33833   0.00000  Uiso   1.00
H439   H     0.97081   0.47224   0.34891   0.00000  Uiso   1.00
H440   H     0.83453   0.53643   0.46340   0.00000  Uiso   1.00
H441   H     0.83363   0.44131   0.18481   0.00000  Uiso   1.00
H442   H     0.06942   0.44660   0.38889   0.00000  Uiso   1.00
H443   H     0.78204   0.58195   0.63028   0.00000  Uiso   1.00
H444   H     0.78013   0.38138   0.04282   0.00000  Uiso   1.00
H445   H     0.85429   0.34518   0.55574   0.00000  Uiso   1.00
H446   H     0.94476   0.33041   0.57825   0.00000  Uiso   1.00
H447   H     0.80848   0.39460   0.69274   0.00000  Uiso   1.00
H448   H     0.80757   0.29949   0.41415   0.00000  Uiso   1.00
H449   H     0.04827   0.33149   0.57504   0.00000  Uiso   1.00
H450   H     0.76089   0.46684   0.81642   0.00000  Uiso   1.00
H451   H     0.75898   0.26627   0.22896   0.00000  Uiso   1.00
O452   O     0.11880   0.38176   0.49288   0.00000  Uiso   1.00
O453   O     0.74177   0.55933   0.80956   0.00000  Uiso   1.00
O454   O     0.73927   0.29619   0.03882   0.00000  Uiso   1.00
N455   N     0.05202   0.42153   0.42960   0.00000  Uiso   1.00
N456   N     0.78335   0.54808   0.65529   0.00000  Uiso   1.00
N457   N     0.78155   0.36057   0.10607   0.00000  Uiso   1.00
N458   N     0.04064   0.35959   0.52976   0.00000  Uiso   1.00
N459   N     0.77197   0.48614   0.75545   0.00000  Uiso   1.00
N460   N     0.77018   0.29863   0.20623   0.00000  Uiso   1.00
C461   C     0.12667   0.55117   0.38814   0.00000  Uiso   1.00
C462   C     0.08020   0.57384   0.42403   0.00000  Uiso   1.00
C463   C     0.03480   0.55839   0.39842   0.00000  Uiso   1.00
C464   C     0.99687   0.58393   0.43911   0.00000  Uiso   1.00
C465   C     0.92361   0.61309   0.48515   0.00000  Uiso   1.00
C466   C     0.15425   0.53896   0.48624   0.00000  Uiso   1.00
C467   C     0.17110   0.49418   0.51293   0.00000  Uiso   1.00
C468   C     0.19550   0.49037   0.60599   0.00000  Uiso   1.00
C469   C     0.23723   0.46538   0.74858   0.00000  Uiso   1.00
C470   C     0.15473   0.59064   0.33487   0.00000  Uiso   1.00
C471   C     0.17201   0.58931   0.23430   0.00000  Uiso   1.00
C472   C     0.19683   0.62900   0.19992   0.00000  Uiso   1.00
C473   C     0.23931   0.68426   0.10749   0.00000  Uiso   1.00
C474   C     0.14005   0.62401   0.50593   0.00000  Uiso   1.00
C475   C     0.08748   0.61340   0.48801   0.00000  Uiso   1.00
C476   C     0.04960   0.63898   0.52874   0.00000  Uiso   1.00
C477   C     0.00415   0.62357   0.50320   0.00000  Uiso   1.00
C478   C     0.16152   0.57852   0.55022   0.00000  Uiso   1.00
C479   C     0.18590   0.57477   0.64325   0.00000  Uiso   1.00
C480   C     0.20278   0.53000   0.67008   0.00000  Uiso   1.00
C481   C     0.16200   0.63020   0.39885   0.00000  Uiso   1.00
C482   C     0.18681   0.66990   0.36462   0.00000  Uiso   1.00
C483   C     0.20411   0.66864   0.26402   0.00000  Uiso   1.00
H484   H     0.12101   0.52037   0.33833   0.00000  Uiso   1.00
H485   H     0.02919   0.52776   0.34891   0.00000  Uiso   1.00
H486   H     0.16547   0.46357   0.46340   0.00000  Uiso   1.00
H487   H     0.16637   0.55869   0.18481   0.00000  Uiso   1.00
H488   H     0.93058   0.55340   0.38889   0.00000  Uiso   1.00
H489   H     0.21796   0.41805   0.63028   0.00000  Uiso   1.00
H490   H     0.21987   0.61862   0.04282   0.00000  Uiso   1.00
H491   H     0.14571   0.65482   0.55574   0.00000  Uiso   1.00
H492   H     0.05524   0.66959   0.57825   0.00000  Uiso   1.00
H493   H     0.19152   0.60540   0.69274   0.00000  Uiso   1.00
H494   H     0.19243   0.70051   0.41415   0.00000  Uiso   1.00
H495   H     0.95173   0.66851   0.57504   0.00000  Uiso   1.00
H496   H     0.23911   0.53316   0.81642   0.00000  Uiso   1.00
H497   H     0.24102   0.73373   0.22896   0.00000  Uiso   1.00
O498   O     0.88120   0.61824   0.49288   0.00000  Uiso   1.00
O499   O     0.25823   0.44067   0.80956   0.00000  Uiso   1.00
O500   O     0.26073   0.70381   0.03882   0.00000  Uiso   1.00
N501   N     0.94798   0.57847   0.42960   0.00000  Uiso   1.00
N502   N     0.21665   0.45192   0.65529   0.00000  Uiso   1.00
N503   N     0.21845   0.63943   0.10607   0.00000  Uiso   1.00
N504   N     0.95936   0.64041   0.52976   0.00000  Uiso   1.00
N505   N     0.22803   0.51386   0.75545   0.00000  Uiso   1.00
N506   N     0.22982   0.70137   0.20623   0.00000  Uiso   1.00
C507   C     0.62667   0.05117   0.88814   0.00000  Uiso   1.00
C508   C     0.58020   0.07384   0.92403   0.00000  Uiso   1.00
C509   C     0.53480   0.05839   0.89842   0.00000  Uiso   1.00
C510   C     0.49687   0.08393   0.93911   0.00000  Uiso   1.00
C511   C     0.42361   0.11309   0.98515   0.00000  Uiso   1.00
C512   C     0.65425   0.03896   0.98624   0.00000  Uiso   1.00
C513   C     0.67110   0.99418   0.01293   0.00000  Uiso   1.00
C514   C     0.69550   0.99037   0.10599   0.00000  Uiso   1.00
C515   C     0.73723   0.96538   0.24858   0.00000  Uiso   1.00
C516   C     0.65473   0.09064   0.83487   0.00000  Uiso   1.00
C517   C     0.67201   0.08931   0.73430   0.00000  Uiso   1.00
C518   C     0.69683   0.12900   0.69992   0.00000  Uiso   1.00
C519   C     0.73931   0.18426   0.60749   0.00000  Uiso   1.00
C520   C     0.64005   0.12401   0.00593   0.00000  Uiso   1.00
C521   C     0.58748   0.11340   0.98801   0.00000  Uiso   1.00
C522   C     0.54960   0.13898   0.02874   0.00000  Uiso   1.00
C523   C     0.50415   0.12357   0.00320   0.00000  Uiso   1.00
C524   C     0.66152   0.07852   0.05022   0.00000  Uiso   1.00
C525   C     0.68590   0.07477   0.14325   0.00000  Uiso   1.00
C526   C     0.70278   0.03000   0.17008   0.00000  Uiso   1.00
C527   C     0.66200   0.13020   0.89885   0.00000  Uiso   1.00
C528   C     0.68681   0.16990   0.86462   0.00000  Uiso   1.00
C529   C     0.70411   0.16864   0.76402   0.00000  Uiso   1.00
H530   H     0.62101   0.02037   0.83833   0.00000  Uiso   1.00
H531   H     0.52919   0.02776   0.84891   0.00000  Uiso   1.00
H532   H     0.66547   0.96357   0.96340   0.00000  Uiso   1.00
H533   H     0.66637   0.05869   0.68481   0.00000  Uiso   1.00
H534   H     0.43058   0.05340   0.88889   0.00000  Uiso   1.00
H535   H     0.71796   0.91805   0.13028   0.00000  Uiso   1.00
H536   H     0.71987   0.11862   0.54282   0.00000  Uiso   1.00
H537   H     0.64571   0.15482   0.05574   0.00000  Uiso   1.00
H538   H     0.55524   0.16959   0.07825   0.00000  Uiso   1.00
H539   H     0.69152   0.10540   0.19274   0.00000  Uiso   1.00
H540   H     0.69243   0.20051   0.91415   0.00000  Uiso   1.00
H541   H     0.45173   0.16851   0.07504   0.00000  Uiso   1.00
H542   H     0.73911   0.03316   0.31642   0.00000  Uiso   1.00
H543   H     0.74102   0.23373   0.72896   0.00000  Uiso   1.00
O544   O     0.38120   0.11824   0.99288   0.00000  Uiso   1.00
O545   O     0.75823   0.94067   0.30956   0.00000  Uiso   1.00
O546   O     0.76073   0.20381   0.53882   0.00000  Uiso   1.00
N547   N     0.44798   0.07847   0.92960   0.00000  Uiso   1.00
N548   N     0.71665   0.95192   0.15529   0.00000  Uiso   1.00
N549   N     0.71845   0.13943   0.60607   0.00000  Uiso   1.00
N550   N     0.45936   0.14041   0.02976   0.00000  Uiso   1.00
N551   N     0.72803   0.01386   0.25545   0.00000  Uiso   1.00
N552   N     0.72982   0.20137   0.70623   0.00000  Uiso   1.00
C553   C     0.55117   0.37333   0.63814   0.00000  Uiso   1.00
C554   C     0.57384   0.41980   0.67403   0.00000  Uiso   1.00
C555   C     0.55839   0.46520   0.64842   0.00000  Uiso   1.00
C556   C     0.58393   0.50313   0.68911   0.00000  Uiso   1.00
C557   C     0.61309   0.57639   0.73515   0.00000  Uiso   1.00
C558   C     0.53896   0.34575   0.73624   0.00000  Uiso   1.00
C559   C     0.49418   0.32890   0.76293   0.00000  Uiso   1.00
C560   C     0.49037   0.30450   0.85599   0.00000  Uiso   1.00
C561   C     0.46538   0.26277   0.99858   0.00000  Uiso   1.00
C562   C     0.59064   0.34527   0.58487   0.00000  Uiso   1.00
C563   C     0.58931   0.32799   0.48430   0.00000  Uiso   1.00
C564   C     0.62900   0.30317   0.44992   0.00000  Uiso   1.00
C565   C     0.68426   0.26069   0.35749   0.00000  Uiso   1.00
C566   C     0.62401   0.35995   0.75593   0.00000  Uiso   1.00
C567   C     0.61340   0.41252   0.73801   0.00000  Uiso   1.00
C568   C     0.63898   0.45040   0.77874   0.00000  Uiso   1.00
C569   C     0.62357   0.49585   0.75320   0.00000  Uiso   1.00
C570   C     0.57852   0.33848   0.80022   0.00000  Uiso   1.00
C571   C     0.57477   0.31410   0.89325   0.00000  Uiso   1.00
C572   C     0.53000   0.29722   0.92008   0.00000  Uiso   1.00
C573   C     0.63020   0.33800   0.64885   0.00000  Uiso   1.00
C574   C     0.66990   0.31319   0.61462   0.00000  Uiso   1.00
C575   C     0.66864   0.29589   0.51402   0.00000  Uiso   1.00
H576   H     0.52037   0.37899   0.58833   0.00000  Uiso   1.00
H577   H     0.52776   0.47081   0.59891   0.00000  Uiso   1.00
H578   H     0.46357   0.33453   0.71340   0.00000  Uiso   1.00
H579   H     0.55869   0.33363   0.43481   0.00000  Uiso   1.00
H580   H     0.55340   0.56942   0.63889   0.00000  Uiso   1.00
H581   H     0.41805   0.28204   0.88028   0.00000  Uiso   1.00
H582   H     0.61862   0.28013   0.29282   0.00000  Uiso   1.00
H583   H     0.65482   0.35429   0.80574   0.00000  Uiso   1.00
H584   H     0.66959   0.44476   0.82825   0.00000  Uiso   1.00
H585   H     0.60540   0.30848   0.94274   0.00000  Uiso   1.00
H586   H     0.70051   0.30757   0.66415   0.00000  Uiso   1.00
H587   H     0.66851   0.54827   0.82504   0.00000  Uiso   1.00
H588   H     0.53316   0.26089   0.06642   0.00000  Uiso   1.00
H589   H     0.73373   0.25898   0.47896   0.00000  Uiso   1.00
O590   O     0.61824   0.61880   0.74288   0.00000  Uiso   1.00
O591   O     0.44067   0.24177   0.05956   0.00000  Uiso   1.00
O592   O     0.70381   0.23927   0.28882   0.00000  Uiso   1.00
N593   N     0.57847   0.55202   0.67960   0.00000  Uiso   1.00
N594   N     0.45192   0.28335   0.90529   0.00000  Uiso   1.00
N595   N     0.63943   0.28155   0.35607   0.00000  Uiso   1.00
N596   N     0.64041   0.54064   0.77976   0.00000  Uiso   1.00
N597   N     0.51386   0.27197   0.00545   0.00000  Uiso   1.00
N598   N     0.70137   0.27018   0.45623   0.00000  Uiso   1.00
C599   C     0.05117   0.87333   0.13814   0.00000  Uiso   1.00
C600   C     0.07384   0.91980   0.17403   0.00000  Uiso   1.00
C601   C     0.05839   0.96520   0.14842   0.00000  Uiso   1.00
C602   C     0.08393   0.00313   0.18911   0.00000  Uiso   1.00
C603   C     0.11309   0.07639   0.23515   0.00000  Uiso   1.00
C604   C     0.03896   0.84575   0.23624   0.00000  Uiso   1.00
C605   C     0.99418   0.82890   0.26293   0.00000  Uiso   1.00
C606   C     0.99037   0.80450   0.35599   0.00000  Uiso   1.00
C607   C     0.96538   0.76277   0.49858   0.00000  Uiso   1.00
C608   C     0.09064   0.84527   0.08487   0.00000  Uiso   1.00
C609   C     0.08931   0.82799   0.98430   0.00000  Uiso   1.00
C610   C     0.12900   0.80317   0.94992   0.00000  Uiso   1.00
C611   C     0.18426   0.76069   0.85749   0.00000  Uiso   1.00
C612   C     0.12401   0.85995   0.25593   0.00000  Uiso   1.00
C613   C     0.11340   0.91252   0.23801   0.00000  Uiso   1.00
C614   C     0.13898   0.95040   0.27874   0.00000  Uiso   1.00
C615   C     0.12357   0.99585   0.25320   0.00000  Uiso   1.00
C616   C     0.07852   0.83848   0.30022   0.00000  Uiso   1.00
C617   C     0.07477   0.81410   0.39325   0.00000  Uiso   1.00
C618   C     0.03000   0.79722   0.42008   0.00000  Uiso   1.00
C619   C     0.13020   0.83800   0.14885   0.00000  Uiso   1.00
C620   C     0.16990   0.81319   0.11462   0.00000  Uiso   1.00
C621   C     0.16864   0.79589   0.01402   0.00000  Uiso   1.00
H622   H     0.02037   0.87899   0.08833   0.00000  Uiso   1.00
H623   H     0.02776   0.97081   0.09891   0.00000  Uiso   1.00
H624   H     0.96357   0.83453   0.21340   0.00000  Uiso   1.00
H625   H     0.05869   0.83363   0.93481   0.00000  Uiso   1.00
H626   H     0.05340   0.06942   0.13889   0.00000  Uiso   1.00
H627   H     0.91805   0.78204   0.38028   0.00000  Uiso   1.00
H628   H     0.11862   0.78013   0.79282   0.00000  Uiso   1.00
H629   H     0.15482   0.85429   0.30574   0.00000  Uiso   1.00
H630   H     0.16959   0.94476   0.32825   0.00000  Uiso   1.00
H631   H     0.10540   0.80848   0.44274   0.00000  Uiso   1.00
H632   H     0.20051   0.80757   0.16415   0.00000  Uiso   1.00
H633   H     0.16851   0.04827   0.32504   0.00000  Uiso   1.00
H634   H     0.03316   0.76089   0.56642   0.00000  Uiso   1.00
H635   H     0.23373   0.75898   0.97896   0.00000  Uiso   1.00
O636   O     0.11824   0.11880   0.24288   0.00000  Uiso   1.00
O637   O     0.94067   0.74177   0.55956   0.00000  Uiso   1.00
O638   O     0.20381   0.73927   0.78882   0.00000  Uiso   1.00
N639   N     0.07847   0.05202   0.17960   0.00000  Uiso   1.00
N640   N     0.95192   0.78335   0.40529   0.00000  Uiso   1.00
N641   N     0.13943   0.78155   0.85607   0.00000  Uiso   1.00
N642   N     0.14041   0.04064   0.27976   0.00000  Uiso   1.00
N643   N     0.01386   0.77197   0.50545   0.00000  Uiso   1.00
N644   N     0.20137   0.77018   0.95623   0.00000  Uiso   1.00
C645   C     0.94883   0.12667   0.13814   0.00000  Uiso   1.00
C646   C     0.92616   0.08020   0.17403   0.00000  Uiso   1.00
C647   C     0.94161   0.03480   0.14842   0.00000  Uiso   1.00
C648   C     0.91607   0.99687   0.18911   0.00000  Uiso   1.00
C649   C     0.88691   0.92361   0.23515   0.00000  Uiso   1.00
C650   C     0.96104   0.15425   0.23624   0.00000  Uiso   1.00
C651   C     0.00582   0.17110   0.26293   0.00000  Uiso   1.00
C652   C     0.00963   0.19550   0.35599   0.00000  Uiso   1.00
C653   C     0.03462   0.23723   0.49858   0.00000  Uiso   1.00
C654   C     0.90936   0.15473   0.08487   0.00000  Uiso   1.00
C655   C     0.91069   0.17201   0.98430   0.00000  Uiso   1.00
C656   C     0.87100   0.19683   0.94992   0.00000  Uiso   1.00
C657   C     0.81574   0.23931   0.85749   0.00000  Uiso   1.00
C658   C     0.87599   0.14005   0.25593   0.00000  Uiso   1.00
C659   C     0.88660   0.08748   0.23801   0.00000  Uiso   1.00
C660   C     0.86102   0.04960   0.27874   0.00000  Uiso   1.00
C661   C     0.87643   0.00415   0.25320   0.00000  Uiso   1.00
C662   C     0.92148   0.16152   0.30022   0.00000  Uiso   1.00
C663   C     0.92523   0.18590   0.39325   0.00000  Uiso   1.00
C664   C     0.97000   0.20278   0.42008   0.00000  Uiso   1.00
C665   C     0.86980   0.16200   0.14885   0.00000  Uiso   1.00
C666   C     0.83010   0.18681   0.11462   0.00000  Uiso   1.00
C667   C     0.83136   0.20411   0.01402   0.00000  Uiso   1.00
H668   H     0.97963   0.12101   0.08833   0.00000  Uiso   1.00
H669   H     0.97224   0.02919   0.09891   0.00000  Uiso   1.00
H670   H     0.03643   0.16547   0.21340   0.00000  Uiso   1.00
H671   H     0.94131   0.16637   0.93481   0.00000  Uiso   1.00
H672   H     0.94660   0.93058   0.13889   0.00000  Uiso   1.00
H673   H     0.08195   0.21796   0.38028   0.00000  Uiso   1.00
H674   H     0.88138   0.21987   0.79282   0.00000  Uiso   1.00
H675   H     0.84518   0.14571   0.30574   0.00000  Uiso   1.00
H676   H     0.83041   0.05524   0.32825   0.00000  Uiso   1.00
H677   H     0.89460   0.19152   0.44274   0.00000  Uiso   1.00
H678   H     0.79949   0.19243   0.16415   0.00000  Uiso   1.00
H679   H     0.83149   0.95173   0.32504   0.00000  Uiso   1.00
H680   H     0.96684   0.23911   0.56642   0.00000  Uiso   1.00
H681   H     0.76627   0.24102   0.97896   0.00000  Uiso   1.00
O682   O     0.88176   0.88120   0.24288   0.00000  Uiso   1.00
O683   O     0.05933   0.25823   0.55956   0.00000  Uiso   1.00
O684   O     0.79619   0.26073   0.78882   0.00000  Uiso   1.00
N685   N     0.92153   0.94798   0.17960   0.00000  Uiso   1.00
N686   N     0.04808   0.21665   0.40529   0.00000  Uiso   1.00
N687   N     0.86057   0.21845   0.85607   0.00000  Uiso   1.00
N688   N     0.85959   0.95936   0.27976   0.00000  Uiso   1.00
N689   N     0.98614   0.22803   0.50545   0.00000  Uiso   1.00
N690   N     0.79863   0.22982   0.95623   0.00000  Uiso   1.00
C691   C     0.44883   0.62667   0.63814   0.00000  Uiso   1.00
C692   C     0.42616   0.58020   0.67403   0.00000  Uiso   1.00
C693   C     0.44161   0.53480   0.64842   0.00000  Uiso   1.00
C694   C     0.41607   0.49687   0.68911   0.00000  Uiso   1.00
C695   C     0.38691   0.42361   0.73515   0.00000  Uiso   1.00
C696   C     0.46104   0.65425   0.73624   0.00000  Uiso   1.00
C697   C     0.50582   0.67110   0.76293   0.00000  Uiso   1.00
C698   C     0.50963   0.69550   0.85599   0.00000  Uiso   1.00
C699   C     0.53462   0.73723   0.99858   0.00000  Uiso   1.00
C700   C     0.40936   0.65473   0.58487   0.00000  Uiso   1.00
C701   C     0.41069   0.67201   0.48430   0.00000  Uiso   1.00
C702   C     0.37100   0.69683   0.44992   0.00000  Uiso   1.00
C703   C     0.31574   0.73931   0.35749   0.00000  Uiso   1.00
C704   C     0.37599   0.64005   0.75593   0.00000  Uiso   1.00
C705   C     0.38660   0.58748   0.73801   0.00000  Uiso   1.00
C706   C     0.36102   0.54960   0.77874   0.00000  Uiso   1.00
C707   C     0.37643   0.50415   0.75320   0.00000  Uiso   1.00
C708   C     0.42148   0.66152   0.80022   0.00000  Uiso   1.00
C709   C     0.42523   0.68590   0.89325   0.00000  Uiso   1.00
C710   C     0.47000   0.70278   0.92008   0.00000  Uiso   1.00
C711   C     0.36980   0.66200   0.64885   0.00000  Uiso   1.00
C712   C     0.33010   0.68681   0.61462   0.00000  Uiso   1.00
C713   C     0.33136   0.70411   0.51402   0.00000  Uiso   1.00
H714   H     0.47963   0.62101   0.58833   0.00000  Uiso   1.00
H715   H     0.47224   0.52919   0.59891   0.00000  Uiso   1.00
H716   H     0.53643   0.66547   0.71340   0.00000  Uiso   1.00
H717   H     0.44131   0.66637   0.43481   0.00000  Uiso   1.00
H718   H     0.44660   0.43058   0.63889   0.00000  Uiso   1.00
H719   H     0.58195   0.71796   0.88028   0.00000  Uiso   1.00
H720   H     0.38138   0.71987   0.29282   0.00000  Uiso   1.00
H721   H     0.34518   0.64571   0.80574   0.00000  Uiso   1.00
H722   H     0.33041   0.55524   0.82825   0.00000  Uiso   1.00
H723   H     0.39460   0.69152   0.94274   0.00000  Uiso   1.00
H724   H     0.29949   0.69243   0.66415   0.00000  Uiso   1.00
H725   H     0.33149   0.45173   0.82504   0.00000  Uiso   1.00
H726   H     0.46684   0.73911   0.06642   0.00000  Uiso   1.00
H727   H     0.26627   0.74102   0.47896   0.00000  Uiso   1.00
O728   O     0.38176   0.38120   0.74288   0.00000  Uiso   1.00
O729   O     0.55933   0.75823   0.05956   0.00000  Uiso   1.00
O730   O     0.29619   0.76073   0.28882   0.00000  Uiso   1.00
N731   N     0.42153   0.44798   0.67960   0.00000  Uiso   1.00
N732   N     0.54808   0.71665   0.90529   0.00000  Uiso   1.00
N733   N     0.36057   0.71845   0.35607   0.00000  Uiso   1.00
N734   N     0.35959   0.45936   0.77976   0.00000  Uiso   1.00
N735   N     0.48614   0.72803   0.00545   0.00000  Uiso   1.00
N736   N     0.29863   0.72982   0.45623   0.00000  Uiso   1.00
