data_job_01987
_audit_creation_date              2018-12-19
_audit_creation_method            'Materials Studio'
_symmetry_space_group_name_H-M    'P1'
_symmetry_Int_Tables_number       1
_symmetry_cell_setting            triclinic
loop_
_symmetry_equiv_pos_as_xyz
  x,y,z
_cell_length_a                    36.8926
_cell_length_b                    36.8926
_cell_length_c                    7.2199
_cell_angle_alpha                 90.0000
_cell_angle_beta                  90.0000
_cell_angle_gamma                 90.0000
loop_
_atom_site_label
_atom_site_type_symbol
_atom_site_fract_x
_atom_site_fract_y
_atom_site_fract_z
_atom_site_U_iso_or_equiv
_atom_site_adp_type
_atom_site_occupancy
C1     C     0.87676   0.61306   0.69043   0.00000  Uiso   1.00
C2     C     0.89972   0.64367   0.77024   0.00000  Uiso   1.00
C3     C     0.92585   0.66326   0.67485   0.00000  Uiso   1.00
C4     C     0.94391   0.69018   0.77252   0.00000  Uiso   1.00
C5     C     0.98077   0.73664   0.86813   0.00000  Uiso   1.00
C6     C     0.88331   0.58031   0.81487   0.00000  Uiso   1.00
C7     C     0.89563   0.54662   0.75699   0.00000  Uiso   1.00
C8     C     0.89986   0.52020   0.89223   0.00000  Uiso   1.00
C9     C     0.91121   0.46827   0.05710   0.00000  Uiso   1.00
C10    C     0.83739   0.62409   0.72129   0.00000  Uiso   1.00
C11    C     0.81110   0.62720   0.58473   0.00000  Uiso   1.00
C12    C     0.77666   0.63763   0.64119   0.00000  Uiso   1.00
C13    C     0.71671   0.65367   0.66077   0.00000  Uiso   1.00
C14    C     0.86236   0.62604   0.03352   0.00000  Uiso   1.00
C15    C     0.89190   0.65072   0.95660   0.00000  Uiso   1.00
C16    C     0.90992   0.67762   0.05444   0.00000  Uiso   1.00
C17    C     0.93607   0.69725   0.95921   0.00000  Uiso   1.00
C18    C     0.87549   0.58736   0.00122   0.00000  Uiso   1.00
C19    C     0.87970   0.56098   0.13658   0.00000  Uiso   1.00
C20    C     0.89203   0.52726   0.07892   0.00000  Uiso   1.00
C21    C     0.82957   0.63114   0.90764   0.00000  Uiso   1.00
C22    C     0.79517   0.64156   0.96433   0.00000  Uiso   1.00
C23    C     0.76883   0.64469   0.82788   0.00000  Uiso   1.00
H24    H     0.88285   0.60756   0.54535   0.00000  Uiso   1.00
H25    H     0.93190   0.65779   0.53064   0.00000  Uiso   1.00
H26    H     0.90168   0.54117   0.61276   0.00000  Uiso   1.00
H27    H     0.81716   0.62174   0.44054   0.00000  Uiso   1.00
H28    H     0.98284   0.71658   0.59653   0.00000  Uiso   1.00
H29    H     0.91911   0.47067   0.76968   0.00000  Uiso   1.00
H30    H     0.74088   0.64056   0.40651   0.00000  Uiso   1.00
H31    H     0.85627   0.63153   0.17861   0.00000  Uiso   1.00
H32    H     0.90386   0.68307   0.19865   0.00000  Uiso   1.00
H33    H     0.87364   0.56645   0.28077   0.00000  Uiso   1.00
H34    H     0.78912   0.64702   0.10855   0.00000  Uiso   1.00
H35    H     0.96009   0.73710   0.13872   0.00000  Uiso   1.00
H36    H     0.89635   0.49118   0.31187   0.00000  Uiso   1.00
H37    H     0.71812   0.66108   0.94870   0.00000  Uiso   1.00
O38    O     0.00326   0.76031   0.86940   0.00000  Uiso   1.00
O39    O     0.91963   0.43768   0.09656   0.00000  Uiso   1.00
O40    O     0.68581   0.66058   0.62008   0.00000  Uiso   1.00
N41    N     0.97095   0.71434   0.72137   0.00000  Uiso   1.00
N42    N     0.91137   0.48443   0.88327   0.00000  Uiso   1.00
N43    N     0.74474   0.64326   0.54373   0.00000  Uiso   1.00
N44    N     0.95871   0.72538   0.01312   0.00000  Uiso   1.00
N45    N     0.89912   0.49547   0.17501   0.00000  Uiso   1.00
N46    N     0.73249   0.65430   0.83548   0.00000  Uiso   1.00
C47    C     0.37676   0.11306   0.19043   0.00000  Uiso   1.00
C48    C     0.39972   0.14367   0.27024   0.00000  Uiso   1.00
C49    C     0.42585   0.16326   0.17485   0.00000  Uiso   1.00
C50    C     0.44391   0.19018   0.27252   0.00000  Uiso   1.00
C51    C     0.48077   0.23664   0.36813   0.00000  Uiso   1.00
C52    C     0.38331   0.08031   0.31487   0.00000  Uiso   1.00
C53    C     0.39563   0.04662   0.25699   0.00000  Uiso   1.00
C54    C     0.39986   0.02020   0.39223   0.00000  Uiso   1.00
C55    C     0.41121   0.96827   0.55710   0.00000  Uiso   1.00
C56    C     0.33739   0.12409   0.22129   0.00000  Uiso   1.00
C57    C     0.31110   0.12720   0.08473   0.00000  Uiso   1.00
C58    C     0.27666   0.13763   0.14119   0.00000  Uiso   1.00
C59    C     0.21671   0.15367   0.16077   0.00000  Uiso   1.00
C60    C     0.36236   0.12604   0.53352   0.00000  Uiso   1.00
C61    C     0.39190   0.15072   0.45660   0.00000  Uiso   1.00
C62    C     0.40992   0.17762   0.55444   0.00000  Uiso   1.00
C63    C     0.43607   0.19725   0.45921   0.00000  Uiso   1.00
C64    C     0.37549   0.08736   0.50122   0.00000  Uiso   1.00
C65    C     0.37970   0.06098   0.63658   0.00000  Uiso   1.00
C66    C     0.39203   0.02726   0.57892   0.00000  Uiso   1.00
C67    C     0.32957   0.13114   0.40764   0.00000  Uiso   1.00
C68    C     0.29517   0.14156   0.46433   0.00000  Uiso   1.00
C69    C     0.26883   0.14469   0.32788   0.00000  Uiso   1.00
H70    H     0.38285   0.10756   0.04535   0.00000  Uiso   1.00
H71    H     0.43190   0.15779   0.03064   0.00000  Uiso   1.00
H72    H     0.40168   0.04117   0.11276   0.00000  Uiso   1.00
H73    H     0.31716   0.12174   0.94054   0.00000  Uiso   1.00
H74    H     0.48284   0.21658   0.09653   0.00000  Uiso   1.00
H75    H     0.41911   0.97067   0.26968   0.00000  Uiso   1.00
H76    H     0.24088   0.14056   0.90651   0.00000  Uiso   1.00
H77    H     0.35627   0.13153   0.67861   0.00000  Uiso   1.00
H78    H     0.40386   0.18307   0.69865   0.00000  Uiso   1.00
H79    H     0.37364   0.06645   0.78077   0.00000  Uiso   1.00
H80    H     0.28912   0.14702   0.60855   0.00000  Uiso   1.00
H81    H     0.46009   0.23710   0.63872   0.00000  Uiso   1.00
H82    H     0.39635   0.99118   0.81187   0.00000  Uiso   1.00
H83    H     0.21812   0.16108   0.44870   0.00000  Uiso   1.00
O84    O     0.50326   0.26031   0.36940   0.00000  Uiso   1.00
O85    O     0.41963   0.93768   0.59656   0.00000  Uiso   1.00
O86    O     0.18581   0.16058   0.12008   0.00000  Uiso   1.00
N87    N     0.47095   0.21434   0.22137   0.00000  Uiso   1.00
N88    N     0.41137   0.98443   0.38327   0.00000  Uiso   1.00
N89    N     0.24474   0.14326   0.04373   0.00000  Uiso   1.00
N90    N     0.45871   0.22538   0.51312   0.00000  Uiso   1.00
N91    N     0.39912   0.99547   0.67501   0.00000  Uiso   1.00
N92    N     0.23249   0.15430   0.33548   0.00000  Uiso   1.00
C93    C     0.62324   0.88694   0.19043   0.00000  Uiso   1.00
C94    C     0.60028   0.85633   0.27024   0.00000  Uiso   1.00
C95    C     0.57415   0.83674   0.17485   0.00000  Uiso   1.00
C96    C     0.55609   0.80982   0.27252   0.00000  Uiso   1.00
C97    C     0.51923   0.76336   0.36813   0.00000  Uiso   1.00
C98    C     0.61669   0.91969   0.31487   0.00000  Uiso   1.00
C99    C     0.60437   0.95338   0.25699   0.00000  Uiso   1.00
C100   C     0.60014   0.97980   0.39223   0.00000  Uiso   1.00
C101   C     0.58879   0.03173   0.55710   0.00000  Uiso   1.00
C102   C     0.66261   0.87591   0.22129   0.00000  Uiso   1.00
C103   C     0.68890   0.87280   0.08473   0.00000  Uiso   1.00
C104   C     0.72334   0.86237   0.14119   0.00000  Uiso   1.00
C105   C     0.78329   0.84633   0.16077   0.00000  Uiso   1.00
C106   C     0.63764   0.87396   0.53352   0.00000  Uiso   1.00
C107   C     0.60810   0.84928   0.45660   0.00000  Uiso   1.00
C108   C     0.59008   0.82238   0.55444   0.00000  Uiso   1.00
C109   C     0.56393   0.80275   0.45921   0.00000  Uiso   1.00
C110   C     0.62451   0.91264   0.50122   0.00000  Uiso   1.00
C111   C     0.62030   0.93902   0.63658   0.00000  Uiso   1.00
C112   C     0.60797   0.97274   0.57892   0.00000  Uiso   1.00
C113   C     0.67043   0.86886   0.40764   0.00000  Uiso   1.00
C114   C     0.70483   0.85844   0.46433   0.00000  Uiso   1.00
C115   C     0.73117   0.85531   0.32788   0.00000  Uiso   1.00
H116   H     0.61715   0.89244   0.04535   0.00000  Uiso   1.00
H117   H     0.56810   0.84221   0.03064   0.00000  Uiso   1.00
H118   H     0.59832   0.95883   0.11276   0.00000  Uiso   1.00
H119   H     0.68284   0.87826   0.94054   0.00000  Uiso   1.00
H120   H     0.51716   0.78342   0.09653   0.00000  Uiso   1.00
H121   H     0.58089   0.02933   0.26968   0.00000  Uiso   1.00
H122   H     0.75912   0.85944   0.90651   0.00000  Uiso   1.00
H123   H     0.64373   0.86847   0.67861   0.00000  Uiso   1.00
H124   H     0.59614   0.81693   0.69865   0.00000  Uiso   1.00
H125   H     0.62636   0.93355   0.78077   0.00000  Uiso   1.00
H126   H     0.71088   0.85298   0.60855   0.00000  Uiso   1.00
H127   H     0.53991   0.76290   0.63872   0.00000  Uiso   1.00
H128   H     0.60365   0.00882   0.81187   0.00000  Uiso   1.00
H129   H     0.78188   0.83892   0.44870   0.00000  Uiso   1.00
O130   O     0.49674   0.73969   0.36940   0.00000  Uiso   1.00
O131   O     0.58037   0.06232   0.59656   0.00000  Uiso   1.00
O132   O     0.81419   0.83942   0.12008   0.00000  Uiso   1.00
N133   N     0.52905   0.78566   0.22137   0.00000  Uiso   1.00
N134   N     0.58863   0.01557   0.38327   0.00000  Uiso   1.00
N135   N     0.75526   0.85674   0.04373   0.00000  Uiso   1.00
N136   N     0.54129   0.77462   0.51312   0.00000  Uiso   1.00
N137   N     0.60088   0.00453   0.67501   0.00000  Uiso   1.00
N138   N     0.76751   0.84570   0.33548   0.00000  Uiso   1.00
C139   C     0.12324   0.38694   0.69043   0.00000  Uiso   1.00
C140   C     0.10028   0.35633   0.77024   0.00000  Uiso   1.00
C141   C     0.07415   0.33674   0.67485   0.00000  Uiso   1.00
C142   C     0.05609   0.30982   0.77252   0.00000  Uiso   1.00
C143   C     0.01923   0.26336   0.86813   0.00000  Uiso   1.00
C144   C     0.11669   0.41969   0.81487   0.00000  Uiso   1.00
C145   C     0.10437   0.45338   0.75699   0.00000  Uiso   1.00
C146   C     0.10014   0.47980   0.89223   0.00000  Uiso   1.00
C147   C     0.08879   0.53173   0.05710   0.00000  Uiso   1.00
C148   C     0.16261   0.37591   0.72129   0.00000  Uiso   1.00
C149   C     0.18890   0.37280   0.58473   0.00000  Uiso   1.00
C150   C     0.22334   0.36237   0.64119   0.00000  Uiso   1.00
C151   C     0.28329   0.34633   0.66077   0.00000  Uiso   1.00
C152   C     0.13764   0.37396   0.03352   0.00000  Uiso   1.00
C153   C     0.10810   0.34928   0.95660   0.00000  Uiso   1.00
C154   C     0.09008   0.32238   0.05444   0.00000  Uiso   1.00
C155   C     0.06393   0.30275   0.95921   0.00000  Uiso   1.00
C156   C     0.12451   0.41264   0.00122   0.00000  Uiso   1.00
C157   C     0.12030   0.43902   0.13658   0.00000  Uiso   1.00
C158   C     0.10797   0.47274   0.07892   0.00000  Uiso   1.00
C159   C     0.17043   0.36886   0.90764   0.00000  Uiso   1.00
C160   C     0.20483   0.35844   0.96433   0.00000  Uiso   1.00
C161   C     0.23117   0.35531   0.82788   0.00000  Uiso   1.00
H162   H     0.11715   0.39244   0.54535   0.00000  Uiso   1.00
H163   H     0.06810   0.34221   0.53064   0.00000  Uiso   1.00
H164   H     0.09832   0.45883   0.61276   0.00000  Uiso   1.00
H165   H     0.18284   0.37826   0.44054   0.00000  Uiso   1.00
H166   H     0.01716   0.28342   0.59653   0.00000  Uiso   1.00
H167   H     0.08089   0.52933   0.76968   0.00000  Uiso   1.00
H168   H     0.25912   0.35944   0.40651   0.00000  Uiso   1.00
H169   H     0.14373   0.36847   0.17861   0.00000  Uiso   1.00
H170   H     0.09614   0.31693   0.19865   0.00000  Uiso   1.00
H171   H     0.12636   0.43355   0.28077   0.00000  Uiso   1.00
H172   H     0.21088   0.35298   0.10855   0.00000  Uiso   1.00
H173   H     0.03991   0.26290   0.13872   0.00000  Uiso   1.00
H174   H     0.10365   0.50882   0.31187   0.00000  Uiso   1.00
H175   H     0.28188   0.33892   0.94870   0.00000  Uiso   1.00
O176   O     0.99674   0.23969   0.86940   0.00000  Uiso   1.00
O177   O     0.08037   0.56232   0.09656   0.00000  Uiso   1.00
O178   O     0.31419   0.33942   0.62008   0.00000  Uiso   1.00
N179   N     0.02905   0.28566   0.72137   0.00000  Uiso   1.00
N180   N     0.08863   0.51557   0.88327   0.00000  Uiso   1.00
N181   N     0.25526   0.35674   0.54373   0.00000  Uiso   1.00
N182   N     0.04129   0.27462   0.01312   0.00000  Uiso   1.00
N183   N     0.10088   0.50453   0.17501   0.00000  Uiso   1.00
N184   N     0.26751   0.34570   0.83548   0.00000  Uiso   1.00
C185   C     0.38694   0.37676   0.94043   0.00000  Uiso   1.00
C186   C     0.35633   0.39972   0.02024   0.00000  Uiso   1.00
C187   C     0.33674   0.42585   0.92485   0.00000  Uiso   1.00
C188   C     0.30982   0.44391   0.02252   0.00000  Uiso   1.00
C189   C     0.26336   0.48077   0.11813   0.00000  Uiso   1.00
C190   C     0.41969   0.38331   0.06487   0.00000  Uiso   1.00
C191   C     0.45338   0.39563   0.00699   0.00000  Uiso   1.00
C192   C     0.47980   0.39986   0.14223   0.00000  Uiso   1.00
C193   C     0.53173   0.41121   0.30710   0.00000  Uiso   1.00
C194   C     0.37591   0.33739   0.97129   0.00000  Uiso   1.00
C195   C     0.37280   0.31110   0.83473   0.00000  Uiso   1.00
C196   C     0.36237   0.27666   0.89119   0.00000  Uiso   1.00
C197   C     0.34633   0.21671   0.91077   0.00000  Uiso   1.00
C198   C     0.37396   0.36236   0.28352   0.00000  Uiso   1.00
C199   C     0.34928   0.39190   0.20660   0.00000  Uiso   1.00
C200   C     0.32238   0.40992   0.30444   0.00000  Uiso   1.00
C201   C     0.30275   0.43607   0.20921   0.00000  Uiso   1.00
C202   C     0.41264   0.37549   0.25122   0.00000  Uiso   1.00
C203   C     0.43902   0.37970   0.38658   0.00000  Uiso   1.00
C204   C     0.47274   0.39203   0.32892   0.00000  Uiso   1.00
C205   C     0.36886   0.32957   0.15764   0.00000  Uiso   1.00
C206   C     0.35844   0.29517   0.21433   0.00000  Uiso   1.00
C207   C     0.35531   0.26883   0.07788   0.00000  Uiso   1.00
H208   H     0.39244   0.38285   0.79535   0.00000  Uiso   1.00
H209   H     0.34221   0.43190   0.78064   0.00000  Uiso   1.00
H210   H     0.45883   0.40168   0.86276   0.00000  Uiso   1.00
H211   H     0.37826   0.31716   0.69054   0.00000  Uiso   1.00
H212   H     0.28342   0.48284   0.84653   0.00000  Uiso   1.00
H213   H     0.52933   0.41911   0.01968   0.00000  Uiso   1.00
H214   H     0.35944   0.24088   0.65651   0.00000  Uiso   1.00
H215   H     0.36847   0.35627   0.42861   0.00000  Uiso   1.00
H216   H     0.31693   0.40386   0.44865   0.00000  Uiso   1.00
H217   H     0.43355   0.37364   0.53077   0.00000  Uiso   1.00
H218   H     0.35298   0.28912   0.35855   0.00000  Uiso   1.00
H219   H     0.26290   0.46009   0.38872   0.00000  Uiso   1.00
H220   H     0.50882   0.39635   0.56187   0.00000  Uiso   1.00
H221   H     0.33892   0.21812   0.19870   0.00000  Uiso   1.00
O222   O     0.23969   0.50326   0.11940   0.00000  Uiso   1.00
O223   O     0.56232   0.41963   0.34656   0.00000  Uiso   1.00
O224   O     0.33942   0.18581   0.87008   0.00000  Uiso   1.00
N225   N     0.28566   0.47095   0.97137   0.00000  Uiso   1.00
N226   N     0.51557   0.41137   0.13327   0.00000  Uiso   1.00
N227   N     0.35674   0.24474   0.79373   0.00000  Uiso   1.00
N228   N     0.27462   0.45871   0.26312   0.00000  Uiso   1.00
N229   N     0.50453   0.39912   0.42501   0.00000  Uiso   1.00
N230   N     0.34570   0.23249   0.08548   0.00000  Uiso   1.00
C231   C     0.88694   0.87676   0.44043   0.00000  Uiso   1.00
C232   C     0.85633   0.89972   0.52024   0.00000  Uiso   1.00
C233   C     0.83674   0.92585   0.42485   0.00000  Uiso   1.00
C234   C     0.80982   0.94391   0.52252   0.00000  Uiso   1.00
C235   C     0.76336   0.98077   0.61813   0.00000  Uiso   1.00
C236   C     0.91969   0.88331   0.56487   0.00000  Uiso   1.00
C237   C     0.95338   0.89563   0.50699   0.00000  Uiso   1.00
C238   C     0.97980   0.89986   0.64223   0.00000  Uiso   1.00
C239   C     0.03173   0.91121   0.80710   0.00000  Uiso   1.00
C240   C     0.87591   0.83739   0.47129   0.00000  Uiso   1.00
C241   C     0.87280   0.81110   0.33473   0.00000  Uiso   1.00
C242   C     0.86237   0.77666   0.39119   0.00000  Uiso   1.00
C243   C     0.84633   0.71671   0.41077   0.00000  Uiso   1.00
C244   C     0.87396   0.86236   0.78352   0.00000  Uiso   1.00
C245   C     0.84928   0.89190   0.70660   0.00000  Uiso   1.00
C246   C     0.82238   0.90992   0.80444   0.00000  Uiso   1.00
C247   C     0.80275   0.93607   0.70921   0.00000  Uiso   1.00
C248   C     0.91264   0.87549   0.75122   0.00000  Uiso   1.00
C249   C     0.93902   0.87970   0.88658   0.00000  Uiso   1.00
C250   C     0.97274   0.89203   0.82892   0.00000  Uiso   1.00
C251   C     0.86886   0.82957   0.65764   0.00000  Uiso   1.00
C252   C     0.85844   0.79517   0.71433   0.00000  Uiso   1.00
C253   C     0.85531   0.76883   0.57788   0.00000  Uiso   1.00
H254   H     0.89244   0.88285   0.29535   0.00000  Uiso   1.00
H255   H     0.84221   0.93190   0.28064   0.00000  Uiso   1.00
H256   H     0.95883   0.90168   0.36276   0.00000  Uiso   1.00
H257   H     0.87826   0.81716   0.19054   0.00000  Uiso   1.00
H258   H     0.78342   0.98284   0.34653   0.00000  Uiso   1.00
H259   H     0.02933   0.91911   0.51968   0.00000  Uiso   1.00
H260   H     0.85944   0.74088   0.15651   0.00000  Uiso   1.00
H261   H     0.86847   0.85627   0.92861   0.00000  Uiso   1.00
H262   H     0.81693   0.90386   0.94865   0.00000  Uiso   1.00
H263   H     0.93355   0.87364   0.03077   0.00000  Uiso   1.00
H264   H     0.85298   0.78912   0.85855   0.00000  Uiso   1.00
H265   H     0.76290   0.96009   0.88872   0.00000  Uiso   1.00
H266   H     0.00882   0.89635   0.06187   0.00000  Uiso   1.00
H267   H     0.83892   0.71812   0.69870   0.00000  Uiso   1.00
O268   O     0.73969   0.00326   0.61940   0.00000  Uiso   1.00
O269   O     0.06232   0.91963   0.84656   0.00000  Uiso   1.00
O270   O     0.83942   0.68581   0.37008   0.00000  Uiso   1.00
N271   N     0.78566   0.97095   0.47137   0.00000  Uiso   1.00
N272   N     0.01557   0.91137   0.63327   0.00000  Uiso   1.00
N273   N     0.85674   0.74474   0.29373   0.00000  Uiso   1.00
N274   N     0.77462   0.95871   0.76312   0.00000  Uiso   1.00
N275   N     0.00453   0.89912   0.92501   0.00000  Uiso   1.00
N276   N     0.84570   0.73249   0.58548   0.00000  Uiso   1.00
C277   C     0.11306   0.12324   0.44043   0.00000  Uiso   1.00
C278   C     0.14367   0.10028   0.52024   0.00000  Uiso   1.00
C279   C     0.16326   0.07415   0.42485   0.00000  Uiso   1.00
C280   C     0.19018   0.05609   0.52252   0.00000  Uiso   1.00
C281   C     0.23664   0.01923   0.61813   0.00000  Uiso   1.00
C282   C     0.08031   0.11669   0.56487   0.00000  Uiso   1.00
C283   C     0.04662   0.10437   0.50699   0.00000  Uiso   1.00
C284   C     0.02020   0.10014   0.64223   0.00000  Uiso   1.00
C285   C     0.96827   0.08879   0.80710   0.00000  Uiso   1.00
C286   C     0.12409   0.16261   0.47129   0.00000  Uiso   1.00
C287   C     0.12720   0.18890   0.33473   0.00000  Uiso   1.00
C288   C     0.13763   0.22334   0.39119   0.00000  Uiso   1.00
C289   C     0.15367   0.28329   0.41077   0.00000  Uiso   1.00
C290   C     0.12604   0.13764   0.78352   0.00000  Uiso   1.00
C291   C     0.15072   0.10810   0.70660   0.00000  Uiso   1.00
C292   C     0.17762   0.09008   0.80444   0.00000  Uiso   1.00
C293   C     0.19725   0.06393   0.70921   0.00000  Uiso   1.00
C294   C     0.08736   0.12451   0.75122   0.00000  Uiso   1.00
C295   C     0.06098   0.12030   0.88658   0.00000  Uiso   1.00
C296   C     0.02726   0.10797   0.82892   0.00000  Uiso   1.00
C297   C     0.13114   0.17043   0.65764   0.00000  Uiso   1.00
C298   C     0.14156   0.20483   0.71433   0.00000  Uiso   1.00
C299   C     0.14469   0.23117   0.57788   0.00000  Uiso   1.00
H300   H     0.10756   0.11715   0.29535   0.00000  Uiso   1.00
H301   H     0.15779   0.06810   0.28064   0.00000  Uiso   1.00
H302   H     0.04117   0.09832   0.36276   0.00000  Uiso   1.00
H303   H     0.12174   0.18284   0.19054   0.00000  Uiso   1.00
H304   H     0.21658   0.01716   0.34653   0.00000  Uiso   1.00
H305   H     0.97067   0.08089   0.51968   0.00000  Uiso   1.00
H306   H     0.14056   0.25912   0.15651   0.00000  Uiso   1.00
H307   H     0.13153   0.14373   0.92861   0.00000  Uiso   1.00
H308   H     0.18307   0.09614   0.94865   0.00000  Uiso   1.00
H309   H     0.06645   0.12636   0.03077   0.00000  Uiso   1.00
H310   H     0.14702   0.21088   0.85855   0.00000  Uiso   1.00
H311   H     0.23710   0.03991   0.88872   0.00000  Uiso   1.00
H312   H     0.99118   0.10365   0.06187   0.00000  Uiso   1.00
H313   H     0.16108   0.28188   0.69870   0.00000  Uiso   1.00
O314   O     0.26031   0.99674   0.61940   0.00000  Uiso   1.00
O315   O     0.93768   0.08037   0.84656   0.00000  Uiso   1.00
O316   O     0.16058   0.31419   0.37008   0.00000  Uiso   1.00
N317   N     0.21434   0.02905   0.47137   0.00000  Uiso   1.00
N318   N     0.98443   0.08863   0.63327   0.00000  Uiso   1.00
N319   N     0.14326   0.25526   0.29373   0.00000  Uiso   1.00
N320   N     0.22538   0.04129   0.76312   0.00000  Uiso   1.00
N321   N     0.99547   0.10088   0.92501   0.00000  Uiso   1.00
N322   N     0.15430   0.26751   0.58548   0.00000  Uiso   1.00
C323   C     0.61306   0.62324   0.94043   0.00000  Uiso   1.00
C324   C     0.64367   0.60028   0.02024   0.00000  Uiso   1.00
C325   C     0.66326   0.57415   0.92485   0.00000  Uiso   1.00
C326   C     0.69018   0.55609   0.02252   0.00000  Uiso   1.00
C327   C     0.73664   0.51923   0.11813   0.00000  Uiso   1.00
C328   C     0.58031   0.61669   0.06487   0.00000  Uiso   1.00
C329   C     0.54662   0.60437   0.00699   0.00000  Uiso   1.00
C330   C     0.52020   0.60014   0.14223   0.00000  Uiso   1.00
C331   C     0.46827   0.58879   0.30710   0.00000  Uiso   1.00
C332   C     0.62409   0.66261   0.97129   0.00000  Uiso   1.00
C333   C     0.62720   0.68890   0.83473   0.00000  Uiso   1.00
C334   C     0.63763   0.72334   0.89119   0.00000  Uiso   1.00
C335   C     0.65367   0.78329   0.91077   0.00000  Uiso   1.00
C336   C     0.62604   0.63764   0.28352   0.00000  Uiso   1.00
C337   C     0.65072   0.60810   0.20660   0.00000  Uiso   1.00
C338   C     0.67762   0.59008   0.30444   0.00000  Uiso   1.00
C339   C     0.69725   0.56393   0.20921   0.00000  Uiso   1.00
C340   C     0.58736   0.62451   0.25122   0.00000  Uiso   1.00
C341   C     0.56098   0.62030   0.38658   0.00000  Uiso   1.00
C342   C     0.52726   0.60797   0.32892   0.00000  Uiso   1.00
C343   C     0.63114   0.67043   0.15764   0.00000  Uiso   1.00
C344   C     0.64156   0.70483   0.21433   0.00000  Uiso   1.00
C345   C     0.64469   0.73117   0.07788   0.00000  Uiso   1.00
H346   H     0.60756   0.61715   0.79535   0.00000  Uiso   1.00
H347   H     0.65779   0.56810   0.78064   0.00000  Uiso   1.00
H348   H     0.54117   0.59832   0.86276   0.00000  Uiso   1.00
H349   H     0.62174   0.68284   0.69054   0.00000  Uiso   1.00
H350   H     0.71658   0.51716   0.84653   0.00000  Uiso   1.00
H351   H     0.47067   0.58089   0.01968   0.00000  Uiso   1.00
H352   H     0.64056   0.75912   0.65651   0.00000  Uiso   1.00
H353   H     0.63153   0.64373   0.42861   0.00000  Uiso   1.00
H354   H     0.68307   0.59614   0.44865   0.00000  Uiso   1.00
H355   H     0.56645   0.62636   0.53077   0.00000  Uiso   1.00
H356   H     0.64702   0.71088   0.35855   0.00000  Uiso   1.00
H357   H     0.73710   0.53991   0.38872   0.00000  Uiso   1.00
H358   H     0.49118   0.60365   0.56187   0.00000  Uiso   1.00
H359   H     0.66108   0.78188   0.19870   0.00000  Uiso   1.00
O360   O     0.76031   0.49674   0.11940   0.00000  Uiso   1.00
O361   O     0.43768   0.58037   0.34656   0.00000  Uiso   1.00
O362   O     0.66058   0.81419   0.87008   0.00000  Uiso   1.00
N363   N     0.71434   0.52905   0.97137   0.00000  Uiso   1.00
N364   N     0.48443   0.58863   0.13327   0.00000  Uiso   1.00
N365   N     0.64326   0.75526   0.79373   0.00000  Uiso   1.00
N366   N     0.72538   0.54129   0.26312   0.00000  Uiso   1.00
N367   N     0.49547   0.60088   0.42501   0.00000  Uiso   1.00
N368   N     0.65430   0.76751   0.08548   0.00000  Uiso   1.00
C369   C     0.12324   0.88694   0.55957   0.00000  Uiso   1.00
C370   C     0.10028   0.85633   0.47976   0.00000  Uiso   1.00
C371   C     0.07415   0.83674   0.57515   0.00000  Uiso   1.00
C372   C     0.05609   0.80982   0.47748   0.00000  Uiso   1.00
C373   C     0.01923   0.76336   0.38187   0.00000  Uiso   1.00
C374   C     0.11669   0.91969   0.43513   0.00000  Uiso   1.00
C375   C     0.10437   0.95338   0.49301   0.00000  Uiso   1.00
C376   C     0.10014   0.97980   0.35777   0.00000  Uiso   1.00
C377   C     0.08879   0.03173   0.19290   0.00000  Uiso   1.00
C378   C     0.16261   0.87591   0.52871   0.00000  Uiso   1.00
C379   C     0.18890   0.87280   0.66527   0.00000  Uiso   1.00
C380   C     0.22334   0.86237   0.60881   0.00000  Uiso   1.00
C381   C     0.28329   0.84633   0.58923   0.00000  Uiso   1.00
C382   C     0.13764   0.87396   0.21648   0.00000  Uiso   1.00
C383   C     0.10810   0.84928   0.29340   0.00000  Uiso   1.00
C384   C     0.09008   0.82238   0.19556   0.00000  Uiso   1.00
C385   C     0.06393   0.80275   0.29079   0.00000  Uiso   1.00
C386   C     0.12451   0.91264   0.24878   0.00000  Uiso   1.00
C387   C     0.12030   0.93902   0.11342   0.00000  Uiso   1.00
C388   C     0.10797   0.97274   0.17108   0.00000  Uiso   1.00
C389   C     0.17043   0.86886   0.34236   0.00000  Uiso   1.00
C390   C     0.20483   0.85844   0.28567   0.00000  Uiso   1.00
C391   C     0.23117   0.85531   0.42212   0.00000  Uiso   1.00
H392   H     0.11715   0.89244   0.70465   0.00000  Uiso   1.00
H393   H     0.06810   0.84221   0.71936   0.00000  Uiso   1.00
H394   H     0.09832   0.95883   0.63724   0.00000  Uiso   1.00
H395   H     0.18284   0.87826   0.80946   0.00000  Uiso   1.00
H396   H     0.01716   0.78342   0.65347   0.00000  Uiso   1.00
H397   H     0.08089   0.02933   0.48032   0.00000  Uiso   1.00
H398   H     0.25912   0.85944   0.84349   0.00000  Uiso   1.00
H399   H     0.14373   0.86847   0.07139   0.00000  Uiso   1.00
H400   H     0.09614   0.81693   0.05135   0.00000  Uiso   1.00
H401   H     0.12636   0.93355   0.96923   0.00000  Uiso   1.00
H402   H     0.21088   0.85298   0.14145   0.00000  Uiso   1.00
H403   H     0.03991   0.76290   0.11128   0.00000  Uiso   1.00
H404   H     0.10365   0.00882   0.93813   0.00000  Uiso   1.00
H405   H     0.28188   0.83892   0.30130   0.00000  Uiso   1.00
O406   O     0.99674   0.73969   0.38060   0.00000  Uiso   1.00
O407   O     0.08037   0.06232   0.15344   0.00000  Uiso   1.00
O408   O     0.31419   0.83942   0.62992   0.00000  Uiso   1.00
N409   N     0.02905   0.78566   0.52863   0.00000  Uiso   1.00
N410   N     0.08863   0.01557   0.36673   0.00000  Uiso   1.00
N411   N     0.25526   0.85674   0.70627   0.00000  Uiso   1.00
N412   N     0.04129   0.77462   0.23688   0.00000  Uiso   1.00
N413   N     0.10088   0.00453   0.07499   0.00000  Uiso   1.00
N414   N     0.26751   0.84570   0.41452   0.00000  Uiso   1.00
C415   C     0.62324   0.38694   0.05957   0.00000  Uiso   1.00
C416   C     0.60028   0.35633   0.97976   0.00000  Uiso   1.00
C417   C     0.57415   0.33674   0.07515   0.00000  Uiso   1.00
C418   C     0.55609   0.30982   0.97748   0.00000  Uiso   1.00
C419   C     0.51923   0.26336   0.88187   0.00000  Uiso   1.00
C420   C     0.61669   0.41969   0.93513   0.00000  Uiso   1.00
C421   C     0.60437   0.45338   0.99301   0.00000  Uiso   1.00
C422   C     0.60014   0.47980   0.85777   0.00000  Uiso   1.00
C423   C     0.58879   0.53173   0.69290   0.00000  Uiso   1.00
C424   C     0.66261   0.37591   0.02871   0.00000  Uiso   1.00
C425   C     0.68890   0.37280   0.16527   0.00000  Uiso   1.00
C426   C     0.72334   0.36237   0.10881   0.00000  Uiso   1.00
C427   C     0.78329   0.34633   0.08923   0.00000  Uiso   1.00
C428   C     0.63764   0.37396   0.71648   0.00000  Uiso   1.00
C429   C     0.60810   0.34928   0.79340   0.00000  Uiso   1.00
C430   C     0.59008   0.32238   0.69556   0.00000  Uiso   1.00
C431   C     0.56393   0.30275   0.79079   0.00000  Uiso   1.00
C432   C     0.62451   0.41264   0.74878   0.00000  Uiso   1.00
C433   C     0.62030   0.43902   0.61342   0.00000  Uiso   1.00
C434   C     0.60797   0.47274   0.67108   0.00000  Uiso   1.00
C435   C     0.67043   0.36886   0.84236   0.00000  Uiso   1.00
C436   C     0.70483   0.35844   0.78567   0.00000  Uiso   1.00
C437   C     0.73117   0.35531   0.92212   0.00000  Uiso   1.00
H438   H     0.61715   0.39244   0.20465   0.00000  Uiso   1.00
H439   H     0.56810   0.34221   0.21936   0.00000  Uiso   1.00
H440   H     0.59832   0.45883   0.13724   0.00000  Uiso   1.00
H441   H     0.68284   0.37826   0.30946   0.00000  Uiso   1.00
H442   H     0.51716   0.28342   0.15347   0.00000  Uiso   1.00
H443   H     0.58089   0.52933   0.98032   0.00000  Uiso   1.00
H444   H     0.75912   0.35944   0.34349   0.00000  Uiso   1.00
H445   H     0.64373   0.36847   0.57139   0.00000  Uiso   1.00
H446   H     0.59614   0.31693   0.55135   0.00000  Uiso   1.00
H447   H     0.62636   0.43355   0.46923   0.00000  Uiso   1.00
H448   H     0.71088   0.35298   0.64145   0.00000  Uiso   1.00
H449   H     0.53991   0.26290   0.61128   0.00000  Uiso   1.00
H450   H     0.60365   0.50882   0.43813   0.00000  Uiso   1.00
H451   H     0.78188   0.33892   0.80130   0.00000  Uiso   1.00
O452   O     0.49674   0.23969   0.88060   0.00000  Uiso   1.00
O453   O     0.58037   0.56232   0.65344   0.00000  Uiso   1.00
O454   O     0.81419   0.33942   0.12992   0.00000  Uiso   1.00
N455   N     0.52905   0.28566   0.02863   0.00000  Uiso   1.00
N456   N     0.58863   0.51557   0.86673   0.00000  Uiso   1.00
N457   N     0.75526   0.35674   0.20627   0.00000  Uiso   1.00
N458   N     0.54129   0.27462   0.73688   0.00000  Uiso   1.00
N459   N     0.60088   0.50453   0.57499   0.00000  Uiso   1.00
N460   N     0.76751   0.34570   0.91452   0.00000  Uiso   1.00
C461   C     0.37676   0.61306   0.05957   0.00000  Uiso   1.00
C462   C     0.39972   0.64367   0.97976   0.00000  Uiso   1.00
C463   C     0.42585   0.66326   0.07515   0.00000  Uiso   1.00
C464   C     0.44391   0.69018   0.97748   0.00000  Uiso   1.00
C465   C     0.48077   0.73664   0.88187   0.00000  Uiso   1.00
C466   C     0.38331   0.58031   0.93513   0.00000  Uiso   1.00
C467   C     0.39563   0.54662   0.99301   0.00000  Uiso   1.00
C468   C     0.39986   0.52020   0.85777   0.00000  Uiso   1.00
C469   C     0.41121   0.46827   0.69290   0.00000  Uiso   1.00
C470   C     0.33739   0.62409   0.02871   0.00000  Uiso   1.00
C471   C     0.31110   0.62720   0.16527   0.00000  Uiso   1.00
C472   C     0.27666   0.63763   0.10881   0.00000  Uiso   1.00
C473   C     0.21671   0.65367   0.08923   0.00000  Uiso   1.00
C474   C     0.36236   0.62604   0.71648   0.00000  Uiso   1.00
C475   C     0.39190   0.65072   0.79340   0.00000  Uiso   1.00
C476   C     0.40992   0.67762   0.69556   0.00000  Uiso   1.00
C477   C     0.43607   0.69725   0.79079   0.00000  Uiso   1.00
C478   C     0.37549   0.58736   0.74878   0.00000  Uiso   1.00
C479   C     0.37970   0.56098   0.61342   0.00000  Uiso   1.00
C480   C     0.39203   0.52726   0.67108   0.00000  Uiso   1.00
C481   C     0.32957   0.63114   0.84236   0.00000  Uiso   1.00
C482   C     0.29517   0.64156   0.78567   0.00000  Uiso   1.00
C483   C     0.26883   0.64469   0.92212   0.00000  Uiso   1.00
H484   H     0.38285   0.60756   0.20465   0.00000  Uiso   1.00
H485   H     0.43190   0.65779   0.21936   0.00000  Uiso   1.00
H486   H     0.40168   0.54117   0.13724   0.00000  Uiso   1.00
H487   H     0.31716   0.62174   0.30946   0.00000  Uiso   1.00
H488   H     0.48284   0.71658   0.15347   0.00000  Uiso   1.00
H489   H     0.41911   0.47067   0.98032   0.00000  Uiso   1.00
H490   H     0.24088   0.64056   0.34349   0.00000  Uiso   1.00
H491   H     0.35627   0.63153   0.57139   0.00000  Uiso   1.00
H492   H     0.40386   0.68307   0.55135   0.00000  Uiso   1.00
H493   H     0.37364   0.56645   0.46923   0.00000  Uiso   1.00
H494   H     0.28912   0.64702   0.64145   0.00000  Uiso   1.00
H495   H     0.46009   0.73710   0.61128   0.00000  Uiso   1.00
H496   H     0.39635   0.49118   0.43813   0.00000  Uiso   1.00
H497   H     0.21812   0.66108   0.80130   0.00000  Uiso   1.00
O498   O     0.50326   0.76031   0.88060   0.00000  Uiso   1.00
O499   O     0.41963   0.43768   0.65344   0.00000  Uiso   1.00
O500   O     0.18581   0.66058   0.12992   0.00000  Uiso   1.00
N501   N     0.47095   0.71434   0.02863   0.00000  Uiso   1.00
N502   N     0.41137   0.48443   0.86673   0.00000  Uiso   1.00
N503   N     0.24474   0.64326   0.20627   0.00000  Uiso   1.00
N504   N     0.45871   0.72538   0.73688   0.00000  Uiso   1.00
N505   N     0.39912   0.49547   0.57499   0.00000  Uiso   1.00
N506   N     0.23249   0.65430   0.91452   0.00000  Uiso   1.00
C507   C     0.87676   0.11306   0.55957   0.00000  Uiso   1.00
C508   C     0.89972   0.14367   0.47976   0.00000  Uiso   1.00
C509   C     0.92585   0.16326   0.57515   0.00000  Uiso   1.00
C510   C     0.94391   0.19018   0.47748   0.00000  Uiso   1.00
C511   C     0.98077   0.23664   0.38187   0.00000  Uiso   1.00
C512   C     0.88331   0.08031   0.43513   0.00000  Uiso   1.00
C513   C     0.89563   0.04662   0.49301   0.00000  Uiso   1.00
C514   C     0.89986   0.02020   0.35777   0.00000  Uiso   1.00
C515   C     0.91121   0.96827   0.19290   0.00000  Uiso   1.00
C516   C     0.83739   0.12409   0.52871   0.00000  Uiso   1.00
C517   C     0.81110   0.12720   0.66527   0.00000  Uiso   1.00
C518   C     0.77666   0.13763   0.60881   0.00000  Uiso   1.00
C519   C     0.71671   0.15367   0.58923   0.00000  Uiso   1.00
C520   C     0.86236   0.12604   0.21648   0.00000  Uiso   1.00
C521   C     0.89190   0.15072   0.29340   0.00000  Uiso   1.00
C522   C     0.90992   0.17762   0.19556   0.00000  Uiso   1.00
C523   C     0.93607   0.19725   0.29079   0.00000  Uiso   1.00
C524   C     0.87549   0.08736   0.24878   0.00000  Uiso   1.00
C525   C     0.87970   0.06098   0.11342   0.00000  Uiso   1.00
C526   C     0.89203   0.02726   0.17108   0.00000  Uiso   1.00
C527   C     0.82957   0.13114   0.34236   0.00000  Uiso   1.00
C528   C     0.79517   0.14156   0.28567   0.00000  Uiso   1.00
C529   C     0.76883   0.14469   0.42212   0.00000  Uiso   1.00
H530   H     0.88285   0.10756   0.70465   0.00000  Uiso   1.00
H531   H     0.93190   0.15779   0.71936   0.00000  Uiso   1.00
H532   H     0.90168   0.04117   0.63724   0.00000  Uiso   1.00
H533   H     0.81716   0.12174   0.80946   0.00000  Uiso   1.00
H534   H     0.98284   0.21658   0.65347   0.00000  Uiso   1.00
H535   H     0.91911   0.97067   0.48032   0.00000  Uiso   1.00
H536   H     0.74088   0.14056   0.84349   0.00000  Uiso   1.00
H537   H     0.85627   0.13153   0.07139   0.00000  Uiso   1.00
H538   H     0.90386   0.18307   0.05135   0.00000  Uiso   1.00
H539   H     0.87364   0.06645   0.96923   0.00000  Uiso   1.00
H540   H     0.78912   0.14702   0.14145   0.00000  Uiso   1.00
H541   H     0.96009   0.23710   0.11128   0.00000  Uiso   1.00
H542   H     0.89635   0.99118   0.93813   0.00000  Uiso   1.00
H543   H     0.71812   0.16108   0.30130   0.00000  Uiso   1.00
O544   O     0.00326   0.26031   0.38060   0.00000  Uiso   1.00
O545   O     0.91963   0.93768   0.15344   0.00000  Uiso   1.00
O546   O     0.68581   0.16058   0.62992   0.00000  Uiso   1.00
N547   N     0.97095   0.21434   0.52863   0.00000  Uiso   1.00
N548   N     0.91137   0.98443   0.36673   0.00000  Uiso   1.00
N549   N     0.74474   0.14326   0.70627   0.00000  Uiso   1.00
N550   N     0.95871   0.22538   0.23688   0.00000  Uiso   1.00
N551   N     0.89912   0.99547   0.07499   0.00000  Uiso   1.00
N552   N     0.73249   0.15430   0.41452   0.00000  Uiso   1.00
C553   C     0.61306   0.12324   0.30957   0.00000  Uiso   1.00
C554   C     0.64367   0.10028   0.22976   0.00000  Uiso   1.00
C555   C     0.66326   0.07415   0.32515   0.00000  Uiso   1.00
C556   C     0.69018   0.05609   0.22748   0.00000  Uiso   1.00
C557   C     0.73664   0.01923   0.13187   0.00000  Uiso   1.00
C558   C     0.58031   0.11669   0.18513   0.00000  Uiso   1.00
C559   C     0.54662   0.10437   0.24301   0.00000  Uiso   1.00
C560   C     0.52020   0.10014   0.10777   0.00000  Uiso   1.00
C561   C     0.46827   0.08879   0.94290   0.00000  Uiso   1.00
C562   C     0.62409   0.16261   0.27871   0.00000  Uiso   1.00
C563   C     0.62720   0.18890   0.41527   0.00000  Uiso   1.00
C564   C     0.63763   0.22334   0.35881   0.00000  Uiso   1.00
C565   C     0.65367   0.28329   0.33923   0.00000  Uiso   1.00
C566   C     0.62604   0.13764   0.96648   0.00000  Uiso   1.00
C567   C     0.65072   0.10810   0.04340   0.00000  Uiso   1.00
C568   C     0.67762   0.09008   0.94556   0.00000  Uiso   1.00
C569   C     0.69725   0.06393   0.04079   0.00000  Uiso   1.00
C570   C     0.58736   0.12451   0.99878   0.00000  Uiso   1.00
C571   C     0.56098   0.12030   0.86342   0.00000  Uiso   1.00
C572   C     0.52726   0.10797   0.92108   0.00000  Uiso   1.00
C573   C     0.63114   0.17043   0.09236   0.00000  Uiso   1.00
C574   C     0.64156   0.20483   0.03567   0.00000  Uiso   1.00
C575   C     0.64469   0.23117   0.17212   0.00000  Uiso   1.00
H576   H     0.60756   0.11715   0.45465   0.00000  Uiso   1.00
H577   H     0.65779   0.06810   0.46936   0.00000  Uiso   1.00
H578   H     0.54117   0.09832   0.38724   0.00000  Uiso   1.00
H579   H     0.62174   0.18284   0.55946   0.00000  Uiso   1.00
H580   H     0.71658   0.01716   0.40347   0.00000  Uiso   1.00
H581   H     0.47067   0.08089   0.23032   0.00000  Uiso   1.00
H582   H     0.64056   0.25912   0.59349   0.00000  Uiso   1.00
H583   H     0.63153   0.14373   0.82139   0.00000  Uiso   1.00
H584   H     0.68307   0.09614   0.80135   0.00000  Uiso   1.00
H585   H     0.56645   0.12636   0.71923   0.00000  Uiso   1.00
H586   H     0.64702   0.21088   0.89145   0.00000  Uiso   1.00
H587   H     0.73710   0.03991   0.86128   0.00000  Uiso   1.00
H588   H     0.49118   0.10365   0.68813   0.00000  Uiso   1.00
H589   H     0.66108   0.28188   0.05130   0.00000  Uiso   1.00
O590   O     0.76031   0.99674   0.13060   0.00000  Uiso   1.00
O591   O     0.43768   0.08037   0.90344   0.00000  Uiso   1.00
O592   O     0.66058   0.31419   0.37992   0.00000  Uiso   1.00
N593   N     0.71434   0.02905   0.27863   0.00000  Uiso   1.00
N594   N     0.48443   0.08863   0.11673   0.00000  Uiso   1.00
N595   N     0.64326   0.25526   0.45627   0.00000  Uiso   1.00
N596   N     0.72538   0.04129   0.98688   0.00000  Uiso   1.00
N597   N     0.49547   0.10088   0.82499   0.00000  Uiso   1.00
N598   N     0.65430   0.26751   0.16452   0.00000  Uiso   1.00
C599   C     0.11306   0.62324   0.80957   0.00000  Uiso   1.00
C600   C     0.14367   0.60028   0.72976   0.00000  Uiso   1.00
C601   C     0.16326   0.57415   0.82515   0.00000  Uiso   1.00
C602   C     0.19018   0.55609   0.72748   0.00000  Uiso   1.00
C603   C     0.23664   0.51923   0.63187   0.00000  Uiso   1.00
C604   C     0.08031   0.61669   0.68513   0.00000  Uiso   1.00
C605   C     0.04662   0.60437   0.74301   0.00000  Uiso   1.00
C606   C     0.02020   0.60014   0.60777   0.00000  Uiso   1.00
C607   C     0.96827   0.58879   0.44290   0.00000  Uiso   1.00
C608   C     0.12409   0.66261   0.77871   0.00000  Uiso   1.00
C609   C     0.12720   0.68890   0.91527   0.00000  Uiso   1.00
C610   C     0.13763   0.72334   0.85881   0.00000  Uiso   1.00
C611   C     0.15367   0.78329   0.83923   0.00000  Uiso   1.00
C612   C     0.12604   0.63764   0.46648   0.00000  Uiso   1.00
C613   C     0.15072   0.60810   0.54340   0.00000  Uiso   1.00
C614   C     0.17762   0.59008   0.44556   0.00000  Uiso   1.00
C615   C     0.19725   0.56393   0.54079   0.00000  Uiso   1.00
C616   C     0.08736   0.62451   0.49878   0.00000  Uiso   1.00
C617   C     0.06098   0.62030   0.36342   0.00000  Uiso   1.00
C618   C     0.02726   0.60797   0.42108   0.00000  Uiso   1.00
C619   C     0.13114   0.67043   0.59236   0.00000  Uiso   1.00
C620   C     0.14156   0.70483   0.53567   0.00000  Uiso   1.00
C621   C     0.14469   0.73117   0.67212   0.00000  Uiso   1.00
H622   H     0.10756   0.61715   0.95465   0.00000  Uiso   1.00
H623   H     0.15779   0.56810   0.96936   0.00000  Uiso   1.00
H624   H     0.04117   0.59832   0.88724   0.00000  Uiso   1.00
H625   H     0.12174   0.68284   0.05946   0.00000  Uiso   1.00
H626   H     0.21658   0.51716   0.90347   0.00000  Uiso   1.00
H627   H     0.97067   0.58089   0.73032   0.00000  Uiso   1.00
H628   H     0.14056   0.75912   0.09349   0.00000  Uiso   1.00
H629   H     0.13153   0.64373   0.32139   0.00000  Uiso   1.00
H630   H     0.18307   0.59614   0.30135   0.00000  Uiso   1.00
H631   H     0.06645   0.62636   0.21923   0.00000  Uiso   1.00
H632   H     0.14702   0.71088   0.39145   0.00000  Uiso   1.00
H633   H     0.23710   0.53991   0.36128   0.00000  Uiso   1.00
H634   H     0.99118   0.60365   0.18813   0.00000  Uiso   1.00
H635   H     0.16108   0.78188   0.55130   0.00000  Uiso   1.00
O636   O     0.26031   0.49674   0.63060   0.00000  Uiso   1.00
O637   O     0.93768   0.58037   0.40344   0.00000  Uiso   1.00
O638   O     0.16058   0.81419   0.87992   0.00000  Uiso   1.00
N639   N     0.21434   0.52905   0.77863   0.00000  Uiso   1.00
N640   N     0.98443   0.58863   0.61673   0.00000  Uiso   1.00
N641   N     0.14326   0.75526   0.95627   0.00000  Uiso   1.00
N642   N     0.22538   0.54129   0.48688   0.00000  Uiso   1.00
N643   N     0.99547   0.60088   0.32499   0.00000  Uiso   1.00
N644   N     0.15430   0.76751   0.66452   0.00000  Uiso   1.00
C645   C     0.88694   0.37676   0.80957   0.00000  Uiso   1.00
C646   C     0.85633   0.39972   0.72976   0.00000  Uiso   1.00
C647   C     0.83674   0.42585   0.82515   0.00000  Uiso   1.00
C648   C     0.80982   0.44391   0.72748   0.00000  Uiso   1.00
C649   C     0.76336   0.48077   0.63187   0.00000  Uiso   1.00
C650   C     0.91969   0.38331   0.68513   0.00000  Uiso   1.00
C651   C     0.95338   0.39563   0.74301   0.00000  Uiso   1.00
C652   C     0.97980   0.39986   0.60777   0.00000  Uiso   1.00
C653   C     0.03173   0.41121   0.44290   0.00000  Uiso   1.00
C654   C     0.87591   0.33739   0.77871   0.00000  Uiso   1.00
C655   C     0.87280   0.31110   0.91527   0.00000  Uiso   1.00
C656   C     0.86237   0.27666   0.85881   0.00000  Uiso   1.00
C657   C     0.84633   0.21671   0.83923   0.00000  Uiso   1.00
C658   C     0.87396   0.36236   0.46648   0.00000  Uiso   1.00
C659   C     0.84928   0.39190   0.54340   0.00000  Uiso   1.00
C660   C     0.82238   0.40992   0.44556   0.00000  Uiso   1.00
C661   C     0.80275   0.43607   0.54079   0.00000  Uiso   1.00
C662   C     0.91264   0.37549   0.49878   0.00000  Uiso   1.00
C663   C     0.93902   0.37970   0.36342   0.00000  Uiso   1.00
C664   C     0.97274   0.39203   0.42108   0.00000  Uiso   1.00
C665   C     0.86886   0.32957   0.59236   0.00000  Uiso   1.00
C666   C     0.85844   0.29517   0.53567   0.00000  Uiso   1.00
C667   C     0.85531   0.26883   0.67212   0.00000  Uiso   1.00
H668   H     0.89244   0.38285   0.95465   0.00000  Uiso   1.00
H669   H     0.84221   0.43190   0.96936   0.00000  Uiso   1.00
H670   H     0.95883   0.40168   0.88724   0.00000  Uiso   1.00
H671   H     0.87826   0.31716   0.05946   0.00000  Uiso   1.00
H672   H     0.78342   0.48284   0.90347   0.00000  Uiso   1.00
H673   H     0.02933   0.41911   0.73032   0.00000  Uiso   1.00
H674   H     0.85944   0.24088   0.09349   0.00000  Uiso   1.00
H675   H     0.86847   0.35627   0.32139   0.00000  Uiso   1.00
H676   H     0.81693   0.40386   0.30135   0.00000  Uiso   1.00
H677   H     0.93355   0.37364   0.21923   0.00000  Uiso   1.00
H678   H     0.85298   0.28912   0.39145   0.00000  Uiso   1.00
H679   H     0.76290   0.46009   0.36128   0.00000  Uiso   1.00
H680   H     0.00882   0.39635   0.18813   0.00000  Uiso   1.00
H681   H     0.83892   0.21812   0.55130   0.00000  Uiso   1.00
O682   O     0.73969   0.50326   0.63060   0.00000  Uiso   1.00
O683   O     0.06232   0.41963   0.40344   0.00000  Uiso   1.00
O684   O     0.83942   0.18581   0.87992   0.00000  Uiso   1.00
N685   N     0.78566   0.47095   0.77863   0.00000  Uiso   1.00
N686   N     0.01557   0.41137   0.61673   0.00000  Uiso   1.00
N687   N     0.85674   0.24474   0.95627   0.00000  Uiso   1.00
N688   N     0.77462   0.45871   0.48688   0.00000  Uiso   1.00
N689   N     0.00453   0.39912   0.32499   0.00000  Uiso   1.00
N690   N     0.84570   0.23249   0.66452   0.00000  Uiso   1.00
C691   C     0.38694   0.87676   0.30957   0.00000  Uiso   1.00
C692   C     0.35633   0.89972   0.22976   0.00000  Uiso   1.00
C693   C     0.33674   0.92585   0.32515   0.00000  Uiso   1.00
C694   C     0.30982   0.94391   0.22748   0.00000  Uiso   1.00
C695   C     0.26336   0.98077   0.13187   0.00000  Uiso   1.00
C696   C     0.41969   0.88331   0.18513   0.00000  Uiso   1.00
C697   C     0.45338   0.89563   0.24301   0.00000  Uiso   1.00
C698   C     0.47980   0.89986   0.10777   0.00000  Uiso   1.00
C699   C     0.53173   0.91121   0.94290   0.00000  Uiso   1.00
C700   C     0.37591   0.83739   0.27871   0.00000  Uiso   1.00
C701   C     0.37280   0.81110   0.41527   0.00000  Uiso   1.00
C702   C     0.36237   0.77666   0.35881   0.00000  Uiso   1.00
C703   C     0.34633   0.71671   0.33923   0.00000  Uiso   1.00
C704   C     0.37396   0.86236   0.96648   0.00000  Uiso   1.00
C705   C     0.34928   0.89190   0.04340   0.00000  Uiso   1.00
C706   C     0.32238   0.90992   0.94556   0.00000  Uiso   1.00
C707   C     0.30275   0.93607   0.04079   0.00000  Uiso   1.00
C708   C     0.41264   0.87549   0.99878   0.00000  Uiso   1.00
C709   C     0.43902   0.87970   0.86342   0.00000  Uiso   1.00
C710   C     0.47274   0.89203   0.92108   0.00000  Uiso   1.00
C711   C     0.36886   0.82957   0.09236   0.00000  Uiso   1.00
C712   C     0.35844   0.79517   0.03567   0.00000  Uiso   1.00
C713   C     0.35531   0.76883   0.17212   0.00000  Uiso   1.00
H714   H     0.39244   0.88285   0.45465   0.00000  Uiso   1.00
H715   H     0.34221   0.93190   0.46936   0.00000  Uiso   1.00
H716   H     0.45883   0.90168   0.38724   0.00000  Uiso   1.00
H717   H     0.37826   0.81716   0.55946   0.00000  Uiso   1.00
H718   H     0.28342   0.98284   0.40347   0.00000  Uiso   1.00
H719   H     0.52933   0.91911   0.23032   0.00000  Uiso   1.00
H720   H     0.35944   0.74088   0.59349   0.00000  Uiso   1.00
H721   H     0.36847   0.85627   0.82139   0.00000  Uiso   1.00
H722   H     0.31693   0.90386   0.80135   0.00000  Uiso   1.00
H723   H     0.43355   0.87364   0.71923   0.00000  Uiso   1.00
H724   H     0.35298   0.78912   0.89145   0.00000  Uiso   1.00
H725   H     0.26290   0.96009   0.86128   0.00000  Uiso   1.00
H726   H     0.50882   0.89635   0.68813   0.00000  Uiso   1.00
H727   H     0.33892   0.71812   0.05130   0.00000  Uiso   1.00
O728   O     0.23969   0.00326   0.13060   0.00000  Uiso   1.00
O729   O     0.56232   0.91963   0.90344   0.00000  Uiso   1.00
O730   O     0.33942   0.68581   0.37992   0.00000  Uiso   1.00
N731   N     0.28566   0.97095   0.27863   0.00000  Uiso   1.00
N732   N     0.51557   0.91137   0.11673   0.00000  Uiso   1.00
N733   N     0.35674   0.74474   0.45627   0.00000  Uiso   1.00
N734   N     0.27462   0.95871   0.98688   0.00000  Uiso   1.00
N735   N     0.50453   0.89912   0.82499   0.00000  Uiso   1.00
N736   N     0.34570   0.73249   0.16452   0.00000  Uiso   1.00
