data_job_04488
_audit_creation_date              2018-12-19
_audit_creation_method            'Materials Studio'
_symmetry_space_group_name_H-M    'P1'
_symmetry_Int_Tables_number       1
_symmetry_cell_setting            triclinic
loop_
_symmetry_equiv_pos_as_xyz
  x,y,z
_cell_length_a                    14.0022
_cell_length_b                    14.0022
_cell_length_c                    51.2737
_cell_angle_alpha                 90.0000
_cell_angle_beta                  90.0000
_cell_angle_gamma                 90.0000
loop_
_atom_site_label
_atom_site_type_symbol
_atom_site_fract_x
_atom_site_fract_y
_atom_site_fract_z
_atom_site_U_iso_or_equiv
_atom_site_adp_type
_atom_site_occupancy
C1     C     0.99288   0.49172   0.32497   0.00000  Uiso   1.00
C2     C     0.00289   0.54379   0.29899   0.00000  Uiso   1.00
C3     C     0.04866   0.63060   0.29519   0.00000  Uiso   1.00
C4     C     0.05007   0.66638   0.26994   0.00000  Uiso   1.00
C5     C     0.07209   0.75476   0.23275   0.00000  Uiso   1.00
C6     C     0.88608   0.47642   0.32902   0.00000  Uiso   1.00
C7     C     0.83363   0.50657   0.35046   0.00000  Uiso   1.00
C8     C     0.73671   0.48563   0.35049   0.00000  Uiso   1.00
C9     C     0.57739   0.46935   0.35992   0.00000  Uiso   1.00
C10    C     0.03562   0.39272   0.32081   0.00000  Uiso   1.00
C11    C     0.10889   0.35247   0.33535   0.00000  Uiso   1.00
C12    C     0.13785   0.26105   0.32846   0.00000  Uiso   1.00
C13    C     0.21071   0.11481   0.32515   0.00000  Uiso   1.00
C14    C     0.91401   0.40091   0.28689   0.00000  Uiso   1.00
C15    C     0.96005   0.49447   0.27831   0.00000  Uiso   1.00
C16    C     0.96140   0.53013   0.25306   0.00000  Uiso   1.00
C17    C     0.00716   0.61697   0.24922   0.00000  Uiso   1.00
C18    C     0.84324   0.42710   0.30834   0.00000  Uiso   1.00
C19    C     0.74638   0.40610   0.30833   0.00000  Uiso   1.00
C20    C     0.69379   0.43621   0.32977   0.00000  Uiso   1.00
C21    C     0.99278   0.34340   0.30012   0.00000  Uiso   1.00
C22    C     0.02163   0.25201   0.29322   0.00000  Uiso   1.00
C23    C     0.09493   0.21163   0.30775   0.00000  Uiso   1.00
H24    H     0.02623   0.53012   0.34107   0.00000  Uiso   1.00
H25    H     0.08179   0.66875   0.31120   0.00000  Uiso   1.00
H26    H     0.86681   0.54473   0.36646   0.00000  Uiso   1.00
H27    H     0.14202   0.39066   0.35135   0.00000  Uiso   1.00
H28    H     0.12447   0.80071   0.26895   0.00000  Uiso   1.00
H29    H     0.67117   0.53918   0.38549   0.00000  Uiso   1.00
H30    H     0.25151   0.21430   0.35363   0.00000  Uiso   1.00
H31    H     0.88066   0.36251   0.27079   0.00000  Uiso   1.00
H32    H     0.92824   0.49194   0.23706   0.00000  Uiso   1.00
H33    H     0.71325   0.36793   0.29233   0.00000  Uiso   1.00
H34    H     0.98846   0.21386   0.27721   0.00000  Uiso   1.00
H35    H     0.99984   0.65721   0.20878   0.00000  Uiso   1.00
H36    H     0.54653   0.39568   0.32532   0.00000  Uiso   1.00
H37    H     0.12688   0.07080   0.29345   0.00000  Uiso   1.00
O38    O     0.09605   0.81715   0.21795   0.00000  Uiso   1.00
O39    O     0.50134   0.47402   0.37084   0.00000  Uiso   1.00
O40    O     0.26274   0.04778   0.32904   0.00000  Uiso   1.00
N41    N     0.08863   0.74917   0.25942   0.00000  Uiso   1.00
N42    N     0.66481   0.50467   0.36837   0.00000  Uiso   1.00
N43    N     0.20737   0.20092   0.33859   0.00000  Uiso   1.00
N44    N     0.02156   0.67195   0.22704   0.00000  Uiso   1.00
N45    N     0.59775   0.42745   0.33600   0.00000  Uiso   1.00
N46    N     0.14030   0.12370   0.30621   0.00000  Uiso   1.00
C47    C     0.28550   0.77005   0.57491   0.00000  Uiso   1.00
C48    C     0.23342   0.77943   0.54891   0.00000  Uiso   1.00
C49    C     0.14601   0.82399   0.54508   0.00000  Uiso   1.00
C50    C     0.11034   0.82499   0.51982   0.00000  Uiso   1.00
C51    C     0.02184   0.84591   0.48261   0.00000  Uiso   1.00
C52    C     0.30225   0.66345   0.57893   0.00000  Uiso   1.00
C53    C     0.27273   0.61052   0.60035   0.00000  Uiso   1.00
C54    C     0.29501   0.51390   0.60036   0.00000  Uiso   1.00
C55    C     0.31345   0.35479   0.60976   0.00000  Uiso   1.00
C56    C     0.38392   0.81417   0.57079   0.00000  Uiso   1.00
C57    C     0.42307   0.88794   0.58537   0.00000  Uiso   1.00
C58    C     0.51412   0.91819   0.57852   0.00000  Uiso   1.00
C59    C     0.65935   0.99308   0.57528   0.00000  Uiso   1.00
C60    C     0.37758   0.69258   0.53684   0.00000  Uiso   1.00
C61    C     0.28344   0.73734   0.52824   0.00000  Uiso   1.00
C62    C     0.24789   0.73828   0.50297   0.00000  Uiso   1.00
C63    C     0.16044   0.78284   0.49911   0.00000  Uiso   1.00
C64    C     0.35227   0.62137   0.55826   0.00000  Uiso   1.00
C65    C     0.37461   0.52481   0.55824   0.00000  Uiso   1.00
C66    C     0.34512   0.47174   0.57965   0.00000  Uiso   1.00
C67    C     0.43393   0.77209   0.55012   0.00000  Uiso   1.00
C68    C     0.52494   0.80223   0.54325   0.00000  Uiso   1.00
C69    C     0.56423   0.87603   0.55781   0.00000  Uiso   1.00
H70    H     0.24656   0.80280   0.59100   0.00000  Uiso   1.00
H71    H     0.10732   0.85654   0.56109   0.00000  Uiso   1.00
H72    H     0.23403   0.64311   0.61635   0.00000  Uiso   1.00
H73    H     0.38435   0.92048   0.60136   0.00000  Uiso   1.00
H74    H     0.97499   0.89753   0.51881   0.00000  Uiso   1.00
H75    H     0.24220   0.44750   0.63533   0.00000  Uiso   1.00
H76    H     0.55916   0.03240   0.60373   0.00000  Uiso   1.00
H77    H     0.41652   0.65981   0.52075   0.00000  Uiso   1.00
H78    H     0.28661   0.70571   0.48698   0.00000  Uiso   1.00
H79    H     0.41332   0.49227   0.54224   0.00000  Uiso   1.00
H80    H     0.56363   0.76965   0.52725   0.00000  Uiso   1.00
H81    H     0.12050   0.77511   0.45866   0.00000  Uiso   1.00
H82    H     0.38771   0.32507   0.57518   0.00000  Uiso   1.00
H83    H     0.70467   0.90997   0.54358   0.00000  Uiso   1.00
O84    O     0.95921   0.86906   0.46779   0.00000  Uiso   1.00
O85    O     0.30979   0.27865   0.62066   0.00000  Uiso   1.00
O86    O     0.72563   0.04602   0.57921   0.00000  Uiso   1.00
N87    N     0.02708   0.86244   0.50929   0.00000  Uiso   1.00
N88    N     0.27688   0.44168   0.61822   0.00000  Uiso   1.00
N89    N     0.57323   0.98850   0.58869   0.00000  Uiso   1.00
N90    N     0.10538   0.79656   0.47692   0.00000  Uiso   1.00
N91    N     0.35518   0.37581   0.58586   0.00000  Uiso   1.00
N92    N     0.65153   0.92262   0.55632   0.00000  Uiso   1.00
C93    C     0.00712   0.50828   0.82497   0.00000  Uiso   1.00
C94    C     0.99711   0.45621   0.79899   0.00000  Uiso   1.00
C95    C     0.95134   0.36940   0.79519   0.00000  Uiso   1.00
C96    C     0.94993   0.33362   0.76994   0.00000  Uiso   1.00
C97    C     0.92791   0.24524   0.73275   0.00000  Uiso   1.00
C98    C     0.11392   0.52358   0.82902   0.00000  Uiso   1.00
C99    C     0.16637   0.49343   0.85046   0.00000  Uiso   1.00
C100   C     0.26329   0.51437   0.85049   0.00000  Uiso   1.00
C101   C     0.42261   0.53065   0.85992   0.00000  Uiso   1.00
C102   C     0.96438   0.60728   0.82081   0.00000  Uiso   1.00
C103   C     0.89111   0.64753   0.83535   0.00000  Uiso   1.00
C104   C     0.86215   0.73895   0.82846   0.00000  Uiso   1.00
C105   C     0.78929   0.88519   0.82515   0.00000  Uiso   1.00
C106   C     0.08599   0.59909   0.78689   0.00000  Uiso   1.00
C107   C     0.03995   0.50553   0.77831   0.00000  Uiso   1.00
C108   C     0.03860   0.46987   0.75306   0.00000  Uiso   1.00
C109   C     0.99284   0.38303   0.74922   0.00000  Uiso   1.00
C110   C     0.15676   0.57290   0.80834   0.00000  Uiso   1.00
C111   C     0.25362   0.59390   0.80833   0.00000  Uiso   1.00
C112   C     0.30621   0.56379   0.82977   0.00000  Uiso   1.00
C113   C     0.00722   0.65660   0.80012   0.00000  Uiso   1.00
C114   C     0.97837   0.74799   0.79322   0.00000  Uiso   1.00
C115   C     0.90507   0.78837   0.80775   0.00000  Uiso   1.00
H116   H     0.97377   0.46988   0.84107   0.00000  Uiso   1.00
H117   H     0.91821   0.33125   0.81120   0.00000  Uiso   1.00
H118   H     0.13319   0.45527   0.86646   0.00000  Uiso   1.00
H119   H     0.85798   0.60934   0.85135   0.00000  Uiso   1.00
H120   H     0.87553   0.19929   0.76895   0.00000  Uiso   1.00
H121   H     0.32883   0.46082   0.88549   0.00000  Uiso   1.00
H122   H     0.74849   0.78570   0.85363   0.00000  Uiso   1.00
H123   H     0.11934   0.63749   0.77079   0.00000  Uiso   1.00
H124   H     0.07176   0.50806   0.73706   0.00000  Uiso   1.00
H125   H     0.28675   0.63207   0.79233   0.00000  Uiso   1.00
H126   H     0.01154   0.78614   0.77721   0.00000  Uiso   1.00
H127   H     0.00016   0.34279   0.70878   0.00000  Uiso   1.00
H128   H     0.45347   0.60432   0.82532   0.00000  Uiso   1.00
H129   H     0.87312   0.92920   0.79345   0.00000  Uiso   1.00
O130   O     0.90395   0.18285   0.71795   0.00000  Uiso   1.00
O131   O     0.49866   0.52598   0.87084   0.00000  Uiso   1.00
O132   O     0.73726   0.95222   0.82904   0.00000  Uiso   1.00
N133   N     0.91137   0.25083   0.75942   0.00000  Uiso   1.00
N134   N     0.33519   0.49533   0.86837   0.00000  Uiso   1.00
N135   N     0.79263   0.79908   0.83859   0.00000  Uiso   1.00
N136   N     0.97844   0.32805   0.72704   0.00000  Uiso   1.00
N137   N     0.40225   0.57255   0.83600   0.00000  Uiso   1.00
N138   N     0.85970   0.87630   0.80621   0.00000  Uiso   1.00
C139   C     0.71450   0.22995   0.07491   0.00000  Uiso   1.00
C140   C     0.76658   0.22057   0.04891   0.00000  Uiso   1.00
C141   C     0.85399   0.17601   0.04508   0.00000  Uiso   1.00
C142   C     0.88966   0.17501   0.01982   0.00000  Uiso   1.00
C143   C     0.97816   0.15409   0.98261   0.00000  Uiso   1.00
C144   C     0.69775   0.33655   0.07893   0.00000  Uiso   1.00
C145   C     0.72727   0.38948   0.10035   0.00000  Uiso   1.00
C146   C     0.70499   0.48610   0.10036   0.00000  Uiso   1.00
C147   C     0.68655   0.64521   0.10976   0.00000  Uiso   1.00
C148   C     0.61608   0.18583   0.07079   0.00000  Uiso   1.00
C149   C     0.57693   0.11206   0.08537   0.00000  Uiso   1.00
C150   C     0.48588   0.08181   0.07852   0.00000  Uiso   1.00
C151   C     0.34065   0.00692   0.07528   0.00000  Uiso   1.00
C152   C     0.62242   0.30742   0.03684   0.00000  Uiso   1.00
C153   C     0.71656   0.26266   0.02824   0.00000  Uiso   1.00
C154   C     0.75211   0.26172   0.00297   0.00000  Uiso   1.00
C155   C     0.83956   0.21716   0.99911   0.00000  Uiso   1.00
C156   C     0.64773   0.37863   0.05826   0.00000  Uiso   1.00
C157   C     0.62539   0.47519   0.05824   0.00000  Uiso   1.00
C158   C     0.65488   0.52826   0.07965   0.00000  Uiso   1.00
C159   C     0.56607   0.22791   0.05012   0.00000  Uiso   1.00
C160   C     0.47506   0.19777   0.04325   0.00000  Uiso   1.00
C161   C     0.43577   0.12397   0.05781   0.00000  Uiso   1.00
H162   H     0.75344   0.19720   0.09100   0.00000  Uiso   1.00
H163   H     0.89268   0.14346   0.06109   0.00000  Uiso   1.00
H164   H     0.76597   0.35689   0.11635   0.00000  Uiso   1.00
H165   H     0.61565   0.07952   0.10136   0.00000  Uiso   1.00
H166   H     0.02501   0.10247   0.01881   0.00000  Uiso   1.00
H167   H     0.75780   0.55250   0.13533   0.00000  Uiso   1.00
H168   H     0.44084   0.96760   0.10373   0.00000  Uiso   1.00
H169   H     0.58348   0.34019   0.02075   0.00000  Uiso   1.00
H170   H     0.71339   0.29429   0.98698   0.00000  Uiso   1.00
H171   H     0.58668   0.50773   0.04224   0.00000  Uiso   1.00
H172   H     0.43637   0.23035   0.02725   0.00000  Uiso   1.00
H173   H     0.87950   0.22489   0.95866   0.00000  Uiso   1.00
H174   H     0.61229   0.67493   0.07518   0.00000  Uiso   1.00
H175   H     0.29533   0.09003   0.04358   0.00000  Uiso   1.00
O176   O     0.04079   0.13094   0.96779   0.00000  Uiso   1.00
O177   O     0.69021   0.72135   0.12066   0.00000  Uiso   1.00
O178   O     0.27437   0.95398   0.07921   0.00000  Uiso   1.00
N179   N     0.97292   0.13756   0.00929   0.00000  Uiso   1.00
N180   N     0.72312   0.55832   0.11822   0.00000  Uiso   1.00
N181   N     0.42677   0.01150   0.08869   0.00000  Uiso   1.00
N182   N     0.89462   0.20344   0.97692   0.00000  Uiso   1.00
N183   N     0.64482   0.62419   0.08586   0.00000  Uiso   1.00
N184   N     0.34847   0.07738   0.05632   0.00000  Uiso   1.00
C185   C     0.00828   0.49288   0.07497   0.00000  Uiso   1.00
C186   C     0.95621   0.50289   0.04899   0.00000  Uiso   1.00
C187   C     0.86940   0.54866   0.04519   0.00000  Uiso   1.00
C188   C     0.83362   0.55007   0.01994   0.00000  Uiso   1.00
C189   C     0.74524   0.57209   0.98275   0.00000  Uiso   1.00
C190   C     0.02358   0.38608   0.07902   0.00000  Uiso   1.00
C191   C     0.99343   0.33363   0.10046   0.00000  Uiso   1.00
C192   C     0.01437   0.23671   0.10049   0.00000  Uiso   1.00
C193   C     0.03065   0.07739   0.10992   0.00000  Uiso   1.00
C194   C     0.10728   0.53562   0.07081   0.00000  Uiso   1.00
C195   C     0.14753   0.60889   0.08535   0.00000  Uiso   1.00
C196   C     0.23895   0.63785   0.07846   0.00000  Uiso   1.00
C197   C     0.38519   0.71071   0.07515   0.00000  Uiso   1.00
C198   C     0.09909   0.41401   0.03689   0.00000  Uiso   1.00
C199   C     0.00553   0.46005   0.02831   0.00000  Uiso   1.00
C200   C     0.96987   0.46140   0.00306   0.00000  Uiso   1.00
C201   C     0.88303   0.50716   0.99922   0.00000  Uiso   1.00
C202   C     0.07290   0.34324   0.05834   0.00000  Uiso   1.00
C203   C     0.09390   0.24638   0.05833   0.00000  Uiso   1.00
C204   C     0.06379   0.19379   0.07977   0.00000  Uiso   1.00
C205   C     0.15660   0.49278   0.05012   0.00000  Uiso   1.00
C206   C     0.24799   0.52163   0.04322   0.00000  Uiso   1.00
C207   C     0.28837   0.59493   0.05775   0.00000  Uiso   1.00
H208   H     0.96988   0.52623   0.09107   0.00000  Uiso   1.00
H209   H     0.83125   0.58179   0.06120   0.00000  Uiso   1.00
H210   H     0.95527   0.36681   0.11646   0.00000  Uiso   1.00
H211   H     0.10934   0.64202   0.10135   0.00000  Uiso   1.00
H212   H     0.69929   0.62447   0.01895   0.00000  Uiso   1.00
H213   H     0.96082   0.17117   0.13549   0.00000  Uiso   1.00
H214   H     0.28570   0.75151   0.10363   0.00000  Uiso   1.00
H215   H     0.13749   0.38066   0.02079   0.00000  Uiso   1.00
H216   H     0.00806   0.42824   0.98706   0.00000  Uiso   1.00
H217   H     0.13207   0.21325   0.04233   0.00000  Uiso   1.00
H218   H     0.28614   0.48846   0.02721   0.00000  Uiso   1.00
H219   H     0.84279   0.49984   0.95878   0.00000  Uiso   1.00
H220   H     0.10432   0.04653   0.07532   0.00000  Uiso   1.00
H221   H     0.42920   0.62688   0.04345   0.00000  Uiso   1.00
O222   O     0.68285   0.59605   0.96795   0.00000  Uiso   1.00
O223   O     0.02598   0.00134   0.12084   0.00000  Uiso   1.00
O224   O     0.45222   0.76274   0.07904   0.00000  Uiso   1.00
N225   N     0.75083   0.58863   0.00942   0.00000  Uiso   1.00
N226   N     0.99533   0.16481   0.11837   0.00000  Uiso   1.00
N227   N     0.29908   0.70737   0.08859   0.00000  Uiso   1.00
N228   N     0.82805   0.52156   0.97704   0.00000  Uiso   1.00
N229   N     0.07255   0.09775   0.08600   0.00000  Uiso   1.00
N230   N     0.37630   0.64030   0.05621   0.00000  Uiso   1.00
C231   C     0.72995   0.78550   0.32491   0.00000  Uiso   1.00
C232   C     0.72057   0.73342   0.29891   0.00000  Uiso   1.00
C233   C     0.67601   0.64601   0.29508   0.00000  Uiso   1.00
C234   C     0.67501   0.61034   0.26982   0.00000  Uiso   1.00
C235   C     0.65409   0.52184   0.23261   0.00000  Uiso   1.00
C236   C     0.83655   0.80225   0.32893   0.00000  Uiso   1.00
C237   C     0.88948   0.77273   0.35035   0.00000  Uiso   1.00
C238   C     0.98610   0.79501   0.35036   0.00000  Uiso   1.00
C239   C     0.14521   0.81345   0.35976   0.00000  Uiso   1.00
C240   C     0.68583   0.88392   0.32079   0.00000  Uiso   1.00
C241   C     0.61206   0.92307   0.33537   0.00000  Uiso   1.00
C242   C     0.58181   0.01412   0.32852   0.00000  Uiso   1.00
C243   C     0.50692   0.15935   0.32528   0.00000  Uiso   1.00
C244   C     0.80742   0.87758   0.28684   0.00000  Uiso   1.00
C245   C     0.76266   0.78344   0.27824   0.00000  Uiso   1.00
C246   C     0.76172   0.74789   0.25297   0.00000  Uiso   1.00
C247   C     0.71716   0.66044   0.24911   0.00000  Uiso   1.00
C248   C     0.87863   0.85227   0.30826   0.00000  Uiso   1.00
C249   C     0.97519   0.87461   0.30824   0.00000  Uiso   1.00
C250   C     0.02826   0.84512   0.32965   0.00000  Uiso   1.00
C251   C     0.72791   0.93393   0.30012   0.00000  Uiso   1.00
C252   C     0.69777   0.02494   0.29325   0.00000  Uiso   1.00
C253   C     0.62397   0.06423   0.30781   0.00000  Uiso   1.00
H254   H     0.69720   0.74656   0.34100   0.00000  Uiso   1.00
H255   H     0.64346   0.60732   0.31109   0.00000  Uiso   1.00
H256   H     0.85689   0.73403   0.36635   0.00000  Uiso   1.00
H257   H     0.57952   0.88435   0.35136   0.00000  Uiso   1.00
H258   H     0.60247   0.47499   0.26881   0.00000  Uiso   1.00
H259   H     0.05250   0.74220   0.38533   0.00000  Uiso   1.00
H260   H     0.46760   0.05916   0.35373   0.00000  Uiso   1.00
H261   H     0.84019   0.91652   0.27075   0.00000  Uiso   1.00
H262   H     0.79429   0.78661   0.23698   0.00000  Uiso   1.00
H263   H     0.00773   0.91332   0.29224   0.00000  Uiso   1.00
H264   H     0.73035   0.06363   0.27725   0.00000  Uiso   1.00
H265   H     0.72489   0.62050   0.20866   0.00000  Uiso   1.00
H266   H     0.17493   0.88771   0.32518   0.00000  Uiso   1.00
H267   H     0.59003   0.20467   0.29358   0.00000  Uiso   1.00
O268   O     0.63094   0.45921   0.21779   0.00000  Uiso   1.00
O269   O     0.22135   0.80979   0.37066   0.00000  Uiso   1.00
O270   O     0.45398   0.22563   0.32921   0.00000  Uiso   1.00
N271   N     0.63756   0.52708   0.25929   0.00000  Uiso   1.00
N272   N     0.05832   0.77688   0.36822   0.00000  Uiso   1.00
N273   N     0.51150   0.07323   0.33869   0.00000  Uiso   1.00
N274   N     0.70344   0.60538   0.22692   0.00000  Uiso   1.00
N275   N     0.12419   0.85518   0.33586   0.00000  Uiso   1.00
N276   N     0.57738   0.15153   0.30632   0.00000  Uiso   1.00
C277   C     0.99172   0.50712   0.57497   0.00000  Uiso   1.00
C278   C     0.04379   0.49711   0.54899   0.00000  Uiso   1.00
C279   C     0.13060   0.45134   0.54519   0.00000  Uiso   1.00
C280   C     0.16638   0.44993   0.51994   0.00000  Uiso   1.00
C281   C     0.25476   0.42791   0.48275   0.00000  Uiso   1.00
C282   C     0.97642   0.61392   0.57902   0.00000  Uiso   1.00
C283   C     0.00657   0.66637   0.60046   0.00000  Uiso   1.00
C284   C     0.98563   0.76329   0.60049   0.00000  Uiso   1.00
C285   C     0.96935   0.92261   0.60992   0.00000  Uiso   1.00
C286   C     0.89272   0.46438   0.57081   0.00000  Uiso   1.00
C287   C     0.85247   0.39111   0.58535   0.00000  Uiso   1.00
C288   C     0.76105   0.36215   0.57846   0.00000  Uiso   1.00
C289   C     0.61481   0.28929   0.57515   0.00000  Uiso   1.00
C290   C     0.90091   0.58599   0.53689   0.00000  Uiso   1.00
C291   C     0.99447   0.53995   0.52831   0.00000  Uiso   1.00
C292   C     0.03013   0.53860   0.50306   0.00000  Uiso   1.00
C293   C     0.11697   0.49284   0.49922   0.00000  Uiso   1.00
C294   C     0.92710   0.65676   0.55834   0.00000  Uiso   1.00
C295   C     0.90610   0.75362   0.55833   0.00000  Uiso   1.00
C296   C     0.93621   0.80621   0.57977   0.00000  Uiso   1.00
C297   C     0.84340   0.50722   0.55012   0.00000  Uiso   1.00
C298   C     0.75201   0.47837   0.54322   0.00000  Uiso   1.00
C299   C     0.71163   0.40507   0.55775   0.00000  Uiso   1.00
H300   H     0.03012   0.47377   0.59107   0.00000  Uiso   1.00
H301   H     0.16875   0.41821   0.56120   0.00000  Uiso   1.00
H302   H     0.04473   0.63319   0.61646   0.00000  Uiso   1.00
H303   H     0.89066   0.35798   0.60135   0.00000  Uiso   1.00
H304   H     0.30071   0.37553   0.51895   0.00000  Uiso   1.00
H305   H     0.03918   0.82883   0.63549   0.00000  Uiso   1.00
H306   H     0.71430   0.24849   0.60363   0.00000  Uiso   1.00
H307   H     0.86251   0.61934   0.52079   0.00000  Uiso   1.00
H308   H     0.99194   0.57176   0.48706   0.00000  Uiso   1.00
H309   H     0.86793   0.78675   0.54233   0.00000  Uiso   1.00
H310   H     0.71386   0.51154   0.52721   0.00000  Uiso   1.00
H311   H     0.15721   0.50016   0.45878   0.00000  Uiso   1.00
H312   H     0.89568   0.95347   0.57532   0.00000  Uiso   1.00
H313   H     0.57080   0.37312   0.54345   0.00000  Uiso   1.00
O314   O     0.31715   0.40395   0.46795   0.00000  Uiso   1.00
O315   O     0.97402   0.99866   0.62084   0.00000  Uiso   1.00
O316   O     0.54778   0.23726   0.57904   0.00000  Uiso   1.00
N317   N     0.24917   0.41137   0.50942   0.00000  Uiso   1.00
N318   N     0.00467   0.83519   0.61837   0.00000  Uiso   1.00
N319   N     0.70092   0.29263   0.58859   0.00000  Uiso   1.00
N320   N     0.17195   0.47844   0.47704   0.00000  Uiso   1.00
N321   N     0.92745   0.90225   0.58600   0.00000  Uiso   1.00
N322   N     0.62370   0.35970   0.55621   0.00000  Uiso   1.00
C323   C     0.27005   0.21450   0.82491   0.00000  Uiso   1.00
C324   C     0.27943   0.26658   0.79891   0.00000  Uiso   1.00
C325   C     0.32399   0.35399   0.79508   0.00000  Uiso   1.00
C326   C     0.32499   0.38966   0.76982   0.00000  Uiso   1.00
C327   C     0.34591   0.47816   0.73261   0.00000  Uiso   1.00
C328   C     0.16345   0.19775   0.82893   0.00000  Uiso   1.00
C329   C     0.11052   0.22727   0.85035   0.00000  Uiso   1.00
C330   C     0.01390   0.20499   0.85036   0.00000  Uiso   1.00
C331   C     0.85479   0.18655   0.85976   0.00000  Uiso   1.00
C332   C     0.31417   0.11608   0.82079   0.00000  Uiso   1.00
C333   C     0.38794   0.07693   0.83537   0.00000  Uiso   1.00
C334   C     0.41819   0.98588   0.82852   0.00000  Uiso   1.00
C335   C     0.49308   0.84065   0.82528   0.00000  Uiso   1.00
C336   C     0.19258   0.12242   0.78684   0.00000  Uiso   1.00
C337   C     0.23734   0.21656   0.77824   0.00000  Uiso   1.00
C338   C     0.23828   0.25211   0.75297   0.00000  Uiso   1.00
C339   C     0.28284   0.33956   0.74911   0.00000  Uiso   1.00
C340   C     0.12137   0.14773   0.80826   0.00000  Uiso   1.00
C341   C     0.02481   0.12539   0.80824   0.00000  Uiso   1.00
C342   C     0.97174   0.15488   0.82965   0.00000  Uiso   1.00
C343   C     0.27209   0.06607   0.80012   0.00000  Uiso   1.00
C344   C     0.30223   0.97506   0.79325   0.00000  Uiso   1.00
C345   C     0.37603   0.93577   0.80781   0.00000  Uiso   1.00
H346   H     0.30280   0.25344   0.84100   0.00000  Uiso   1.00
H347   H     0.35654   0.39268   0.81109   0.00000  Uiso   1.00
H348   H     0.14311   0.26597   0.86635   0.00000  Uiso   1.00
H349   H     0.42048   0.11565   0.85136   0.00000  Uiso   1.00
H350   H     0.39753   0.52501   0.76881   0.00000  Uiso   1.00
H351   H     0.94750   0.25780   0.88533   0.00000  Uiso   1.00
H352   H     0.53240   0.94084   0.85373   0.00000  Uiso   1.00
H353   H     0.15981   0.08348   0.77075   0.00000  Uiso   1.00
H354   H     0.20571   0.21339   0.73698   0.00000  Uiso   1.00
H355   H     0.99227   0.08668   0.79224   0.00000  Uiso   1.00
H356   H     0.26965   0.93637   0.77725   0.00000  Uiso   1.00
H357   H     0.27511   0.37950   0.70866   0.00000  Uiso   1.00
H358   H     0.82507   0.11229   0.82518   0.00000  Uiso   1.00
H359   H     0.40997   0.79533   0.79358   0.00000  Uiso   1.00
O360   O     0.36906   0.54079   0.71779   0.00000  Uiso   1.00
O361   O     0.77865   0.19021   0.87066   0.00000  Uiso   1.00
O362   O     0.54602   0.77437   0.82921   0.00000  Uiso   1.00
N363   N     0.36244   0.47292   0.75929   0.00000  Uiso   1.00
N364   N     0.94168   0.22312   0.86822   0.00000  Uiso   1.00
N365   N     0.48850   0.92677   0.83869   0.00000  Uiso   1.00
N366   N     0.29656   0.39462   0.72692   0.00000  Uiso   1.00
N367   N     0.87581   0.14482   0.83586   0.00000  Uiso   1.00
N368   N     0.42262   0.84847   0.80632   0.00000  Uiso   1.00
C369   C     0.50712   0.99172   0.42503   0.00000  Uiso   1.00
C370   C     0.49711   0.04379   0.45101   0.00000  Uiso   1.00
C371   C     0.45134   0.13060   0.45481   0.00000  Uiso   1.00
C372   C     0.44993   0.16638   0.48006   0.00000  Uiso   1.00
C373   C     0.42791   0.25476   0.51725   0.00000  Uiso   1.00
C374   C     0.61392   0.97642   0.42098   0.00000  Uiso   1.00
C375   C     0.66637   0.00657   0.39954   0.00000  Uiso   1.00
C376   C     0.76329   0.98563   0.39951   0.00000  Uiso   1.00
C377   C     0.92261   0.96935   0.39008   0.00000  Uiso   1.00
C378   C     0.46438   0.89272   0.42919   0.00000  Uiso   1.00
C379   C     0.39111   0.85247   0.41465   0.00000  Uiso   1.00
C380   C     0.36215   0.76105   0.42154   0.00000  Uiso   1.00
C381   C     0.28929   0.61481   0.42485   0.00000  Uiso   1.00
C382   C     0.58599   0.90091   0.46311   0.00000  Uiso   1.00
C383   C     0.53995   0.99447   0.47169   0.00000  Uiso   1.00
C384   C     0.53860   0.03013   0.49694   0.00000  Uiso   1.00
C385   C     0.49284   0.11697   0.50078   0.00000  Uiso   1.00
C386   C     0.65676   0.92710   0.44166   0.00000  Uiso   1.00
C387   C     0.75362   0.90610   0.44167   0.00000  Uiso   1.00
C388   C     0.80621   0.93621   0.42023   0.00000  Uiso   1.00
C389   C     0.50722   0.84340   0.44988   0.00000  Uiso   1.00
C390   C     0.47837   0.75201   0.45678   0.00000  Uiso   1.00
C391   C     0.40507   0.71163   0.44225   0.00000  Uiso   1.00
H392   H     0.47377   0.03012   0.40893   0.00000  Uiso   1.00
H393   H     0.41821   0.16875   0.43880   0.00000  Uiso   1.00
H394   H     0.63319   0.04473   0.38354   0.00000  Uiso   1.00
H395   H     0.35798   0.89066   0.39865   0.00000  Uiso   1.00
H396   H     0.37553   0.30071   0.48105   0.00000  Uiso   1.00
H397   H     0.82883   0.03918   0.36451   0.00000  Uiso   1.00
H398   H     0.24849   0.71430   0.39637   0.00000  Uiso   1.00
H399   H     0.61934   0.86251   0.47921   0.00000  Uiso   1.00
H400   H     0.57176   0.99194   0.51294   0.00000  Uiso   1.00
H401   H     0.78675   0.86793   0.45767   0.00000  Uiso   1.00
H402   H     0.51154   0.71386   0.47279   0.00000  Uiso   1.00
H403   H     0.50016   0.15721   0.54122   0.00000  Uiso   1.00
H404   H     0.95347   0.89568   0.42468   0.00000  Uiso   1.00
H405   H     0.37312   0.57080   0.45655   0.00000  Uiso   1.00
O406   O     0.40395   0.31715   0.53205   0.00000  Uiso   1.00
O407   O     0.99866   0.97402   0.37916   0.00000  Uiso   1.00
O408   O     0.23726   0.54778   0.42096   0.00000  Uiso   1.00
N409   N     0.41137   0.24917   0.49058   0.00000  Uiso   1.00
N410   N     0.83519   0.00467   0.38163   0.00000  Uiso   1.00
N411   N     0.29263   0.70092   0.41141   0.00000  Uiso   1.00
N412   N     0.47844   0.17195   0.52296   0.00000  Uiso   1.00
N413   N     0.90225   0.92745   0.41400   0.00000  Uiso   1.00
N414   N     0.35970   0.62370   0.44379   0.00000  Uiso   1.00
C415   C     0.21450   0.27005   0.17509   0.00000  Uiso   1.00
C416   C     0.26658   0.27943   0.20109   0.00000  Uiso   1.00
C417   C     0.35399   0.32399   0.20492   0.00000  Uiso   1.00
C418   C     0.38966   0.32499   0.23018   0.00000  Uiso   1.00
C419   C     0.47816   0.34591   0.26739   0.00000  Uiso   1.00
C420   C     0.19775   0.16345   0.17107   0.00000  Uiso   1.00
C421   C     0.22727   0.11052   0.14965   0.00000  Uiso   1.00
C422   C     0.20499   0.01390   0.14964   0.00000  Uiso   1.00
C423   C     0.18655   0.85479   0.14024   0.00000  Uiso   1.00
C424   C     0.11608   0.31417   0.17921   0.00000  Uiso   1.00
C425   C     0.07693   0.38794   0.16463   0.00000  Uiso   1.00
C426   C     0.98588   0.41819   0.17148   0.00000  Uiso   1.00
C427   C     0.84065   0.49308   0.17472   0.00000  Uiso   1.00
C428   C     0.12242   0.19258   0.21316   0.00000  Uiso   1.00
C429   C     0.21656   0.23734   0.22176   0.00000  Uiso   1.00
C430   C     0.25211   0.23828   0.24703   0.00000  Uiso   1.00
C431   C     0.33956   0.28284   0.25089   0.00000  Uiso   1.00
C432   C     0.14773   0.12137   0.19174   0.00000  Uiso   1.00
C433   C     0.12539   0.02481   0.19176   0.00000  Uiso   1.00
C434   C     0.15488   0.97174   0.17035   0.00000  Uiso   1.00
C435   C     0.06607   0.27209   0.19988   0.00000  Uiso   1.00
C436   C     0.97506   0.30223   0.20675   0.00000  Uiso   1.00
C437   C     0.93577   0.37603   0.19219   0.00000  Uiso   1.00
H438   H     0.25344   0.30280   0.15900   0.00000  Uiso   1.00
H439   H     0.39268   0.35654   0.18891   0.00000  Uiso   1.00
H440   H     0.26597   0.14311   0.13365   0.00000  Uiso   1.00
H441   H     0.11565   0.42048   0.14864   0.00000  Uiso   1.00
H442   H     0.52501   0.39753   0.23119   0.00000  Uiso   1.00
H443   H     0.25780   0.94750   0.11467   0.00000  Uiso   1.00
H444   H     0.94084   0.53240   0.14627   0.00000  Uiso   1.00
H445   H     0.08348   0.15981   0.22925   0.00000  Uiso   1.00
H446   H     0.21339   0.20571   0.26302   0.00000  Uiso   1.00
H447   H     0.08668   0.99227   0.20776   0.00000  Uiso   1.00
H448   H     0.93637   0.26965   0.22275   0.00000  Uiso   1.00
H449   H     0.37950   0.27511   0.29134   0.00000  Uiso   1.00
H450   H     0.11229   0.82507   0.17482   0.00000  Uiso   1.00
H451   H     0.79533   0.40997   0.20642   0.00000  Uiso   1.00
O452   O     0.54079   0.36906   0.28221   0.00000  Uiso   1.00
O453   O     0.19021   0.77865   0.12934   0.00000  Uiso   1.00
O454   O     0.77437   0.54602   0.17079   0.00000  Uiso   1.00
N455   N     0.47292   0.36244   0.24071   0.00000  Uiso   1.00
N456   N     0.22312   0.94168   0.13178   0.00000  Uiso   1.00
N457   N     0.92677   0.48850   0.16131   0.00000  Uiso   1.00
N458   N     0.39462   0.29656   0.27308   0.00000  Uiso   1.00
N459   N     0.14482   0.87581   0.16414   0.00000  Uiso   1.00
N460   N     0.84847   0.42262   0.19368   0.00000  Uiso   1.00
C461   C     0.49288   0.00828   0.92503   0.00000  Uiso   1.00
C462   C     0.50289   0.95621   0.95101   0.00000  Uiso   1.00
C463   C     0.54866   0.86940   0.95481   0.00000  Uiso   1.00
C464   C     0.55007   0.83362   0.98006   0.00000  Uiso   1.00
C465   C     0.57209   0.74524   0.01725   0.00000  Uiso   1.00
C466   C     0.38608   0.02358   0.92098   0.00000  Uiso   1.00
C467   C     0.33363   0.99343   0.89954   0.00000  Uiso   1.00
C468   C     0.23671   0.01437   0.89951   0.00000  Uiso   1.00
C469   C     0.07739   0.03065   0.89008   0.00000  Uiso   1.00
C470   C     0.53562   0.10728   0.92919   0.00000  Uiso   1.00
C471   C     0.60889   0.14753   0.91465   0.00000  Uiso   1.00
C472   C     0.63785   0.23895   0.92154   0.00000  Uiso   1.00
C473   C     0.71071   0.38519   0.92485   0.00000  Uiso   1.00
C474   C     0.41401   0.09909   0.96311   0.00000  Uiso   1.00
C475   C     0.46005   0.00553   0.97169   0.00000  Uiso   1.00
C476   C     0.46140   0.96987   0.99694   0.00000  Uiso   1.00
C477   C     0.50716   0.88303   0.00078   0.00000  Uiso   1.00
C478   C     0.34324   0.07290   0.94166   0.00000  Uiso   1.00
C479   C     0.24638   0.09390   0.94167   0.00000  Uiso   1.00
C480   C     0.19379   0.06379   0.92023   0.00000  Uiso   1.00
C481   C     0.49278   0.15660   0.94988   0.00000  Uiso   1.00
C482   C     0.52163   0.24799   0.95678   0.00000  Uiso   1.00
C483   C     0.59493   0.28837   0.94225   0.00000  Uiso   1.00
H484   H     0.52623   0.96988   0.90893   0.00000  Uiso   1.00
H485   H     0.58179   0.83125   0.93880   0.00000  Uiso   1.00
H486   H     0.36681   0.95527   0.88354   0.00000  Uiso   1.00
H487   H     0.64202   0.10934   0.89865   0.00000  Uiso   1.00
H488   H     0.62447   0.69929   0.98104   0.00000  Uiso   1.00
H489   H     0.17117   0.96082   0.86451   0.00000  Uiso   1.00
H490   H     0.75151   0.28570   0.89637   0.00000  Uiso   1.00
H491   H     0.38066   0.13749   0.97921   0.00000  Uiso   1.00
H492   H     0.42824   0.00806   0.01294   0.00000  Uiso   1.00
H493   H     0.21325   0.13207   0.95767   0.00000  Uiso   1.00
H494   H     0.48846   0.28614   0.97279   0.00000  Uiso   1.00
H495   H     0.49984   0.84279   0.04122   0.00000  Uiso   1.00
H496   H     0.04653   0.10432   0.92468   0.00000  Uiso   1.00
H497   H     0.62688   0.42920   0.95655   0.00000  Uiso   1.00
O498   O     0.59605   0.68285   0.03205   0.00000  Uiso   1.00
O499   O     0.00134   0.02598   0.87916   0.00000  Uiso   1.00
O500   O     0.76274   0.45222   0.92096   0.00000  Uiso   1.00
N501   N     0.58863   0.75083   0.99058   0.00000  Uiso   1.00
N502   N     0.16481   0.99533   0.88163   0.00000  Uiso   1.00
N503   N     0.70737   0.29908   0.91141   0.00000  Uiso   1.00
N504   N     0.52156   0.82805   0.02296   0.00000  Uiso   1.00
N505   N     0.09775   0.07255   0.91400   0.00000  Uiso   1.00
N506   N     0.64030   0.37630   0.94379   0.00000  Uiso   1.00
C507   C     0.78550   0.72995   0.67509   0.00000  Uiso   1.00
C508   C     0.73342   0.72057   0.70109   0.00000  Uiso   1.00
C509   C     0.64601   0.67601   0.70492   0.00000  Uiso   1.00
C510   C     0.61034   0.67501   0.73018   0.00000  Uiso   1.00
C511   C     0.52184   0.65409   0.76739   0.00000  Uiso   1.00
C512   C     0.80225   0.83655   0.67107   0.00000  Uiso   1.00
C513   C     0.77273   0.88948   0.64965   0.00000  Uiso   1.00
C514   C     0.79501   0.98610   0.64964   0.00000  Uiso   1.00
C515   C     0.81345   0.14521   0.64024   0.00000  Uiso   1.00
C516   C     0.88392   0.68583   0.67921   0.00000  Uiso   1.00
C517   C     0.92307   0.61206   0.66463   0.00000  Uiso   1.00
C518   C     0.01412   0.58181   0.67148   0.00000  Uiso   1.00
C519   C     0.15935   0.50692   0.67472   0.00000  Uiso   1.00
C520   C     0.87758   0.80742   0.71316   0.00000  Uiso   1.00
C521   C     0.78344   0.76266   0.72176   0.00000  Uiso   1.00
C522   C     0.74789   0.76172   0.74703   0.00000  Uiso   1.00
C523   C     0.66044   0.71716   0.75089   0.00000  Uiso   1.00
C524   C     0.85227   0.87863   0.69174   0.00000  Uiso   1.00
C525   C     0.87461   0.97519   0.69176   0.00000  Uiso   1.00
C526   C     0.84512   0.02826   0.67035   0.00000  Uiso   1.00
C527   C     0.93393   0.72791   0.69988   0.00000  Uiso   1.00
C528   C     0.02494   0.69777   0.70675   0.00000  Uiso   1.00
C529   C     0.06423   0.62397   0.69219   0.00000  Uiso   1.00
H530   H     0.74656   0.69720   0.65900   0.00000  Uiso   1.00
H531   H     0.60732   0.64346   0.68891   0.00000  Uiso   1.00
H532   H     0.73403   0.85689   0.63365   0.00000  Uiso   1.00
H533   H     0.88435   0.57952   0.64864   0.00000  Uiso   1.00
H534   H     0.47499   0.60247   0.73119   0.00000  Uiso   1.00
H535   H     0.74220   0.05250   0.61467   0.00000  Uiso   1.00
H536   H     0.05916   0.46760   0.64627   0.00000  Uiso   1.00
H537   H     0.91652   0.84019   0.72925   0.00000  Uiso   1.00
H538   H     0.78661   0.79429   0.76302   0.00000  Uiso   1.00
H539   H     0.91332   0.00773   0.70776   0.00000  Uiso   1.00
H540   H     0.06363   0.73035   0.72275   0.00000  Uiso   1.00
H541   H     0.62050   0.72489   0.79134   0.00000  Uiso   1.00
H542   H     0.88771   0.17493   0.67482   0.00000  Uiso   1.00
H543   H     0.20467   0.59003   0.70642   0.00000  Uiso   1.00
O544   O     0.45921   0.63094   0.78221   0.00000  Uiso   1.00
O545   O     0.80979   0.22135   0.62934   0.00000  Uiso   1.00
O546   O     0.22563   0.45398   0.67079   0.00000  Uiso   1.00
N547   N     0.52708   0.63756   0.74071   0.00000  Uiso   1.00
N548   N     0.77688   0.05832   0.63178   0.00000  Uiso   1.00
N549   N     0.07323   0.51150   0.66131   0.00000  Uiso   1.00
N550   N     0.60538   0.70344   0.77308   0.00000  Uiso   1.00
N551   N     0.85518   0.12419   0.66414   0.00000  Uiso   1.00
N552   N     0.15153   0.57738   0.69368   0.00000  Uiso   1.00
C553   C     0.49172   0.99288   0.67503   0.00000  Uiso   1.00
C554   C     0.54379   0.00289   0.70101   0.00000  Uiso   1.00
C555   C     0.63060   0.04866   0.70481   0.00000  Uiso   1.00
C556   C     0.66638   0.05007   0.73006   0.00000  Uiso   1.00
C557   C     0.75476   0.07209   0.76725   0.00000  Uiso   1.00
C558   C     0.47642   0.88608   0.67098   0.00000  Uiso   1.00
C559   C     0.50657   0.83363   0.64954   0.00000  Uiso   1.00
C560   C     0.48563   0.73671   0.64951   0.00000  Uiso   1.00
C561   C     0.46935   0.57739   0.64008   0.00000  Uiso   1.00
C562   C     0.39272   0.03562   0.67919   0.00000  Uiso   1.00
C563   C     0.35247   0.10889   0.66465   0.00000  Uiso   1.00
C564   C     0.26105   0.13785   0.67154   0.00000  Uiso   1.00
C565   C     0.11481   0.21071   0.67485   0.00000  Uiso   1.00
C566   C     0.40091   0.91401   0.71311   0.00000  Uiso   1.00
C567   C     0.49447   0.96005   0.72169   0.00000  Uiso   1.00
C568   C     0.53013   0.96140   0.74694   0.00000  Uiso   1.00
C569   C     0.61697   0.00716   0.75078   0.00000  Uiso   1.00
C570   C     0.42710   0.84324   0.69166   0.00000  Uiso   1.00
C571   C     0.40610   0.74638   0.69167   0.00000  Uiso   1.00
C572   C     0.43621   0.69379   0.67023   0.00000  Uiso   1.00
C573   C     0.34340   0.99278   0.69988   0.00000  Uiso   1.00
C574   C     0.25201   0.02163   0.70678   0.00000  Uiso   1.00
C575   C     0.21163   0.09493   0.69225   0.00000  Uiso   1.00
H576   H     0.53012   0.02623   0.65893   0.00000  Uiso   1.00
H577   H     0.66875   0.08179   0.68880   0.00000  Uiso   1.00
H578   H     0.54473   0.86681   0.63354   0.00000  Uiso   1.00
H579   H     0.39066   0.14202   0.64865   0.00000  Uiso   1.00
H580   H     0.80071   0.12447   0.73105   0.00000  Uiso   1.00
H581   H     0.53918   0.67117   0.61451   0.00000  Uiso   1.00
H582   H     0.21430   0.25151   0.64637   0.00000  Uiso   1.00
H583   H     0.36251   0.88066   0.72921   0.00000  Uiso   1.00
H584   H     0.49194   0.92824   0.76294   0.00000  Uiso   1.00
H585   H     0.36793   0.71325   0.70767   0.00000  Uiso   1.00
H586   H     0.21386   0.98846   0.72279   0.00000  Uiso   1.00
H587   H     0.65721   0.99984   0.79122   0.00000  Uiso   1.00
H588   H     0.39568   0.54653   0.67468   0.00000  Uiso   1.00
H589   H     0.07080   0.12688   0.70655   0.00000  Uiso   1.00
O590   O     0.81715   0.09605   0.78205   0.00000  Uiso   1.00
O591   O     0.47402   0.50134   0.62916   0.00000  Uiso   1.00
O592   O     0.04778   0.26274   0.67096   0.00000  Uiso   1.00
N593   N     0.74917   0.08863   0.74058   0.00000  Uiso   1.00
N594   N     0.50467   0.66481   0.63163   0.00000  Uiso   1.00
N595   N     0.20092   0.20737   0.66141   0.00000  Uiso   1.00
N596   N     0.67195   0.02156   0.77296   0.00000  Uiso   1.00
N597   N     0.42745   0.59775   0.66400   0.00000  Uiso   1.00
N598   N     0.12370   0.14030   0.69379   0.00000  Uiso   1.00
C599   C     0.77005   0.28550   0.42509   0.00000  Uiso   1.00
C600   C     0.77943   0.23342   0.45109   0.00000  Uiso   1.00
C601   C     0.82399   0.14601   0.45492   0.00000  Uiso   1.00
C602   C     0.82499   0.11034   0.48018   0.00000  Uiso   1.00
C603   C     0.84591   0.02184   0.51739   0.00000  Uiso   1.00
C604   C     0.66345   0.30225   0.42107   0.00000  Uiso   1.00
C605   C     0.61052   0.27273   0.39965   0.00000  Uiso   1.00
C606   C     0.51390   0.29501   0.39964   0.00000  Uiso   1.00
C607   C     0.35479   0.31345   0.39024   0.00000  Uiso   1.00
C608   C     0.81417   0.38392   0.42921   0.00000  Uiso   1.00
C609   C     0.88794   0.42307   0.41463   0.00000  Uiso   1.00
C610   C     0.91819   0.51412   0.42148   0.00000  Uiso   1.00
C611   C     0.99308   0.65935   0.42472   0.00000  Uiso   1.00
C612   C     0.69258   0.37758   0.46316   0.00000  Uiso   1.00
C613   C     0.73734   0.28344   0.47176   0.00000  Uiso   1.00
C614   C     0.73828   0.24789   0.49703   0.00000  Uiso   1.00
C615   C     0.78284   0.16044   0.50089   0.00000  Uiso   1.00
C616   C     0.62137   0.35227   0.44174   0.00000  Uiso   1.00
C617   C     0.52481   0.37461   0.44176   0.00000  Uiso   1.00
C618   C     0.47174   0.34512   0.42035   0.00000  Uiso   1.00
C619   C     0.77209   0.43393   0.44988   0.00000  Uiso   1.00
C620   C     0.80223   0.52494   0.45675   0.00000  Uiso   1.00
C621   C     0.87603   0.56423   0.44219   0.00000  Uiso   1.00
H622   H     0.80280   0.24656   0.40900   0.00000  Uiso   1.00
H623   H     0.85654   0.10732   0.43891   0.00000  Uiso   1.00
H624   H     0.64311   0.23403   0.38365   0.00000  Uiso   1.00
H625   H     0.92048   0.38435   0.39864   0.00000  Uiso   1.00
H626   H     0.89753   0.97499   0.48119   0.00000  Uiso   1.00
H627   H     0.44750   0.24220   0.36467   0.00000  Uiso   1.00
H628   H     0.03240   0.55916   0.39627   0.00000  Uiso   1.00
H629   H     0.65981   0.41652   0.47925   0.00000  Uiso   1.00
H630   H     0.70571   0.28661   0.51302   0.00000  Uiso   1.00
H631   H     0.49227   0.41332   0.45776   0.00000  Uiso   1.00
H632   H     0.76965   0.56363   0.47275   0.00000  Uiso   1.00
H633   H     0.77511   0.12050   0.54134   0.00000  Uiso   1.00
H634   H     0.32507   0.38771   0.42482   0.00000  Uiso   1.00
H635   H     0.90997   0.70467   0.45642   0.00000  Uiso   1.00
O636   O     0.86906   0.95921   0.53221   0.00000  Uiso   1.00
O637   O     0.27865   0.30979   0.37934   0.00000  Uiso   1.00
O638   O     0.04602   0.72563   0.42079   0.00000  Uiso   1.00
N639   N     0.86244   0.02708   0.49071   0.00000  Uiso   1.00
N640   N     0.44168   0.27688   0.38178   0.00000  Uiso   1.00
N641   N     0.98850   0.57323   0.41131   0.00000  Uiso   1.00
N642   N     0.79656   0.10538   0.52308   0.00000  Uiso   1.00
N643   N     0.37581   0.35518   0.41414   0.00000  Uiso   1.00
N644   N     0.92262   0.65153   0.44368   0.00000  Uiso   1.00
C645   C     0.50828   0.00712   0.17503   0.00000  Uiso   1.00
C646   C     0.45621   0.99711   0.20101   0.00000  Uiso   1.00
C647   C     0.36940   0.95134   0.20481   0.00000  Uiso   1.00
C648   C     0.33362   0.94993   0.23006   0.00000  Uiso   1.00
C649   C     0.24524   0.92791   0.26725   0.00000  Uiso   1.00
C650   C     0.52358   0.11392   0.17098   0.00000  Uiso   1.00
C651   C     0.49343   0.16637   0.14954   0.00000  Uiso   1.00
C652   C     0.51437   0.26329   0.14951   0.00000  Uiso   1.00
C653   C     0.53065   0.42261   0.14008   0.00000  Uiso   1.00
C654   C     0.60728   0.96438   0.17919   0.00000  Uiso   1.00
C655   C     0.64753   0.89111   0.16465   0.00000  Uiso   1.00
C656   C     0.73895   0.86215   0.17154   0.00000  Uiso   1.00
C657   C     0.88519   0.78929   0.17485   0.00000  Uiso   1.00
C658   C     0.59909   0.08599   0.21311   0.00000  Uiso   1.00
C659   C     0.50553   0.03995   0.22169   0.00000  Uiso   1.00
C660   C     0.46987   0.03860   0.24694   0.00000  Uiso   1.00
C661   C     0.38303   0.99284   0.25078   0.00000  Uiso   1.00
C662   C     0.57290   0.15676   0.19166   0.00000  Uiso   1.00
C663   C     0.59390   0.25362   0.19167   0.00000  Uiso   1.00
C664   C     0.56379   0.30621   0.17023   0.00000  Uiso   1.00
C665   C     0.65660   0.00722   0.19988   0.00000  Uiso   1.00
C666   C     0.74799   0.97837   0.20678   0.00000  Uiso   1.00
C667   C     0.78837   0.90507   0.19225   0.00000  Uiso   1.00
H668   H     0.46988   0.97377   0.15893   0.00000  Uiso   1.00
H669   H     0.33125   0.91821   0.18880   0.00000  Uiso   1.00
H670   H     0.45527   0.13319   0.13354   0.00000  Uiso   1.00
H671   H     0.60934   0.85798   0.14865   0.00000  Uiso   1.00
H672   H     0.19929   0.87553   0.23105   0.00000  Uiso   1.00
H673   H     0.46082   0.32883   0.11451   0.00000  Uiso   1.00
H674   H     0.78570   0.74849   0.14637   0.00000  Uiso   1.00
H675   H     0.63749   0.11934   0.22921   0.00000  Uiso   1.00
H676   H     0.50806   0.07176   0.26294   0.00000  Uiso   1.00
H677   H     0.63207   0.28675   0.20767   0.00000  Uiso   1.00
H678   H     0.78614   0.01154   0.22279   0.00000  Uiso   1.00
H679   H     0.34279   0.00016   0.29122   0.00000  Uiso   1.00
H680   H     0.60432   0.45347   0.17468   0.00000  Uiso   1.00
H681   H     0.92920   0.87312   0.20655   0.00000  Uiso   1.00
O682   O     0.18285   0.90395   0.28205   0.00000  Uiso   1.00
O683   O     0.52598   0.49866   0.12916   0.00000  Uiso   1.00
O684   O     0.95222   0.73726   0.17096   0.00000  Uiso   1.00
N685   N     0.25083   0.91137   0.24058   0.00000  Uiso   1.00
N686   N     0.49533   0.33519   0.13163   0.00000  Uiso   1.00
N687   N     0.79908   0.79263   0.16141   0.00000  Uiso   1.00
N688   N     0.32805   0.97844   0.27296   0.00000  Uiso   1.00
N689   N     0.57255   0.40225   0.16400   0.00000  Uiso   1.00
N690   N     0.87630   0.85970   0.19379   0.00000  Uiso   1.00
C691   C     0.22995   0.71450   0.92509   0.00000  Uiso   1.00
C692   C     0.22057   0.76658   0.95109   0.00000  Uiso   1.00
C693   C     0.17601   0.85399   0.95492   0.00000  Uiso   1.00
C694   C     0.17501   0.88966   0.98018   0.00000  Uiso   1.00
C695   C     0.15409   0.97816   0.01739   0.00000  Uiso   1.00
C696   C     0.33655   0.69775   0.92107   0.00000  Uiso   1.00
C697   C     0.38948   0.72727   0.89965   0.00000  Uiso   1.00
C698   C     0.48610   0.70499   0.89964   0.00000  Uiso   1.00
C699   C     0.64521   0.68655   0.89024   0.00000  Uiso   1.00
C700   C     0.18583   0.61608   0.92921   0.00000  Uiso   1.00
C701   C     0.11206   0.57693   0.91463   0.00000  Uiso   1.00
C702   C     0.08181   0.48588   0.92148   0.00000  Uiso   1.00
C703   C     0.00692   0.34065   0.92472   0.00000  Uiso   1.00
C704   C     0.30742   0.62242   0.96316   0.00000  Uiso   1.00
C705   C     0.26266   0.71656   0.97176   0.00000  Uiso   1.00
C706   C     0.26172   0.75211   0.99703   0.00000  Uiso   1.00
C707   C     0.21716   0.83956   0.00089   0.00000  Uiso   1.00
C708   C     0.37863   0.64773   0.94174   0.00000  Uiso   1.00
C709   C     0.47519   0.62539   0.94176   0.00000  Uiso   1.00
C710   C     0.52826   0.65488   0.92035   0.00000  Uiso   1.00
C711   C     0.22791   0.56607   0.94988   0.00000  Uiso   1.00
C712   C     0.19777   0.47506   0.95675   0.00000  Uiso   1.00
C713   C     0.12397   0.43577   0.94219   0.00000  Uiso   1.00
H714   H     0.19720   0.75344   0.90900   0.00000  Uiso   1.00
H715   H     0.14346   0.89268   0.93891   0.00000  Uiso   1.00
H716   H     0.35689   0.76597   0.88365   0.00000  Uiso   1.00
H717   H     0.07952   0.61565   0.89864   0.00000  Uiso   1.00
H718   H     0.10247   0.02501   0.98119   0.00000  Uiso   1.00
H719   H     0.55250   0.75780   0.86467   0.00000  Uiso   1.00
H720   H     0.96760   0.44084   0.89627   0.00000  Uiso   1.00
H721   H     0.34019   0.58348   0.97925   0.00000  Uiso   1.00
H722   H     0.29429   0.71339   0.01302   0.00000  Uiso   1.00
H723   H     0.50773   0.58668   0.95776   0.00000  Uiso   1.00
H724   H     0.23035   0.43637   0.97275   0.00000  Uiso   1.00
H725   H     0.22489   0.87950   0.04134   0.00000  Uiso   1.00
H726   H     0.67493   0.61229   0.92482   0.00000  Uiso   1.00
H727   H     0.09003   0.29533   0.95642   0.00000  Uiso   1.00
O728   O     0.13094   0.04079   0.03221   0.00000  Uiso   1.00
O729   O     0.72135   0.69021   0.87934   0.00000  Uiso   1.00
O730   O     0.95398   0.27437   0.92079   0.00000  Uiso   1.00
N731   N     0.13756   0.97292   0.99071   0.00000  Uiso   1.00
N732   N     0.55832   0.72312   0.88178   0.00000  Uiso   1.00
N733   N     0.01150   0.42677   0.91131   0.00000  Uiso   1.00
N734   N     0.20344   0.89462   0.02308   0.00000  Uiso   1.00
N735   N     0.62419   0.64482   0.91414   0.00000  Uiso   1.00
N736   N     0.07738   0.34847   0.94368   0.00000  Uiso   1.00
