data_job_05854
_audit_creation_date              2018-12-19
_audit_creation_method            'Materials Studio'
_symmetry_space_group_name_H-M    'P1'
_symmetry_Int_Tables_number       1
_symmetry_cell_setting            triclinic
loop_
_symmetry_equiv_pos_as_xyz
  x,y,z
_cell_length_a                    23.9141
_cell_length_b                    23.9141
_cell_length_c                    16.7794
_cell_angle_alpha                 90.0000
_cell_angle_beta                  90.0000
_cell_angle_gamma                 90.0000
loop_
_atom_site_label
_atom_site_type_symbol
_atom_site_fract_x
_atom_site_fract_y
_atom_site_fract_z
_atom_site_U_iso_or_equiv
_atom_site_adp_type
_atom_site_occupancy
C1     C     0.07871   0.29972   0.83423   0.00000  Uiso   1.00
C2     C     0.04945   0.24948   0.79691   0.00000  Uiso   1.00
C3     C     0.00521   0.25177   0.74348   0.00000  Uiso   1.00
C4     C     0.98425   0.20112   0.71621   0.00000  Uiso   1.00
C5     C     0.93538   0.13087   0.65444   0.00000  Uiso   1.00
C6     C     0.07458   0.29159   0.92417   0.00000  Uiso   1.00
C7     C     0.05148   0.32928   0.97776   0.00000  Uiso   1.00
C8     C     0.05169   0.31408   0.05762   0.00000  Uiso   1.00
C9     C     0.04187   0.30922   0.19344   0.00000  Uiso   1.00
C10    C     0.14050   0.29368   0.81352   0.00000  Uiso   1.00
C11    C     0.17283   0.33314   0.77407   0.00000  Uiso   1.00
C12    C     0.22854   0.31970   0.76078   0.00000  Uiso   1.00
C13    C     0.32107   0.31809   0.72479   0.00000  Uiso   1.00
C14    C     0.12017   0.20571   0.88078   0.00000  Uiso   1.00
C15    C     0.07197   0.19842   0.82220   0.00000  Uiso   1.00
C16    C     0.05107   0.14775   0.79499   0.00000  Uiso   1.00
C17    C     0.00681   0.14996   0.74154   0.00000  Uiso   1.00
C18    C     0.09710   0.24052   0.94946   0.00000  Uiso   1.00
C19    C     0.09734   0.22527   0.02926   0.00000  Uiso   1.00
C20    C     0.07424   0.26292   0.08295   0.00000  Uiso   1.00
C21    C     0.16302   0.24261   0.83880   0.00000  Uiso   1.00
C22    C     0.21869   0.22912   0.82558   0.00000  Uiso   1.00
C23    C     0.25110   0.26855   0.78612   0.00000  Uiso   1.00
H24    H     0.06118   0.33948   0.81455   0.00000  Uiso   1.00
H25    H     0.98779   0.29129   0.72393   0.00000  Uiso   1.00
H26    H     0.03406   0.36880   0.95817   0.00000  Uiso   1.00
H27    H     0.15539   0.37265   0.75451   0.00000  Uiso   1.00
H28    H     0.91634   0.21535   0.63465   0.00000  Uiso   1.00
H29    H     0.01392   0.37878   0.12855   0.00000  Uiso   1.00
H30    H     0.26977   0.38690   0.69910   0.00000  Uiso   1.00
H31    H     0.13770   0.16595   0.90047   0.00000  Uiso   1.00
H32    H     0.06851   0.10824   0.81457   0.00000  Uiso   1.00
H33    H     0.11478   0.18575   0.04881   0.00000  Uiso   1.00
H34    H     0.23610   0.18960   0.84515   0.00000  Uiso   1.00
H35    H     0.98185   0.06678   0.70822   0.00000  Uiso   1.00
H36    H     0.07943   0.23021   0.20212   0.00000  Uiso   1.00
H37    H     0.33528   0.23833   0.77267   0.00000  Uiso   1.00
O38    O     0.90219   0.10623   0.61339   0.00000  Uiso   1.00
O39    O     0.03022   0.32065   0.26137   0.00000  Uiso   1.00
O40    O     0.36588   0.33130   0.69794   0.00000  Uiso   1.00
N41    N     0.94126   0.18830   0.66374   0.00000  Uiso   1.00
N42    N     0.03249   0.34110   0.12551   0.00000  Uiso   1.00
N43    N     0.27168   0.34870   0.72403   0.00000  Uiso   1.00
N44    N     0.97652   0.10836   0.70332   0.00000  Uiso   1.00
N45    N     0.06774   0.26115   0.16509   0.00000  Uiso   1.00
N46    N     0.30693   0.26875   0.76361   0.00000  Uiso   1.00
C47    C     0.57871   0.79972   0.33423   0.00000  Uiso   1.00
C48    C     0.54945   0.74948   0.29691   0.00000  Uiso   1.00
C49    C     0.50521   0.75177   0.24348   0.00000  Uiso   1.00
C50    C     0.48425   0.70112   0.21621   0.00000  Uiso   1.00
C51    C     0.43538   0.63087   0.15444   0.00000  Uiso   1.00
C52    C     0.57458   0.79159   0.42417   0.00000  Uiso   1.00
C53    C     0.55148   0.82928   0.47776   0.00000  Uiso   1.00
C54    C     0.55169   0.81408   0.55762   0.00000  Uiso   1.00
C55    C     0.54187   0.80922   0.69344   0.00000  Uiso   1.00
C56    C     0.64050   0.79368   0.31352   0.00000  Uiso   1.00
C57    C     0.67283   0.83314   0.27407   0.00000  Uiso   1.00
C58    C     0.72854   0.81970   0.26078   0.00000  Uiso   1.00
C59    C     0.82107   0.81809   0.22479   0.00000  Uiso   1.00
C60    C     0.62017   0.70571   0.38078   0.00000  Uiso   1.00
C61    C     0.57197   0.69842   0.32220   0.00000  Uiso   1.00
C62    C     0.55107   0.64775   0.29499   0.00000  Uiso   1.00
C63    C     0.50681   0.64996   0.24154   0.00000  Uiso   1.00
C64    C     0.59710   0.74052   0.44946   0.00000  Uiso   1.00
C65    C     0.59734   0.72527   0.52926   0.00000  Uiso   1.00
C66    C     0.57424   0.76292   0.58295   0.00000  Uiso   1.00
C67    C     0.66302   0.74261   0.33880   0.00000  Uiso   1.00
C68    C     0.71869   0.72912   0.32558   0.00000  Uiso   1.00
C69    C     0.75110   0.76855   0.28612   0.00000  Uiso   1.00
H70    H     0.56118   0.83948   0.31455   0.00000  Uiso   1.00
H71    H     0.48779   0.79129   0.22393   0.00000  Uiso   1.00
H72    H     0.53406   0.86880   0.45817   0.00000  Uiso   1.00
H73    H     0.65539   0.87265   0.25451   0.00000  Uiso   1.00
H74    H     0.41634   0.71535   0.13465   0.00000  Uiso   1.00
H75    H     0.51392   0.87878   0.62855   0.00000  Uiso   1.00
H76    H     0.76977   0.88690   0.19910   0.00000  Uiso   1.00
H77    H     0.63770   0.66595   0.40047   0.00000  Uiso   1.00
H78    H     0.56851   0.60824   0.31457   0.00000  Uiso   1.00
H79    H     0.61478   0.68575   0.54881   0.00000  Uiso   1.00
H80    H     0.73610   0.68960   0.34515   0.00000  Uiso   1.00
H81    H     0.48185   0.56678   0.20822   0.00000  Uiso   1.00
H82    H     0.57943   0.73021   0.70212   0.00000  Uiso   1.00
H83    H     0.83528   0.73833   0.27267   0.00000  Uiso   1.00
O84    O     0.40219   0.60623   0.11339   0.00000  Uiso   1.00
O85    O     0.53022   0.82065   0.76137   0.00000  Uiso   1.00
O86    O     0.86588   0.83130   0.19794   0.00000  Uiso   1.00
N87    N     0.44126   0.68830   0.16374   0.00000  Uiso   1.00
N88    N     0.53249   0.84110   0.62551   0.00000  Uiso   1.00
N89    N     0.77168   0.84870   0.22403   0.00000  Uiso   1.00
N90    N     0.47652   0.60836   0.20332   0.00000  Uiso   1.00
N91    N     0.56774   0.76115   0.66509   0.00000  Uiso   1.00
N92    N     0.80693   0.76875   0.26361   0.00000  Uiso   1.00
C93    C     0.42129   0.20028   0.33423   0.00000  Uiso   1.00
C94    C     0.45055   0.25052   0.29691   0.00000  Uiso   1.00
C95    C     0.49479   0.24823   0.24348   0.00000  Uiso   1.00
C96    C     0.51575   0.29888   0.21621   0.00000  Uiso   1.00
C97    C     0.56462   0.36913   0.15444   0.00000  Uiso   1.00
C98    C     0.42542   0.20841   0.42417   0.00000  Uiso   1.00
C99    C     0.44852   0.17072   0.47776   0.00000  Uiso   1.00
C100   C     0.44831   0.18592   0.55762   0.00000  Uiso   1.00
C101   C     0.45813   0.19078   0.69344   0.00000  Uiso   1.00
C102   C     0.35950   0.20632   0.31352   0.00000  Uiso   1.00
C103   C     0.32717   0.16686   0.27407   0.00000  Uiso   1.00
C104   C     0.27146   0.18030   0.26078   0.00000  Uiso   1.00
C105   C     0.17893   0.18191   0.22479   0.00000  Uiso   1.00
C106   C     0.37983   0.29429   0.38078   0.00000  Uiso   1.00
C107   C     0.42803   0.30158   0.32220   0.00000  Uiso   1.00
C108   C     0.44893   0.35225   0.29499   0.00000  Uiso   1.00
C109   C     0.49319   0.35004   0.24154   0.00000  Uiso   1.00
C110   C     0.40290   0.25948   0.44946   0.00000  Uiso   1.00
C111   C     0.40266   0.27473   0.52926   0.00000  Uiso   1.00
C112   C     0.42576   0.23708   0.58295   0.00000  Uiso   1.00
C113   C     0.33698   0.25739   0.33880   0.00000  Uiso   1.00
C114   C     0.28131   0.27088   0.32558   0.00000  Uiso   1.00
C115   C     0.24890   0.23145   0.28612   0.00000  Uiso   1.00
H116   H     0.43882   0.16052   0.31455   0.00000  Uiso   1.00
H117   H     0.51221   0.20871   0.22393   0.00000  Uiso   1.00
H118   H     0.46594   0.13120   0.45817   0.00000  Uiso   1.00
H119   H     0.34461   0.12735   0.25451   0.00000  Uiso   1.00
H120   H     0.58366   0.28465   0.13465   0.00000  Uiso   1.00
H121   H     0.48608   0.12122   0.62855   0.00000  Uiso   1.00
H122   H     0.23023   0.11310   0.19910   0.00000  Uiso   1.00
H123   H     0.36230   0.33405   0.40047   0.00000  Uiso   1.00
H124   H     0.43149   0.39176   0.31457   0.00000  Uiso   1.00
H125   H     0.38522   0.31425   0.54881   0.00000  Uiso   1.00
H126   H     0.26390   0.31040   0.34515   0.00000  Uiso   1.00
H127   H     0.51815   0.43322   0.20822   0.00000  Uiso   1.00
H128   H     0.42057   0.26979   0.70212   0.00000  Uiso   1.00
H129   H     0.16472   0.26167   0.27267   0.00000  Uiso   1.00
O130   O     0.59781   0.39377   0.11339   0.00000  Uiso   1.00
O131   O     0.46978   0.17935   0.76137   0.00000  Uiso   1.00
O132   O     0.13412   0.16870   0.19794   0.00000  Uiso   1.00
N133   N     0.55874   0.31170   0.16374   0.00000  Uiso   1.00
N134   N     0.46751   0.15890   0.62551   0.00000  Uiso   1.00
N135   N     0.22832   0.15130   0.22403   0.00000  Uiso   1.00
N136   N     0.52348   0.39164   0.20332   0.00000  Uiso   1.00
N137   N     0.43226   0.23885   0.66509   0.00000  Uiso   1.00
N138   N     0.19307   0.23125   0.26361   0.00000  Uiso   1.00
C139   C     0.92129   0.70028   0.83423   0.00000  Uiso   1.00
C140   C     0.95055   0.75052   0.79691   0.00000  Uiso   1.00
C141   C     0.99479   0.74823   0.74348   0.00000  Uiso   1.00
C142   C     0.01575   0.79888   0.71621   0.00000  Uiso   1.00
C143   C     0.06462   0.86913   0.65444   0.00000  Uiso   1.00
C144   C     0.92542   0.70841   0.92417   0.00000  Uiso   1.00
C145   C     0.94852   0.67072   0.97776   0.00000  Uiso   1.00
C146   C     0.94831   0.68592   0.05762   0.00000  Uiso   1.00
C147   C     0.95813   0.69078   0.19344   0.00000  Uiso   1.00
C148   C     0.85950   0.70632   0.81352   0.00000  Uiso   1.00
C149   C     0.82717   0.66686   0.77407   0.00000  Uiso   1.00
C150   C     0.77146   0.68030   0.76078   0.00000  Uiso   1.00
C151   C     0.67893   0.68191   0.72479   0.00000  Uiso   1.00
C152   C     0.87983   0.79429   0.88078   0.00000  Uiso   1.00
C153   C     0.92803   0.80158   0.82220   0.00000  Uiso   1.00
C154   C     0.94893   0.85225   0.79499   0.00000  Uiso   1.00
C155   C     0.99319   0.85004   0.74154   0.00000  Uiso   1.00
C156   C     0.90290   0.75948   0.94946   0.00000  Uiso   1.00
C157   C     0.90266   0.77473   0.02926   0.00000  Uiso   1.00
C158   C     0.92576   0.73708   0.08295   0.00000  Uiso   1.00
C159   C     0.83698   0.75739   0.83880   0.00000  Uiso   1.00
C160   C     0.78131   0.77088   0.82558   0.00000  Uiso   1.00
C161   C     0.74890   0.73145   0.78612   0.00000  Uiso   1.00
H162   H     0.93882   0.66052   0.81455   0.00000  Uiso   1.00
H163   H     0.01221   0.70871   0.72393   0.00000  Uiso   1.00
H164   H     0.96594   0.63120   0.95817   0.00000  Uiso   1.00
H165   H     0.84461   0.62735   0.75451   0.00000  Uiso   1.00
H166   H     0.08366   0.78465   0.63465   0.00000  Uiso   1.00
H167   H     0.98608   0.62122   0.12855   0.00000  Uiso   1.00
H168   H     0.73023   0.61310   0.69910   0.00000  Uiso   1.00
H169   H     0.86230   0.83405   0.90047   0.00000  Uiso   1.00
H170   H     0.93149   0.89176   0.81457   0.00000  Uiso   1.00
H171   H     0.88522   0.81425   0.04881   0.00000  Uiso   1.00
H172   H     0.76390   0.81040   0.84515   0.00000  Uiso   1.00
H173   H     0.01815   0.93322   0.70822   0.00000  Uiso   1.00
H174   H     0.92057   0.76979   0.20212   0.00000  Uiso   1.00
H175   H     0.66472   0.76167   0.77267   0.00000  Uiso   1.00
O176   O     0.09781   0.89377   0.61339   0.00000  Uiso   1.00
O177   O     0.96978   0.67935   0.26137   0.00000  Uiso   1.00
O178   O     0.63412   0.66870   0.69794   0.00000  Uiso   1.00
N179   N     0.05874   0.81170   0.66374   0.00000  Uiso   1.00
N180   N     0.96751   0.65890   0.12551   0.00000  Uiso   1.00
N181   N     0.72832   0.65130   0.72403   0.00000  Uiso   1.00
N182   N     0.02348   0.89164   0.70332   0.00000  Uiso   1.00
N183   N     0.93226   0.73885   0.16509   0.00000  Uiso   1.00
N184   N     0.69307   0.73125   0.76361   0.00000  Uiso   1.00
C185   C     0.70028   0.57871   0.08423   0.00000  Uiso   1.00
C186   C     0.75052   0.54945   0.04691   0.00000  Uiso   1.00
C187   C     0.74823   0.50521   0.99348   0.00000  Uiso   1.00
C188   C     0.79888   0.48425   0.96621   0.00000  Uiso   1.00
C189   C     0.86913   0.43538   0.90444   0.00000  Uiso   1.00
C190   C     0.70841   0.57458   0.17417   0.00000  Uiso   1.00
C191   C     0.67072   0.55148   0.22776   0.00000  Uiso   1.00
C192   C     0.68592   0.55169   0.30762   0.00000  Uiso   1.00
C193   C     0.69078   0.54187   0.44344   0.00000  Uiso   1.00
C194   C     0.70632   0.64050   0.06352   0.00000  Uiso   1.00
C195   C     0.66686   0.67283   0.02407   0.00000  Uiso   1.00
C196   C     0.68030   0.72854   0.01078   0.00000  Uiso   1.00
C197   C     0.68191   0.82107   0.97479   0.00000  Uiso   1.00
C198   C     0.79429   0.62017   0.13078   0.00000  Uiso   1.00
C199   C     0.80158   0.57197   0.07220   0.00000  Uiso   1.00
C200   C     0.85225   0.55107   0.04499   0.00000  Uiso   1.00
C201   C     0.85004   0.50681   0.99154   0.00000  Uiso   1.00
C202   C     0.75948   0.59710   0.19946   0.00000  Uiso   1.00
C203   C     0.77473   0.59734   0.27926   0.00000  Uiso   1.00
C204   C     0.73708   0.57424   0.33295   0.00000  Uiso   1.00
C205   C     0.75739   0.66302   0.08880   0.00000  Uiso   1.00
C206   C     0.77088   0.71869   0.07558   0.00000  Uiso   1.00
C207   C     0.73145   0.75110   0.03612   0.00000  Uiso   1.00
H208   H     0.66052   0.56118   0.06455   0.00000  Uiso   1.00
H209   H     0.70871   0.48779   0.97393   0.00000  Uiso   1.00
H210   H     0.63120   0.53406   0.20817   0.00000  Uiso   1.00
H211   H     0.62735   0.65539   0.00451   0.00000  Uiso   1.00
H212   H     0.78465   0.41634   0.88465   0.00000  Uiso   1.00
H213   H     0.62122   0.51392   0.37855   0.00000  Uiso   1.00
H214   H     0.61310   0.76977   0.94910   0.00000  Uiso   1.00
H215   H     0.83405   0.63770   0.15047   0.00000  Uiso   1.00
H216   H     0.89176   0.56851   0.06457   0.00000  Uiso   1.00
H217   H     0.81425   0.61478   0.29881   0.00000  Uiso   1.00
H218   H     0.81040   0.73610   0.09515   0.00000  Uiso   1.00
H219   H     0.93322   0.48185   0.95822   0.00000  Uiso   1.00
H220   H     0.76979   0.57943   0.45212   0.00000  Uiso   1.00
H221   H     0.76167   0.83528   0.02267   0.00000  Uiso   1.00
O222   O     0.89377   0.40219   0.86339   0.00000  Uiso   1.00
O223   O     0.67935   0.53022   0.51137   0.00000  Uiso   1.00
O224   O     0.66870   0.86588   0.94794   0.00000  Uiso   1.00
N225   N     0.81170   0.44126   0.91374   0.00000  Uiso   1.00
N226   N     0.65890   0.53249   0.37551   0.00000  Uiso   1.00
N227   N     0.65130   0.77168   0.97403   0.00000  Uiso   1.00
N228   N     0.89164   0.47652   0.95332   0.00000  Uiso   1.00
N229   N     0.73885   0.56774   0.41509   0.00000  Uiso   1.00
N230   N     0.73125   0.80693   0.01361   0.00000  Uiso   1.00
C231   C     0.20028   0.07871   0.58423   0.00000  Uiso   1.00
C232   C     0.25052   0.04945   0.54691   0.00000  Uiso   1.00
C233   C     0.24823   0.00521   0.49348   0.00000  Uiso   1.00
C234   C     0.29888   0.98425   0.46621   0.00000  Uiso   1.00
C235   C     0.36913   0.93538   0.40444   0.00000  Uiso   1.00
C236   C     0.20841   0.07458   0.67417   0.00000  Uiso   1.00
C237   C     0.17072   0.05148   0.72776   0.00000  Uiso   1.00
C238   C     0.18592   0.05169   0.80762   0.00000  Uiso   1.00
C239   C     0.19078   0.04187   0.94344   0.00000  Uiso   1.00
C240   C     0.20632   0.14050   0.56352   0.00000  Uiso   1.00
C241   C     0.16686   0.17283   0.52407   0.00000  Uiso   1.00
C242   C     0.18030   0.22854   0.51078   0.00000  Uiso   1.00
C243   C     0.18191   0.32107   0.47479   0.00000  Uiso   1.00
C244   C     0.29429   0.12017   0.63078   0.00000  Uiso   1.00
C245   C     0.30158   0.07197   0.57220   0.00000  Uiso   1.00
C246   C     0.35225   0.05107   0.54499   0.00000  Uiso   1.00
C247   C     0.35004   0.00681   0.49154   0.00000  Uiso   1.00
C248   C     0.25948   0.09710   0.69946   0.00000  Uiso   1.00
C249   C     0.27473   0.09734   0.77926   0.00000  Uiso   1.00
C250   C     0.23708   0.07424   0.83295   0.00000  Uiso   1.00
C251   C     0.25739   0.16302   0.58880   0.00000  Uiso   1.00
C252   C     0.27088   0.21869   0.57558   0.00000  Uiso   1.00
C253   C     0.23145   0.25110   0.53612   0.00000  Uiso   1.00
H254   H     0.16052   0.06118   0.56455   0.00000  Uiso   1.00
H255   H     0.20871   0.98779   0.47393   0.00000  Uiso   1.00
H256   H     0.13120   0.03406   0.70817   0.00000  Uiso   1.00
H257   H     0.12735   0.15539   0.50451   0.00000  Uiso   1.00
H258   H     0.28465   0.91634   0.38465   0.00000  Uiso   1.00
H259   H     0.12122   0.01392   0.87855   0.00000  Uiso   1.00
H260   H     0.11310   0.26977   0.44910   0.00000  Uiso   1.00
H261   H     0.33405   0.13770   0.65047   0.00000  Uiso   1.00
H262   H     0.39176   0.06851   0.56457   0.00000  Uiso   1.00
H263   H     0.31425   0.11478   0.79881   0.00000  Uiso   1.00
H264   H     0.31040   0.23610   0.59515   0.00000  Uiso   1.00
H265   H     0.43322   0.98185   0.45822   0.00000  Uiso   1.00
H266   H     0.26979   0.07943   0.95212   0.00000  Uiso   1.00
H267   H     0.26167   0.33528   0.52267   0.00000  Uiso   1.00
O268   O     0.39377   0.90219   0.36339   0.00000  Uiso   1.00
O269   O     0.17935   0.03022   0.01137   0.00000  Uiso   1.00
O270   O     0.16870   0.36588   0.44794   0.00000  Uiso   1.00
N271   N     0.31170   0.94126   0.41374   0.00000  Uiso   1.00
N272   N     0.15890   0.03249   0.87551   0.00000  Uiso   1.00
N273   N     0.15130   0.27168   0.47403   0.00000  Uiso   1.00
N274   N     0.39164   0.97652   0.45332   0.00000  Uiso   1.00
N275   N     0.23885   0.06774   0.91509   0.00000  Uiso   1.00
N276   N     0.23125   0.30693   0.51361   0.00000  Uiso   1.00
C277   C     0.79972   0.92129   0.58423   0.00000  Uiso   1.00
C278   C     0.74948   0.95055   0.54691   0.00000  Uiso   1.00
C279   C     0.75177   0.99479   0.49348   0.00000  Uiso   1.00
C280   C     0.70112   0.01575   0.46621   0.00000  Uiso   1.00
C281   C     0.63087   0.06462   0.40444   0.00000  Uiso   1.00
C282   C     0.79159   0.92542   0.67417   0.00000  Uiso   1.00
C283   C     0.82928   0.94852   0.72776   0.00000  Uiso   1.00
C284   C     0.81408   0.94831   0.80762   0.00000  Uiso   1.00
C285   C     0.80922   0.95813   0.94344   0.00000  Uiso   1.00
C286   C     0.79368   0.85950   0.56352   0.00000  Uiso   1.00
C287   C     0.83314   0.82717   0.52407   0.00000  Uiso   1.00
C288   C     0.81970   0.77146   0.51078   0.00000  Uiso   1.00
C289   C     0.81809   0.67893   0.47479   0.00000  Uiso   1.00
C290   C     0.70571   0.87983   0.63078   0.00000  Uiso   1.00
C291   C     0.69842   0.92803   0.57220   0.00000  Uiso   1.00
C292   C     0.64775   0.94893   0.54499   0.00000  Uiso   1.00
C293   C     0.64996   0.99319   0.49154   0.00000  Uiso   1.00
C294   C     0.74052   0.90290   0.69946   0.00000  Uiso   1.00
C295   C     0.72527   0.90266   0.77926   0.00000  Uiso   1.00
C296   C     0.76292   0.92576   0.83295   0.00000  Uiso   1.00
C297   C     0.74261   0.83698   0.58880   0.00000  Uiso   1.00
C298   C     0.72912   0.78131   0.57558   0.00000  Uiso   1.00
C299   C     0.76855   0.74890   0.53612   0.00000  Uiso   1.00
H300   H     0.83948   0.93882   0.56455   0.00000  Uiso   1.00
H301   H     0.79129   0.01221   0.47393   0.00000  Uiso   1.00
H302   H     0.86880   0.96594   0.70817   0.00000  Uiso   1.00
H303   H     0.87265   0.84461   0.50451   0.00000  Uiso   1.00
H304   H     0.71535   0.08366   0.38465   0.00000  Uiso   1.00
H305   H     0.87878   0.98608   0.87855   0.00000  Uiso   1.00
H306   H     0.88690   0.73023   0.44910   0.00000  Uiso   1.00
H307   H     0.66595   0.86230   0.65047   0.00000  Uiso   1.00
H308   H     0.60824   0.93149   0.56457   0.00000  Uiso   1.00
H309   H     0.68575   0.88522   0.79881   0.00000  Uiso   1.00
H310   H     0.68960   0.76390   0.59515   0.00000  Uiso   1.00
H311   H     0.56678   0.01815   0.45822   0.00000  Uiso   1.00
H312   H     0.73021   0.92057   0.95212   0.00000  Uiso   1.00
H313   H     0.73833   0.66472   0.52267   0.00000  Uiso   1.00
O314   O     0.60623   0.09781   0.36339   0.00000  Uiso   1.00
O315   O     0.82065   0.96978   0.01137   0.00000  Uiso   1.00
O316   O     0.83130   0.63412   0.44794   0.00000  Uiso   1.00
N317   N     0.68830   0.05874   0.41374   0.00000  Uiso   1.00
N318   N     0.84110   0.96751   0.87551   0.00000  Uiso   1.00
N319   N     0.84870   0.72832   0.47403   0.00000  Uiso   1.00
N320   N     0.60836   0.02348   0.45332   0.00000  Uiso   1.00
N321   N     0.76115   0.93226   0.91509   0.00000  Uiso   1.00
N322   N     0.76875   0.69307   0.51361   0.00000  Uiso   1.00
C323   C     0.29972   0.42129   0.08423   0.00000  Uiso   1.00
C324   C     0.24948   0.45055   0.04691   0.00000  Uiso   1.00
C325   C     0.25177   0.49479   0.99348   0.00000  Uiso   1.00
C326   C     0.20112   0.51575   0.96621   0.00000  Uiso   1.00
C327   C     0.13087   0.56462   0.90444   0.00000  Uiso   1.00
C328   C     0.29159   0.42542   0.17417   0.00000  Uiso   1.00
C329   C     0.32928   0.44852   0.22776   0.00000  Uiso   1.00
C330   C     0.31408   0.44831   0.30762   0.00000  Uiso   1.00
C331   C     0.30922   0.45813   0.44344   0.00000  Uiso   1.00
C332   C     0.29368   0.35950   0.06352   0.00000  Uiso   1.00
C333   C     0.33314   0.32717   0.02407   0.00000  Uiso   1.00
C334   C     0.31970   0.27146   0.01078   0.00000  Uiso   1.00
C335   C     0.31809   0.17893   0.97479   0.00000  Uiso   1.00
C336   C     0.20571   0.37983   0.13078   0.00000  Uiso   1.00
C337   C     0.19842   0.42803   0.07220   0.00000  Uiso   1.00
C338   C     0.14775   0.44893   0.04499   0.00000  Uiso   1.00
C339   C     0.14996   0.49319   0.99154   0.00000  Uiso   1.00
C340   C     0.24052   0.40290   0.19946   0.00000  Uiso   1.00
C341   C     0.22527   0.40266   0.27926   0.00000  Uiso   1.00
C342   C     0.26292   0.42576   0.33295   0.00000  Uiso   1.00
C343   C     0.24261   0.33698   0.08880   0.00000  Uiso   1.00
C344   C     0.22912   0.28131   0.07558   0.00000  Uiso   1.00
C345   C     0.26855   0.24890   0.03612   0.00000  Uiso   1.00
H346   H     0.33948   0.43882   0.06455   0.00000  Uiso   1.00
H347   H     0.29129   0.51221   0.97393   0.00000  Uiso   1.00
H348   H     0.36880   0.46594   0.20817   0.00000  Uiso   1.00
H349   H     0.37265   0.34461   0.00451   0.00000  Uiso   1.00
H350   H     0.21535   0.58366   0.88465   0.00000  Uiso   1.00
H351   H     0.37878   0.48608   0.37855   0.00000  Uiso   1.00
H352   H     0.38690   0.23023   0.94910   0.00000  Uiso   1.00
H353   H     0.16595   0.36230   0.15047   0.00000  Uiso   1.00
H354   H     0.10824   0.43149   0.06457   0.00000  Uiso   1.00
H355   H     0.18575   0.38522   0.29881   0.00000  Uiso   1.00
H356   H     0.18960   0.26390   0.09515   0.00000  Uiso   1.00
H357   H     0.06678   0.51815   0.95822   0.00000  Uiso   1.00
H358   H     0.23021   0.42057   0.45212   0.00000  Uiso   1.00
H359   H     0.23833   0.16472   0.02267   0.00000  Uiso   1.00
O360   O     0.10623   0.59781   0.86339   0.00000  Uiso   1.00
O361   O     0.32065   0.46978   0.51137   0.00000  Uiso   1.00
O362   O     0.33130   0.13412   0.94794   0.00000  Uiso   1.00
N363   N     0.18830   0.55874   0.91374   0.00000  Uiso   1.00
N364   N     0.34110   0.46751   0.37551   0.00000  Uiso   1.00
N365   N     0.34870   0.22832   0.97403   0.00000  Uiso   1.00
N366   N     0.10836   0.52348   0.95332   0.00000  Uiso   1.00
N367   N     0.26115   0.43226   0.41509   0.00000  Uiso   1.00
N368   N     0.26875   0.19307   0.01361   0.00000  Uiso   1.00
C369   C     0.92129   0.20028   0.41577   0.00000  Uiso   1.00
C370   C     0.95055   0.25052   0.45309   0.00000  Uiso   1.00
C371   C     0.99479   0.24823   0.50652   0.00000  Uiso   1.00
C372   C     0.01575   0.29888   0.53379   0.00000  Uiso   1.00
C373   C     0.06462   0.36913   0.59556   0.00000  Uiso   1.00
C374   C     0.92542   0.20841   0.32583   0.00000  Uiso   1.00
C375   C     0.94852   0.17072   0.27224   0.00000  Uiso   1.00
C376   C     0.94831   0.18592   0.19238   0.00000  Uiso   1.00
C377   C     0.95813   0.19078   0.05656   0.00000  Uiso   1.00
C378   C     0.85950   0.20632   0.43648   0.00000  Uiso   1.00
C379   C     0.82717   0.16686   0.47593   0.00000  Uiso   1.00
C380   C     0.77146   0.18030   0.48922   0.00000  Uiso   1.00
C381   C     0.67893   0.18191   0.52521   0.00000  Uiso   1.00
C382   C     0.87983   0.29429   0.36922   0.00000  Uiso   1.00
C383   C     0.92803   0.30158   0.42780   0.00000  Uiso   1.00
C384   C     0.94893   0.35225   0.45501   0.00000  Uiso   1.00
C385   C     0.99319   0.35004   0.50846   0.00000  Uiso   1.00
C386   C     0.90290   0.25948   0.30054   0.00000  Uiso   1.00
C387   C     0.90266   0.27473   0.22074   0.00000  Uiso   1.00
C388   C     0.92576   0.23708   0.16705   0.00000  Uiso   1.00
C389   C     0.83698   0.25739   0.41120   0.00000  Uiso   1.00
C390   C     0.78131   0.27088   0.42442   0.00000  Uiso   1.00
C391   C     0.74890   0.23145   0.46388   0.00000  Uiso   1.00
H392   H     0.93882   0.16052   0.43545   0.00000  Uiso   1.00
H393   H     0.01221   0.20871   0.52607   0.00000  Uiso   1.00
H394   H     0.96594   0.13120   0.29183   0.00000  Uiso   1.00
H395   H     0.84461   0.12735   0.49549   0.00000  Uiso   1.00
H396   H     0.08366   0.28465   0.61535   0.00000  Uiso   1.00
H397   H     0.98608   0.12122   0.12145   0.00000  Uiso   1.00
H398   H     0.73023   0.11310   0.55090   0.00000  Uiso   1.00
H399   H     0.86230   0.33405   0.34953   0.00000  Uiso   1.00
H400   H     0.93149   0.39176   0.43543   0.00000  Uiso   1.00
H401   H     0.88522   0.31425   0.20119   0.00000  Uiso   1.00
H402   H     0.76390   0.31040   0.40485   0.00000  Uiso   1.00
H403   H     0.01815   0.43322   0.54178   0.00000  Uiso   1.00
H404   H     0.92057   0.26979   0.04788   0.00000  Uiso   1.00
H405   H     0.66472   0.26167   0.47733   0.00000  Uiso   1.00
O406   O     0.09781   0.39377   0.63661   0.00000  Uiso   1.00
O407   O     0.96978   0.17935   0.98863   0.00000  Uiso   1.00
O408   O     0.63412   0.16870   0.55206   0.00000  Uiso   1.00
N409   N     0.05874   0.31170   0.58626   0.00000  Uiso   1.00
N410   N     0.96751   0.15890   0.12449   0.00000  Uiso   1.00
N411   N     0.72832   0.15130   0.52597   0.00000  Uiso   1.00
N412   N     0.02348   0.39164   0.54668   0.00000  Uiso   1.00
N413   N     0.93226   0.23885   0.08491   0.00000  Uiso   1.00
N414   N     0.69307   0.23125   0.48639   0.00000  Uiso   1.00
C415   C     0.42129   0.70028   0.91577   0.00000  Uiso   1.00
C416   C     0.45055   0.75052   0.95309   0.00000  Uiso   1.00
C417   C     0.49479   0.74823   0.00652   0.00000  Uiso   1.00
C418   C     0.51575   0.79888   0.03379   0.00000  Uiso   1.00
C419   C     0.56462   0.86913   0.09556   0.00000  Uiso   1.00
C420   C     0.42542   0.70841   0.82583   0.00000  Uiso   1.00
C421   C     0.44852   0.67072   0.77224   0.00000  Uiso   1.00
C422   C     0.44831   0.68592   0.69238   0.00000  Uiso   1.00
C423   C     0.45813   0.69078   0.55656   0.00000  Uiso   1.00
C424   C     0.35950   0.70632   0.93648   0.00000  Uiso   1.00
C425   C     0.32717   0.66686   0.97593   0.00000  Uiso   1.00
C426   C     0.27146   0.68030   0.98922   0.00000  Uiso   1.00
C427   C     0.17893   0.68191   0.02521   0.00000  Uiso   1.00
C428   C     0.37983   0.79429   0.86922   0.00000  Uiso   1.00
C429   C     0.42803   0.80158   0.92780   0.00000  Uiso   1.00
C430   C     0.44893   0.85225   0.95501   0.00000  Uiso   1.00
C431   C     0.49319   0.85004   0.00846   0.00000  Uiso   1.00
C432   C     0.40290   0.75948   0.80054   0.00000  Uiso   1.00
C433   C     0.40266   0.77473   0.72074   0.00000  Uiso   1.00
C434   C     0.42576   0.73708   0.66705   0.00000  Uiso   1.00
C435   C     0.33698   0.75739   0.91120   0.00000  Uiso   1.00
C436   C     0.28131   0.77088   0.92442   0.00000  Uiso   1.00
C437   C     0.24890   0.73145   0.96388   0.00000  Uiso   1.00
H438   H     0.43882   0.66052   0.93545   0.00000  Uiso   1.00
H439   H     0.51221   0.70871   0.02607   0.00000  Uiso   1.00
H440   H     0.46594   0.63120   0.79183   0.00000  Uiso   1.00
H441   H     0.34461   0.62735   0.99549   0.00000  Uiso   1.00
H442   H     0.58366   0.78465   0.11535   0.00000  Uiso   1.00
H443   H     0.48608   0.62122   0.62145   0.00000  Uiso   1.00
H444   H     0.23023   0.61310   0.05090   0.00000  Uiso   1.00
H445   H     0.36230   0.83405   0.84953   0.00000  Uiso   1.00
H446   H     0.43149   0.89176   0.93543   0.00000  Uiso   1.00
H447   H     0.38522   0.81425   0.70119   0.00000  Uiso   1.00
H448   H     0.26390   0.81040   0.90485   0.00000  Uiso   1.00
H449   H     0.51815   0.93322   0.04178   0.00000  Uiso   1.00
H450   H     0.42057   0.76979   0.54788   0.00000  Uiso   1.00
H451   H     0.16472   0.76167   0.97733   0.00000  Uiso   1.00
O452   O     0.59781   0.89377   0.13661   0.00000  Uiso   1.00
O453   O     0.46978   0.67935   0.48863   0.00000  Uiso   1.00
O454   O     0.13412   0.66870   0.05206   0.00000  Uiso   1.00
N455   N     0.55874   0.81170   0.08626   0.00000  Uiso   1.00
N456   N     0.46751   0.65890   0.62449   0.00000  Uiso   1.00
N457   N     0.22832   0.65130   0.02597   0.00000  Uiso   1.00
N458   N     0.52348   0.89164   0.04668   0.00000  Uiso   1.00
N459   N     0.43226   0.73885   0.58491   0.00000  Uiso   1.00
N460   N     0.19307   0.73125   0.98639   0.00000  Uiso   1.00
C461   C     0.57871   0.29972   0.91577   0.00000  Uiso   1.00
C462   C     0.54945   0.24948   0.95309   0.00000  Uiso   1.00
C463   C     0.50521   0.25177   0.00652   0.00000  Uiso   1.00
C464   C     0.48425   0.20112   0.03379   0.00000  Uiso   1.00
C465   C     0.43538   0.13087   0.09556   0.00000  Uiso   1.00
C466   C     0.57458   0.29159   0.82583   0.00000  Uiso   1.00
C467   C     0.55148   0.32928   0.77224   0.00000  Uiso   1.00
C468   C     0.55169   0.31408   0.69238   0.00000  Uiso   1.00
C469   C     0.54187   0.30922   0.55656   0.00000  Uiso   1.00
C470   C     0.64050   0.29368   0.93648   0.00000  Uiso   1.00
C471   C     0.67283   0.33314   0.97593   0.00000  Uiso   1.00
C472   C     0.72854   0.31970   0.98922   0.00000  Uiso   1.00
C473   C     0.82107   0.31809   0.02521   0.00000  Uiso   1.00
C474   C     0.62017   0.20571   0.86922   0.00000  Uiso   1.00
C475   C     0.57197   0.19842   0.92780   0.00000  Uiso   1.00
C476   C     0.55107   0.14775   0.95501   0.00000  Uiso   1.00
C477   C     0.50681   0.14996   0.00846   0.00000  Uiso   1.00
C478   C     0.59710   0.24052   0.80054   0.00000  Uiso   1.00
C479   C     0.59734   0.22527   0.72074   0.00000  Uiso   1.00
C480   C     0.57424   0.26292   0.66705   0.00000  Uiso   1.00
C481   C     0.66302   0.24261   0.91120   0.00000  Uiso   1.00
C482   C     0.71869   0.22912   0.92442   0.00000  Uiso   1.00
C483   C     0.75110   0.26855   0.96388   0.00000  Uiso   1.00
H484   H     0.56118   0.33948   0.93545   0.00000  Uiso   1.00
H485   H     0.48779   0.29129   0.02607   0.00000  Uiso   1.00
H486   H     0.53406   0.36880   0.79183   0.00000  Uiso   1.00
H487   H     0.65539   0.37265   0.99549   0.00000  Uiso   1.00
H488   H     0.41634   0.21535   0.11535   0.00000  Uiso   1.00
H489   H     0.51392   0.37878   0.62145   0.00000  Uiso   1.00
H490   H     0.76977   0.38690   0.05090   0.00000  Uiso   1.00
H491   H     0.63770   0.16595   0.84953   0.00000  Uiso   1.00
H492   H     0.56851   0.10824   0.93543   0.00000  Uiso   1.00
H493   H     0.61478   0.18575   0.70119   0.00000  Uiso   1.00
H494   H     0.73610   0.18960   0.90485   0.00000  Uiso   1.00
H495   H     0.48185   0.06678   0.04178   0.00000  Uiso   1.00
H496   H     0.57943   0.23021   0.54788   0.00000  Uiso   1.00
H497   H     0.83528   0.23833   0.97733   0.00000  Uiso   1.00
O498   O     0.40219   0.10623   0.13661   0.00000  Uiso   1.00
O499   O     0.53022   0.32065   0.48863   0.00000  Uiso   1.00
O500   O     0.86588   0.33130   0.05206   0.00000  Uiso   1.00
N501   N     0.44126   0.18830   0.08626   0.00000  Uiso   1.00
N502   N     0.53249   0.34110   0.62449   0.00000  Uiso   1.00
N503   N     0.77168   0.34870   0.02597   0.00000  Uiso   1.00
N504   N     0.47652   0.10836   0.04668   0.00000  Uiso   1.00
N505   N     0.56774   0.26115   0.58491   0.00000  Uiso   1.00
N506   N     0.80693   0.26875   0.98639   0.00000  Uiso   1.00
C507   C     0.07871   0.79972   0.41577   0.00000  Uiso   1.00
C508   C     0.04945   0.74948   0.45309   0.00000  Uiso   1.00
C509   C     0.00521   0.75177   0.50652   0.00000  Uiso   1.00
C510   C     0.98425   0.70112   0.53379   0.00000  Uiso   1.00
C511   C     0.93538   0.63087   0.59556   0.00000  Uiso   1.00
C512   C     0.07458   0.79159   0.32583   0.00000  Uiso   1.00
C513   C     0.05148   0.82928   0.27224   0.00000  Uiso   1.00
C514   C     0.05169   0.81408   0.19238   0.00000  Uiso   1.00
C515   C     0.04187   0.80922   0.05656   0.00000  Uiso   1.00
C516   C     0.14050   0.79368   0.43648   0.00000  Uiso   1.00
C517   C     0.17283   0.83314   0.47593   0.00000  Uiso   1.00
C518   C     0.22854   0.81970   0.48922   0.00000  Uiso   1.00
C519   C     0.32107   0.81809   0.52521   0.00000  Uiso   1.00
C520   C     0.12017   0.70571   0.36922   0.00000  Uiso   1.00
C521   C     0.07197   0.69842   0.42780   0.00000  Uiso   1.00
C522   C     0.05107   0.64775   0.45501   0.00000  Uiso   1.00
C523   C     0.00681   0.64996   0.50846   0.00000  Uiso   1.00
C524   C     0.09710   0.74052   0.30054   0.00000  Uiso   1.00
C525   C     0.09734   0.72527   0.22074   0.00000  Uiso   1.00
C526   C     0.07424   0.76292   0.16705   0.00000  Uiso   1.00
C527   C     0.16302   0.74261   0.41120   0.00000  Uiso   1.00
C528   C     0.21869   0.72912   0.42442   0.00000  Uiso   1.00
C529   C     0.25110   0.76855   0.46388   0.00000  Uiso   1.00
H530   H     0.06118   0.83948   0.43545   0.00000  Uiso   1.00
H531   H     0.98779   0.79129   0.52607   0.00000  Uiso   1.00
H532   H     0.03406   0.86880   0.29183   0.00000  Uiso   1.00
H533   H     0.15539   0.87265   0.49549   0.00000  Uiso   1.00
H534   H     0.91634   0.71535   0.61535   0.00000  Uiso   1.00
H535   H     0.01392   0.87878   0.12145   0.00000  Uiso   1.00
H536   H     0.26977   0.88690   0.55090   0.00000  Uiso   1.00
H537   H     0.13770   0.66595   0.34953   0.00000  Uiso   1.00
H538   H     0.06851   0.60824   0.43543   0.00000  Uiso   1.00
H539   H     0.11478   0.68575   0.20119   0.00000  Uiso   1.00
H540   H     0.23610   0.68960   0.40485   0.00000  Uiso   1.00
H541   H     0.98185   0.56678   0.54178   0.00000  Uiso   1.00
H542   H     0.07943   0.73021   0.04788   0.00000  Uiso   1.00
H543   H     0.33528   0.73833   0.47733   0.00000  Uiso   1.00
O544   O     0.90219   0.60623   0.63661   0.00000  Uiso   1.00
O545   O     0.03022   0.82065   0.98863   0.00000  Uiso   1.00
O546   O     0.36588   0.83130   0.55206   0.00000  Uiso   1.00
N547   N     0.94126   0.68830   0.58626   0.00000  Uiso   1.00
N548   N     0.03249   0.84110   0.12449   0.00000  Uiso   1.00
N549   N     0.27168   0.84870   0.52597   0.00000  Uiso   1.00
N550   N     0.97652   0.60836   0.54668   0.00000  Uiso   1.00
N551   N     0.06774   0.76115   0.08491   0.00000  Uiso   1.00
N552   N     0.30693   0.76875   0.48639   0.00000  Uiso   1.00
C553   C     0.29972   0.92129   0.16577   0.00000  Uiso   1.00
C554   C     0.24948   0.95055   0.20309   0.00000  Uiso   1.00
C555   C     0.25177   0.99479   0.25652   0.00000  Uiso   1.00
C556   C     0.20112   0.01575   0.28379   0.00000  Uiso   1.00
C557   C     0.13087   0.06462   0.34556   0.00000  Uiso   1.00
C558   C     0.29159   0.92542   0.07583   0.00000  Uiso   1.00
C559   C     0.32928   0.94852   0.02224   0.00000  Uiso   1.00
C560   C     0.31408   0.94831   0.94238   0.00000  Uiso   1.00
C561   C     0.30922   0.95813   0.80656   0.00000  Uiso   1.00
C562   C     0.29368   0.85950   0.18648   0.00000  Uiso   1.00
C563   C     0.33314   0.82717   0.22593   0.00000  Uiso   1.00
C564   C     0.31970   0.77146   0.23922   0.00000  Uiso   1.00
C565   C     0.31809   0.67893   0.27521   0.00000  Uiso   1.00
C566   C     0.20571   0.87983   0.11922   0.00000  Uiso   1.00
C567   C     0.19842   0.92803   0.17780   0.00000  Uiso   1.00
C568   C     0.14775   0.94893   0.20501   0.00000  Uiso   1.00
C569   C     0.14996   0.99319   0.25846   0.00000  Uiso   1.00
C570   C     0.24052   0.90290   0.05054   0.00000  Uiso   1.00
C571   C     0.22527   0.90266   0.97074   0.00000  Uiso   1.00
C572   C     0.26292   0.92576   0.91705   0.00000  Uiso   1.00
C573   C     0.24261   0.83698   0.16120   0.00000  Uiso   1.00
C574   C     0.22912   0.78131   0.17442   0.00000  Uiso   1.00
C575   C     0.26855   0.74890   0.21388   0.00000  Uiso   1.00
H576   H     0.33948   0.93882   0.18545   0.00000  Uiso   1.00
H577   H     0.29129   0.01221   0.27607   0.00000  Uiso   1.00
H578   H     0.36880   0.96594   0.04183   0.00000  Uiso   1.00
H579   H     0.37265   0.84461   0.24549   0.00000  Uiso   1.00
H580   H     0.21535   0.08366   0.36535   0.00000  Uiso   1.00
H581   H     0.37878   0.98608   0.87145   0.00000  Uiso   1.00
H582   H     0.38690   0.73023   0.30090   0.00000  Uiso   1.00
H583   H     0.16595   0.86230   0.09953   0.00000  Uiso   1.00
H584   H     0.10824   0.93149   0.18543   0.00000  Uiso   1.00
H585   H     0.18575   0.88522   0.95119   0.00000  Uiso   1.00
H586   H     0.18960   0.76390   0.15485   0.00000  Uiso   1.00
H587   H     0.06678   0.01815   0.29178   0.00000  Uiso   1.00
H588   H     0.23021   0.92057   0.79788   0.00000  Uiso   1.00
H589   H     0.23833   0.66472   0.22733   0.00000  Uiso   1.00
O590   O     0.10623   0.09781   0.38661   0.00000  Uiso   1.00
O591   O     0.32065   0.96978   0.73863   0.00000  Uiso   1.00
O592   O     0.33130   0.63412   0.30206   0.00000  Uiso   1.00
N593   N     0.18830   0.05874   0.33626   0.00000  Uiso   1.00
N594   N     0.34110   0.96751   0.87449   0.00000  Uiso   1.00
N595   N     0.34870   0.72832   0.27597   0.00000  Uiso   1.00
N596   N     0.10836   0.02348   0.29668   0.00000  Uiso   1.00
N597   N     0.26115   0.93226   0.83491   0.00000  Uiso   1.00
N598   N     0.26875   0.69307   0.23639   0.00000  Uiso   1.00
C599   C     0.79972   0.42129   0.66577   0.00000  Uiso   1.00
C600   C     0.74948   0.45055   0.70309   0.00000  Uiso   1.00
C601   C     0.75177   0.49479   0.75652   0.00000  Uiso   1.00
C602   C     0.70112   0.51575   0.78379   0.00000  Uiso   1.00
C603   C     0.63087   0.56462   0.84556   0.00000  Uiso   1.00
C604   C     0.79159   0.42542   0.57583   0.00000  Uiso   1.00
C605   C     0.82928   0.44852   0.52224   0.00000  Uiso   1.00
C606   C     0.81408   0.44831   0.44238   0.00000  Uiso   1.00
C607   C     0.80922   0.45813   0.30656   0.00000  Uiso   1.00
C608   C     0.79368   0.35950   0.68648   0.00000  Uiso   1.00
C609   C     0.83314   0.32717   0.72593   0.00000  Uiso   1.00
C610   C     0.81970   0.27146   0.73922   0.00000  Uiso   1.00
C611   C     0.81809   0.17893   0.77521   0.00000  Uiso   1.00
C612   C     0.70571   0.37983   0.61922   0.00000  Uiso   1.00
C613   C     0.69842   0.42803   0.67780   0.00000  Uiso   1.00
C614   C     0.64775   0.44893   0.70501   0.00000  Uiso   1.00
C615   C     0.64996   0.49319   0.75846   0.00000  Uiso   1.00
C616   C     0.74052   0.40290   0.55054   0.00000  Uiso   1.00
C617   C     0.72527   0.40266   0.47074   0.00000  Uiso   1.00
C618   C     0.76292   0.42576   0.41705   0.00000  Uiso   1.00
C619   C     0.74261   0.33698   0.66120   0.00000  Uiso   1.00
C620   C     0.72912   0.28131   0.67442   0.00000  Uiso   1.00
C621   C     0.76855   0.24890   0.71388   0.00000  Uiso   1.00
H622   H     0.83948   0.43882   0.68545   0.00000  Uiso   1.00
H623   H     0.79129   0.51221   0.77607   0.00000  Uiso   1.00
H624   H     0.86880   0.46594   0.54183   0.00000  Uiso   1.00
H625   H     0.87265   0.34461   0.74549   0.00000  Uiso   1.00
H626   H     0.71535   0.58366   0.86535   0.00000  Uiso   1.00
H627   H     0.87878   0.48608   0.37145   0.00000  Uiso   1.00
H628   H     0.88690   0.23023   0.80090   0.00000  Uiso   1.00
H629   H     0.66595   0.36230   0.59953   0.00000  Uiso   1.00
H630   H     0.60824   0.43149   0.68543   0.00000  Uiso   1.00
H631   H     0.68575   0.38522   0.45119   0.00000  Uiso   1.00
H632   H     0.68960   0.26390   0.65485   0.00000  Uiso   1.00
H633   H     0.56678   0.51815   0.79178   0.00000  Uiso   1.00
H634   H     0.73021   0.42057   0.29788   0.00000  Uiso   1.00
H635   H     0.73833   0.16472   0.72733   0.00000  Uiso   1.00
O636   O     0.60623   0.59781   0.88661   0.00000  Uiso   1.00
O637   O     0.82065   0.46978   0.23863   0.00000  Uiso   1.00
O638   O     0.83130   0.13412   0.80206   0.00000  Uiso   1.00
N639   N     0.68830   0.55874   0.83626   0.00000  Uiso   1.00
N640   N     0.84110   0.46751   0.37449   0.00000  Uiso   1.00
N641   N     0.84870   0.22832   0.77597   0.00000  Uiso   1.00
N642   N     0.60836   0.52348   0.79668   0.00000  Uiso   1.00
N643   N     0.76115   0.43226   0.33491   0.00000  Uiso   1.00
N644   N     0.76875   0.19307   0.73639   0.00000  Uiso   1.00
C645   C     0.20028   0.57871   0.66577   0.00000  Uiso   1.00
C646   C     0.25052   0.54945   0.70309   0.00000  Uiso   1.00
C647   C     0.24823   0.50521   0.75652   0.00000  Uiso   1.00
C648   C     0.29888   0.48425   0.78379   0.00000  Uiso   1.00
C649   C     0.36913   0.43538   0.84556   0.00000  Uiso   1.00
C650   C     0.20841   0.57458   0.57583   0.00000  Uiso   1.00
C651   C     0.17072   0.55148   0.52224   0.00000  Uiso   1.00
C652   C     0.18592   0.55169   0.44238   0.00000  Uiso   1.00
C653   C     0.19078   0.54187   0.30656   0.00000  Uiso   1.00
C654   C     0.20632   0.64050   0.68648   0.00000  Uiso   1.00
C655   C     0.16686   0.67283   0.72593   0.00000  Uiso   1.00
C656   C     0.18030   0.72854   0.73922   0.00000  Uiso   1.00
C657   C     0.18191   0.82107   0.77521   0.00000  Uiso   1.00
C658   C     0.29429   0.62017   0.61922   0.00000  Uiso   1.00
C659   C     0.30158   0.57197   0.67780   0.00000  Uiso   1.00
C660   C     0.35225   0.55107   0.70501   0.00000  Uiso   1.00
C661   C     0.35004   0.50681   0.75846   0.00000  Uiso   1.00
C662   C     0.25948   0.59710   0.55054   0.00000  Uiso   1.00
C663   C     0.27473   0.59734   0.47074   0.00000  Uiso   1.00
C664   C     0.23708   0.57424   0.41705   0.00000  Uiso   1.00
C665   C     0.25739   0.66302   0.66120   0.00000  Uiso   1.00
C666   C     0.27088   0.71869   0.67442   0.00000  Uiso   1.00
C667   C     0.23145   0.75110   0.71388   0.00000  Uiso   1.00
H668   H     0.16052   0.56118   0.68545   0.00000  Uiso   1.00
H669   H     0.20871   0.48779   0.77607   0.00000  Uiso   1.00
H670   H     0.13120   0.53406   0.54183   0.00000  Uiso   1.00
H671   H     0.12735   0.65539   0.74549   0.00000  Uiso   1.00
H672   H     0.28465   0.41634   0.86535   0.00000  Uiso   1.00
H673   H     0.12122   0.51392   0.37145   0.00000  Uiso   1.00
H674   H     0.11310   0.76977   0.80090   0.00000  Uiso   1.00
H675   H     0.33405   0.63770   0.59953   0.00000  Uiso   1.00
H676   H     0.39176   0.56851   0.68543   0.00000  Uiso   1.00
H677   H     0.31425   0.61478   0.45119   0.00000  Uiso   1.00
H678   H     0.31040   0.73610   0.65485   0.00000  Uiso   1.00
H679   H     0.43322   0.48185   0.79178   0.00000  Uiso   1.00
H680   H     0.26979   0.57943   0.29788   0.00000  Uiso   1.00
H681   H     0.26167   0.83528   0.72733   0.00000  Uiso   1.00
O682   O     0.39377   0.40219   0.88661   0.00000  Uiso   1.00
O683   O     0.17935   0.53022   0.23863   0.00000  Uiso   1.00
O684   O     0.16870   0.86588   0.80206   0.00000  Uiso   1.00
N685   N     0.31170   0.44126   0.83626   0.00000  Uiso   1.00
N686   N     0.15890   0.53249   0.37449   0.00000  Uiso   1.00
N687   N     0.15130   0.77168   0.77597   0.00000  Uiso   1.00
N688   N     0.39164   0.47652   0.79668   0.00000  Uiso   1.00
N689   N     0.23885   0.56774   0.33491   0.00000  Uiso   1.00
N690   N     0.23125   0.80693   0.73639   0.00000  Uiso   1.00
C691   C     0.70028   0.07871   0.16577   0.00000  Uiso   1.00
C692   C     0.75052   0.04945   0.20309   0.00000  Uiso   1.00
C693   C     0.74823   0.00521   0.25652   0.00000  Uiso   1.00
C694   C     0.79888   0.98425   0.28379   0.00000  Uiso   1.00
C695   C     0.86913   0.93538   0.34556   0.00000  Uiso   1.00
C696   C     0.70841   0.07458   0.07583   0.00000  Uiso   1.00
C697   C     0.67072   0.05148   0.02224   0.00000  Uiso   1.00
C698   C     0.68592   0.05169   0.94238   0.00000  Uiso   1.00
C699   C     0.69078   0.04187   0.80656   0.00000  Uiso   1.00
C700   C     0.70632   0.14050   0.18648   0.00000  Uiso   1.00
C701   C     0.66686   0.17283   0.22593   0.00000  Uiso   1.00
C702   C     0.68030   0.22854   0.23922   0.00000  Uiso   1.00
C703   C     0.68191   0.32107   0.27521   0.00000  Uiso   1.00
C704   C     0.79429   0.12017   0.11922   0.00000  Uiso   1.00
C705   C     0.80158   0.07197   0.17780   0.00000  Uiso   1.00
C706   C     0.85225   0.05107   0.20501   0.00000  Uiso   1.00
C707   C     0.85004   0.00681   0.25846   0.00000  Uiso   1.00
C708   C     0.75948   0.09710   0.05054   0.00000  Uiso   1.00
C709   C     0.77473   0.09734   0.97074   0.00000  Uiso   1.00
C710   C     0.73708   0.07424   0.91705   0.00000  Uiso   1.00
C711   C     0.75739   0.16302   0.16120   0.00000  Uiso   1.00
C712   C     0.77088   0.21869   0.17442   0.00000  Uiso   1.00
C713   C     0.73145   0.25110   0.21388   0.00000  Uiso   1.00
H714   H     0.66052   0.06118   0.18545   0.00000  Uiso   1.00
H715   H     0.70871   0.98779   0.27607   0.00000  Uiso   1.00
H716   H     0.63120   0.03406   0.04183   0.00000  Uiso   1.00
H717   H     0.62735   0.15539   0.24549   0.00000  Uiso   1.00
H718   H     0.78465   0.91634   0.36535   0.00000  Uiso   1.00
H719   H     0.62122   0.01392   0.87145   0.00000  Uiso   1.00
H720   H     0.61310   0.26977   0.30090   0.00000  Uiso   1.00
H721   H     0.83405   0.13770   0.09953   0.00000  Uiso   1.00
H722   H     0.89176   0.06851   0.18543   0.00000  Uiso   1.00
H723   H     0.81425   0.11478   0.95119   0.00000  Uiso   1.00
H724   H     0.81040   0.23610   0.15485   0.00000  Uiso   1.00
H725   H     0.93322   0.98185   0.29178   0.00000  Uiso   1.00
H726   H     0.76979   0.07943   0.79788   0.00000  Uiso   1.00
H727   H     0.76167   0.33528   0.22733   0.00000  Uiso   1.00
O728   O     0.89377   0.90219   0.38661   0.00000  Uiso   1.00
O729   O     0.67935   0.03022   0.73863   0.00000  Uiso   1.00
O730   O     0.66870   0.36588   0.30206   0.00000  Uiso   1.00
N731   N     0.81170   0.94126   0.33626   0.00000  Uiso   1.00
N732   N     0.65890   0.03249   0.87449   0.00000  Uiso   1.00
N733   N     0.65130   0.27168   0.27597   0.00000  Uiso   1.00
N734   N     0.89164   0.97652   0.29668   0.00000  Uiso   1.00
N735   N     0.73885   0.06774   0.83491   0.00000  Uiso   1.00
N736   N     0.73125   0.30693   0.23639   0.00000  Uiso   1.00
