data_job_01677
_audit_creation_date              2018-12-19
_audit_creation_method            'Materials Studio'
_symmetry_space_group_name_H-M    'P1'
_symmetry_Int_Tables_number       1
_symmetry_cell_setting            triclinic
loop_
_symmetry_equiv_pos_as_xyz
  x,y,z
_cell_length_a                    23.3360
_cell_length_b                    23.3360
_cell_length_c                    22.3090
_cell_angle_alpha                 90.0000
_cell_angle_beta                  90.0000
_cell_angle_gamma                 90.0000
loop_
_atom_site_label
_atom_site_type_symbol
_atom_site_fract_x
_atom_site_fract_y
_atom_site_fract_z
_atom_site_U_iso_or_equiv
_atom_site_adp_type
_atom_site_occupancy
C1     C     0.47412   0.82625   0.07301   0.00000  Uiso   1.00
C2     C     0.51665   0.83325   0.12439   0.00000  Uiso   1.00
C3     C     0.54062   0.88457   0.14336   0.00000  Uiso   1.00
C4     C     0.57864   0.88195   0.19115   0.00000  Uiso   1.00
C5     C     0.64263   0.90075   0.26668   0.00000  Uiso   1.00
C6     C     0.50100   0.78317   0.02998   0.00000  Uiso   1.00
C7     C     0.51180   0.79238   0.96957   0.00000  Uiso   1.00
C8     C     0.53664   0.74759   0.93788   0.00000  Uiso   1.00
C9     C     0.57631   0.68863   0.86683   0.00000  Uiso   1.00
C10    C     0.42178   0.79659   0.09971   0.00000  Uiso   1.00
C11    C     0.36598   0.81707   0.09791   0.00000  Uiso   1.00
C12    C     0.32412   0.78359   0.12492   0.00000  Uiso   1.00
C13    C     0.24079   0.74546   0.16213   0.00000  Uiso   1.00
C14    C     0.49902   0.73035   0.12416   0.00000  Uiso   1.00
C15    C     0.53017   0.78116   0.15217   0.00000  Uiso   1.00
C16    C     0.56816   0.77847   0.19994   0.00000  Uiso   1.00
C17    C     0.59218   0.82977   0.21898   0.00000  Uiso   1.00
C18    C     0.51452   0.73108   0.05776   0.00000  Uiso   1.00
C19    C     0.53935   0.68628   0.02615   0.00000  Uiso   1.00
C20    C     0.55019   0.69541   0.96571   0.00000  Uiso   1.00
C21    C     0.43531   0.74450   0.12749   0.00000  Uiso   1.00
C22    C     0.39353   0.71098   0.15450   0.00000  Uiso   1.00
C23    C     0.33767   0.73140   0.15275   0.00000  Uiso   1.00
H24    H     0.46359   0.86680   0.05138   0.00000  Uiso   1.00
H25    H     0.53014   0.92487   0.12184   0.00000  Uiso   1.00
H26    H     0.50133   0.83269   0.94808   0.00000  Uiso   1.00
H27    H     0.35553   0.85738   0.07641   0.00000  Uiso   1.00
H28    H     0.60991   0.96628   0.21220   0.00000  Uiso   1.00
H29    H     0.54913   0.77190   0.84581   0.00000  Uiso   1.00
H30    H     0.24168   0.82398   0.11641   0.00000  Uiso   1.00
H31    H     0.50955   0.68979   0.14578   0.00000  Uiso   1.00
H32    H     0.57862   0.73815   0.22143   0.00000  Uiso   1.00
H33    H     0.54981   0.64597   0.04767   0.00000  Uiso   1.00
H34    H     0.40401   0.67067   0.17599   0.00000  Uiso   1.00
H35    H     0.64925   0.81474   0.29303   0.00000  Uiso   1.00
H36    H     0.58848   0.62036   0.92663   0.00000  Uiso   1.00
H37    H     0.28103   0.67243   0.19723   0.00000  Uiso   1.00
O38    O     0.67420   0.92551   0.30067   0.00000  Uiso   1.00
O39    O     0.59446   0.67050   0.81997   0.00000  Uiso   1.00
O40    O     0.19109   0.73882   0.17499   0.00000  Uiso   1.00
N41    N     0.60968   0.92398   0.22085   0.00000  Uiso   1.00
N42    N     0.55287   0.74225   0.87830   0.00000  Uiso   1.00
N43    N     0.26542   0.79093   0.13127   0.00000  Uiso   1.00
N44    N     0.63085   0.84243   0.26435   0.00000  Uiso   1.00
N45    N     0.57404   0.66071   0.92179   0.00000  Uiso   1.00
N46    N     0.28659   0.70939   0.17476   0.00000  Uiso   1.00
C47    C     0.52588   0.17375   0.07301   0.00000  Uiso   1.00
C48    C     0.48335   0.16675   0.12439   0.00000  Uiso   1.00
C49    C     0.45938   0.11543   0.14336   0.00000  Uiso   1.00
C50    C     0.42136   0.11805   0.19115   0.00000  Uiso   1.00
C51    C     0.35737   0.09925   0.26668   0.00000  Uiso   1.00
C52    C     0.49900   0.21683   0.02998   0.00000  Uiso   1.00
C53    C     0.48820   0.20762   0.96957   0.00000  Uiso   1.00
C54    C     0.46336   0.25241   0.93788   0.00000  Uiso   1.00
C55    C     0.42369   0.31137   0.86683   0.00000  Uiso   1.00
C56    C     0.57822   0.20341   0.09971   0.00000  Uiso   1.00
C57    C     0.63402   0.18293   0.09791   0.00000  Uiso   1.00
C58    C     0.67588   0.21641   0.12492   0.00000  Uiso   1.00
C59    C     0.75921   0.25454   0.16213   0.00000  Uiso   1.00
C60    C     0.50098   0.26965   0.12416   0.00000  Uiso   1.00
C61    C     0.46983   0.21884   0.15217   0.00000  Uiso   1.00
C62    C     0.43184   0.22153   0.19994   0.00000  Uiso   1.00
C63    C     0.40782   0.17023   0.21898   0.00000  Uiso   1.00
C64    C     0.48548   0.26892   0.05776   0.00000  Uiso   1.00
C65    C     0.46065   0.31372   0.02615   0.00000  Uiso   1.00
C66    C     0.44981   0.30459   0.96571   0.00000  Uiso   1.00
C67    C     0.56469   0.25550   0.12749   0.00000  Uiso   1.00
C68    C     0.60647   0.28902   0.15450   0.00000  Uiso   1.00
C69    C     0.66233   0.26860   0.15275   0.00000  Uiso   1.00
H70    H     0.53641   0.13320   0.05138   0.00000  Uiso   1.00
H71    H     0.46986   0.07513   0.12184   0.00000  Uiso   1.00
H72    H     0.49867   0.16731   0.94808   0.00000  Uiso   1.00
H73    H     0.64447   0.14262   0.07641   0.00000  Uiso   1.00
H74    H     0.39009   0.03372   0.21220   0.00000  Uiso   1.00
H75    H     0.45087   0.22810   0.84581   0.00000  Uiso   1.00
H76    H     0.75832   0.17602   0.11641   0.00000  Uiso   1.00
H77    H     0.49045   0.31021   0.14578   0.00000  Uiso   1.00
H78    H     0.42138   0.26185   0.22143   0.00000  Uiso   1.00
H79    H     0.45019   0.35403   0.04767   0.00000  Uiso   1.00
H80    H     0.59599   0.32933   0.17599   0.00000  Uiso   1.00
H81    H     0.35075   0.18526   0.29303   0.00000  Uiso   1.00
H82    H     0.41152   0.37964   0.92663   0.00000  Uiso   1.00
H83    H     0.71897   0.32757   0.19723   0.00000  Uiso   1.00
O84    O     0.32580   0.07449   0.30067   0.00000  Uiso   1.00
O85    O     0.40554   0.32950   0.81997   0.00000  Uiso   1.00
O86    O     0.80891   0.26118   0.17499   0.00000  Uiso   1.00
N87    N     0.39032   0.07602   0.22085   0.00000  Uiso   1.00
N88    N     0.44713   0.25775   0.87830   0.00000  Uiso   1.00
N89    N     0.73458   0.20907   0.13127   0.00000  Uiso   1.00
N90    N     0.36915   0.15757   0.26435   0.00000  Uiso   1.00
N91    N     0.42596   0.33929   0.92179   0.00000  Uiso   1.00
N92    N     0.71341   0.29061   0.17476   0.00000  Uiso   1.00
C93    C     0.67375   0.97412   0.07301   0.00000  Uiso   1.00
C94    C     0.66675   0.01665   0.12439   0.00000  Uiso   1.00
C95    C     0.61543   0.04062   0.14336   0.00000  Uiso   1.00
C96    C     0.61805   0.07864   0.19115   0.00000  Uiso   1.00
C97    C     0.59925   0.14263   0.26668   0.00000  Uiso   1.00
C98    C     0.71683   0.00100   0.02998   0.00000  Uiso   1.00
C99    C     0.70762   0.01180   0.96957   0.00000  Uiso   1.00
C100   C     0.75241   0.03664   0.93788   0.00000  Uiso   1.00
C101   C     0.81137   0.07631   0.86683   0.00000  Uiso   1.00
C102   C     0.70341   0.92178   0.09971   0.00000  Uiso   1.00
C103   C     0.68293   0.86598   0.09791   0.00000  Uiso   1.00
C104   C     0.71641   0.82412   0.12492   0.00000  Uiso   1.00
C105   C     0.75454   0.74079   0.16213   0.00000  Uiso   1.00
C106   C     0.76965   0.99902   0.12416   0.00000  Uiso   1.00
C107   C     0.71884   0.03017   0.15217   0.00000  Uiso   1.00
C108   C     0.72153   0.06816   0.19994   0.00000  Uiso   1.00
C109   C     0.67023   0.09218   0.21898   0.00000  Uiso   1.00
C110   C     0.76892   0.01452   0.05776   0.00000  Uiso   1.00
C111   C     0.81372   0.03935   0.02615   0.00000  Uiso   1.00
C112   C     0.80459   0.05019   0.96571   0.00000  Uiso   1.00
C113   C     0.75550   0.93531   0.12749   0.00000  Uiso   1.00
C114   C     0.78902   0.89353   0.15450   0.00000  Uiso   1.00
C115   C     0.76860   0.83767   0.15275   0.00000  Uiso   1.00
H116   H     0.63320   0.96359   0.05138   0.00000  Uiso   1.00
H117   H     0.57513   0.03014   0.12184   0.00000  Uiso   1.00
H118   H     0.66731   0.00133   0.94808   0.00000  Uiso   1.00
H119   H     0.64262   0.85553   0.07641   0.00000  Uiso   1.00
H120   H     0.53372   0.10991   0.21220   0.00000  Uiso   1.00
H121   H     0.72810   0.04913   0.84581   0.00000  Uiso   1.00
H122   H     0.67602   0.74168   0.11641   0.00000  Uiso   1.00
H123   H     0.81021   0.00955   0.14578   0.00000  Uiso   1.00
H124   H     0.76185   0.07862   0.22143   0.00000  Uiso   1.00
H125   H     0.85403   0.04981   0.04767   0.00000  Uiso   1.00
H126   H     0.82933   0.90401   0.17599   0.00000  Uiso   1.00
H127   H     0.68526   0.14925   0.29303   0.00000  Uiso   1.00
H128   H     0.87964   0.08848   0.92663   0.00000  Uiso   1.00
H129   H     0.82757   0.78103   0.19723   0.00000  Uiso   1.00
O130   O     0.57449   0.17420   0.30067   0.00000  Uiso   1.00
O131   O     0.82950   0.09446   0.81997   0.00000  Uiso   1.00
O132   O     0.76118   0.69109   0.17499   0.00000  Uiso   1.00
N133   N     0.57602   0.10968   0.22085   0.00000  Uiso   1.00
N134   N     0.75775   0.05287   0.87830   0.00000  Uiso   1.00
N135   N     0.70907   0.76542   0.13127   0.00000  Uiso   1.00
N136   N     0.65757   0.13085   0.26435   0.00000  Uiso   1.00
N137   N     0.83929   0.07404   0.92179   0.00000  Uiso   1.00
N138   N     0.79061   0.78659   0.17476   0.00000  Uiso   1.00
C139   C     0.32625   0.02588   0.07301   0.00000  Uiso   1.00
C140   C     0.33325   0.98335   0.12439   0.00000  Uiso   1.00
C141   C     0.38457   0.95938   0.14336   0.00000  Uiso   1.00
C142   C     0.38195   0.92136   0.19115   0.00000  Uiso   1.00
C143   C     0.40075   0.85737   0.26668   0.00000  Uiso   1.00
C144   C     0.28317   0.99900   0.02998   0.00000  Uiso   1.00
C145   C     0.29238   0.98820   0.96957   0.00000  Uiso   1.00
C146   C     0.24759   0.96336   0.93788   0.00000  Uiso   1.00
C147   C     0.18863   0.92369   0.86683   0.00000  Uiso   1.00
C148   C     0.29659   0.07822   0.09971   0.00000  Uiso   1.00
C149   C     0.31707   0.13402   0.09791   0.00000  Uiso   1.00
C150   C     0.28359   0.17588   0.12492   0.00000  Uiso   1.00
C151   C     0.24546   0.25921   0.16213   0.00000  Uiso   1.00
C152   C     0.23035   0.00098   0.12416   0.00000  Uiso   1.00
C153   C     0.28116   0.96983   0.15217   0.00000  Uiso   1.00
C154   C     0.27847   0.93184   0.19994   0.00000  Uiso   1.00
C155   C     0.32977   0.90782   0.21898   0.00000  Uiso   1.00
C156   C     0.23108   0.98548   0.05776   0.00000  Uiso   1.00
C157   C     0.18628   0.96065   0.02615   0.00000  Uiso   1.00
C158   C     0.19541   0.94981   0.96571   0.00000  Uiso   1.00
C159   C     0.24450   0.06469   0.12749   0.00000  Uiso   1.00
C160   C     0.21098   0.10647   0.15450   0.00000  Uiso   1.00
C161   C     0.23140   0.16233   0.15275   0.00000  Uiso   1.00
H162   H     0.36680   0.03641   0.05138   0.00000  Uiso   1.00
H163   H     0.42487   0.96986   0.12184   0.00000  Uiso   1.00
H164   H     0.33269   0.99867   0.94808   0.00000  Uiso   1.00
H165   H     0.35738   0.14447   0.07641   0.00000  Uiso   1.00
H166   H     0.46628   0.89009   0.21220   0.00000  Uiso   1.00
H167   H     0.27190   0.95087   0.84581   0.00000  Uiso   1.00
H168   H     0.32398   0.25832   0.11641   0.00000  Uiso   1.00
H169   H     0.18979   0.99045   0.14578   0.00000  Uiso   1.00
H170   H     0.23815   0.92138   0.22143   0.00000  Uiso   1.00
H171   H     0.14597   0.95019   0.04767   0.00000  Uiso   1.00
H172   H     0.17067   0.09599   0.17599   0.00000  Uiso   1.00
H173   H     0.31474   0.85075   0.29303   0.00000  Uiso   1.00
H174   H     0.12036   0.91152   0.92663   0.00000  Uiso   1.00
H175   H     0.17243   0.21897   0.19723   0.00000  Uiso   1.00
O176   O     0.42551   0.82580   0.30067   0.00000  Uiso   1.00
O177   O     0.17050   0.90554   0.81997   0.00000  Uiso   1.00
O178   O     0.23882   0.30891   0.17499   0.00000  Uiso   1.00
N179   N     0.42398   0.89032   0.22085   0.00000  Uiso   1.00
N180   N     0.24225   0.94713   0.87830   0.00000  Uiso   1.00
N181   N     0.29093   0.23458   0.13127   0.00000  Uiso   1.00
N182   N     0.34243   0.86915   0.26435   0.00000  Uiso   1.00
N183   N     0.16071   0.92596   0.92179   0.00000  Uiso   1.00
N184   N     0.20939   0.21341   0.17476   0.00000  Uiso   1.00
C185   C     0.02588   0.32625   0.42699   0.00000  Uiso   1.00
C186   C     0.98335   0.33325   0.37561   0.00000  Uiso   1.00
C187   C     0.95938   0.38457   0.35664   0.00000  Uiso   1.00
C188   C     0.92136   0.38195   0.30885   0.00000  Uiso   1.00
C189   C     0.85737   0.40075   0.23332   0.00000  Uiso   1.00
C190   C     0.99900   0.28317   0.47002   0.00000  Uiso   1.00
C191   C     0.98820   0.29238   0.53043   0.00000  Uiso   1.00
C192   C     0.96336   0.24759   0.56212   0.00000  Uiso   1.00
C193   C     0.92369   0.18863   0.63317   0.00000  Uiso   1.00
C194   C     0.07822   0.29659   0.40029   0.00000  Uiso   1.00
C195   C     0.13402   0.31707   0.40209   0.00000  Uiso   1.00
C196   C     0.17588   0.28359   0.37508   0.00000  Uiso   1.00
C197   C     0.25921   0.24546   0.33787   0.00000  Uiso   1.00
C198   C     0.00098   0.23035   0.37584   0.00000  Uiso   1.00
C199   C     0.96983   0.28116   0.34783   0.00000  Uiso   1.00
C200   C     0.93184   0.27847   0.30006   0.00000  Uiso   1.00
C201   C     0.90782   0.32977   0.28102   0.00000  Uiso   1.00
C202   C     0.98548   0.23108   0.44224   0.00000  Uiso   1.00
C203   C     0.96065   0.18628   0.47385   0.00000  Uiso   1.00
C204   C     0.94981   0.19541   0.53429   0.00000  Uiso   1.00
C205   C     0.06469   0.24450   0.37251   0.00000  Uiso   1.00
C206   C     0.10647   0.21098   0.34550   0.00000  Uiso   1.00
C207   C     0.16233   0.23140   0.34725   0.00000  Uiso   1.00
H208   H     0.03641   0.36680   0.44862   0.00000  Uiso   1.00
H209   H     0.96986   0.42487   0.37816   0.00000  Uiso   1.00
H210   H     0.99867   0.33269   0.55192   0.00000  Uiso   1.00
H211   H     0.14447   0.35738   0.42359   0.00000  Uiso   1.00
H212   H     0.89009   0.46628   0.28780   0.00000  Uiso   1.00
H213   H     0.95087   0.27190   0.65419   0.00000  Uiso   1.00
H214   H     0.25832   0.32398   0.38359   0.00000  Uiso   1.00
H215   H     0.99045   0.18979   0.35422   0.00000  Uiso   1.00
H216   H     0.92138   0.23815   0.27857   0.00000  Uiso   1.00
H217   H     0.95019   0.14597   0.45233   0.00000  Uiso   1.00
H218   H     0.09599   0.17067   0.32401   0.00000  Uiso   1.00
H219   H     0.85075   0.31474   0.20697   0.00000  Uiso   1.00
H220   H     0.91152   0.12036   0.57337   0.00000  Uiso   1.00
H221   H     0.21897   0.17243   0.30277   0.00000  Uiso   1.00
O222   O     0.82580   0.42551   0.19933   0.00000  Uiso   1.00
O223   O     0.90554   0.17050   0.68003   0.00000  Uiso   1.00
O224   O     0.30891   0.23882   0.32501   0.00000  Uiso   1.00
N225   N     0.89032   0.42398   0.27915   0.00000  Uiso   1.00
N226   N     0.94713   0.24225   0.62170   0.00000  Uiso   1.00
N227   N     0.23458   0.29093   0.36873   0.00000  Uiso   1.00
N228   N     0.86915   0.34243   0.23565   0.00000  Uiso   1.00
N229   N     0.92596   0.16071   0.57821   0.00000  Uiso   1.00
N230   N     0.21341   0.20939   0.32524   0.00000  Uiso   1.00
C231   C     0.97412   0.67375   0.42699   0.00000  Uiso   1.00
C232   C     0.01665   0.66675   0.37561   0.00000  Uiso   1.00
C233   C     0.04062   0.61543   0.35664   0.00000  Uiso   1.00
C234   C     0.07864   0.61805   0.30885   0.00000  Uiso   1.00
C235   C     0.14263   0.59925   0.23332   0.00000  Uiso   1.00
C236   C     0.00100   0.71683   0.47002   0.00000  Uiso   1.00
C237   C     0.01180   0.70762   0.53043   0.00000  Uiso   1.00
C238   C     0.03664   0.75241   0.56212   0.00000  Uiso   1.00
C239   C     0.07631   0.81137   0.63317   0.00000  Uiso   1.00
C240   C     0.92178   0.70341   0.40029   0.00000  Uiso   1.00
C241   C     0.86598   0.68293   0.40209   0.00000  Uiso   1.00
C242   C     0.82412   0.71641   0.37508   0.00000  Uiso   1.00
C243   C     0.74079   0.75454   0.33787   0.00000  Uiso   1.00
C244   C     0.99902   0.76965   0.37584   0.00000  Uiso   1.00
C245   C     0.03017   0.71884   0.34783   0.00000  Uiso   1.00
C246   C     0.06816   0.72153   0.30006   0.00000  Uiso   1.00
C247   C     0.09218   0.67023   0.28102   0.00000  Uiso   1.00
C248   C     0.01452   0.76892   0.44224   0.00000  Uiso   1.00
C249   C     0.03935   0.81372   0.47385   0.00000  Uiso   1.00
C250   C     0.05019   0.80459   0.53429   0.00000  Uiso   1.00
C251   C     0.93531   0.75550   0.37251   0.00000  Uiso   1.00
C252   C     0.89353   0.78902   0.34550   0.00000  Uiso   1.00
C253   C     0.83767   0.76860   0.34725   0.00000  Uiso   1.00
H254   H     0.96359   0.63320   0.44862   0.00000  Uiso   1.00
H255   H     0.03014   0.57513   0.37816   0.00000  Uiso   1.00
H256   H     0.00133   0.66731   0.55192   0.00000  Uiso   1.00
H257   H     0.85553   0.64262   0.42359   0.00000  Uiso   1.00
H258   H     0.10991   0.53372   0.28780   0.00000  Uiso   1.00
H259   H     0.04913   0.72810   0.65419   0.00000  Uiso   1.00
H260   H     0.74168   0.67602   0.38359   0.00000  Uiso   1.00
H261   H     0.00955   0.81021   0.35422   0.00000  Uiso   1.00
H262   H     0.07862   0.76185   0.27857   0.00000  Uiso   1.00
H263   H     0.04981   0.85403   0.45233   0.00000  Uiso   1.00
H264   H     0.90401   0.82933   0.32401   0.00000  Uiso   1.00
H265   H     0.14925   0.68526   0.20697   0.00000  Uiso   1.00
H266   H     0.08848   0.87964   0.57337   0.00000  Uiso   1.00
H267   H     0.78103   0.82757   0.30277   0.00000  Uiso   1.00
O268   O     0.17420   0.57449   0.19933   0.00000  Uiso   1.00
O269   O     0.09446   0.82950   0.68003   0.00000  Uiso   1.00
O270   O     0.69109   0.76118   0.32501   0.00000  Uiso   1.00
N271   N     0.10968   0.57602   0.27915   0.00000  Uiso   1.00
N272   N     0.05287   0.75775   0.62170   0.00000  Uiso   1.00
N273   N     0.76542   0.70907   0.36873   0.00000  Uiso   1.00
N274   N     0.13085   0.65757   0.23565   0.00000  Uiso   1.00
N275   N     0.07404   0.83929   0.57821   0.00000  Uiso   1.00
N276   N     0.78659   0.79061   0.32524   0.00000  Uiso   1.00
C277   C     0.82625   0.47412   0.42699   0.00000  Uiso   1.00
C278   C     0.83325   0.51665   0.37561   0.00000  Uiso   1.00
C279   C     0.88457   0.54062   0.35664   0.00000  Uiso   1.00
C280   C     0.88195   0.57864   0.30885   0.00000  Uiso   1.00
C281   C     0.90075   0.64263   0.23332   0.00000  Uiso   1.00
C282   C     0.78317   0.50100   0.47002   0.00000  Uiso   1.00
C283   C     0.79238   0.51180   0.53043   0.00000  Uiso   1.00
C284   C     0.74759   0.53664   0.56212   0.00000  Uiso   1.00
C285   C     0.68863   0.57631   0.63317   0.00000  Uiso   1.00
C286   C     0.79659   0.42178   0.40029   0.00000  Uiso   1.00
C287   C     0.81707   0.36598   0.40209   0.00000  Uiso   1.00
C288   C     0.78359   0.32412   0.37508   0.00000  Uiso   1.00
C289   C     0.74546   0.24079   0.33787   0.00000  Uiso   1.00
C290   C     0.73035   0.49902   0.37584   0.00000  Uiso   1.00
C291   C     0.78116   0.53017   0.34783   0.00000  Uiso   1.00
C292   C     0.77847   0.56816   0.30006   0.00000  Uiso   1.00
C293   C     0.82977   0.59218   0.28102   0.00000  Uiso   1.00
C294   C     0.73108   0.51452   0.44224   0.00000  Uiso   1.00
C295   C     0.68628   0.53935   0.47385   0.00000  Uiso   1.00
C296   C     0.69541   0.55019   0.53429   0.00000  Uiso   1.00
C297   C     0.74450   0.43531   0.37251   0.00000  Uiso   1.00
C298   C     0.71098   0.39353   0.34550   0.00000  Uiso   1.00
C299   C     0.73140   0.33767   0.34725   0.00000  Uiso   1.00
H300   H     0.86680   0.46359   0.44862   0.00000  Uiso   1.00
H301   H     0.92487   0.53014   0.37816   0.00000  Uiso   1.00
H302   H     0.83269   0.50133   0.55192   0.00000  Uiso   1.00
H303   H     0.85738   0.35553   0.42359   0.00000  Uiso   1.00
H304   H     0.96628   0.60991   0.28780   0.00000  Uiso   1.00
H305   H     0.77190   0.54913   0.65419   0.00000  Uiso   1.00
H306   H     0.82398   0.24168   0.38359   0.00000  Uiso   1.00
H307   H     0.68979   0.50955   0.35422   0.00000  Uiso   1.00
H308   H     0.73815   0.57862   0.27857   0.00000  Uiso   1.00
H309   H     0.64597   0.54981   0.45233   0.00000  Uiso   1.00
H310   H     0.67067   0.40401   0.32401   0.00000  Uiso   1.00
H311   H     0.81474   0.64925   0.20697   0.00000  Uiso   1.00
H312   H     0.62036   0.58848   0.57337   0.00000  Uiso   1.00
H313   H     0.67243   0.28103   0.30277   0.00000  Uiso   1.00
O314   O     0.92551   0.67420   0.19933   0.00000  Uiso   1.00
O315   O     0.67050   0.59446   0.68003   0.00000  Uiso   1.00
O316   O     0.73882   0.19109   0.32501   0.00000  Uiso   1.00
N317   N     0.92398   0.60968   0.27915   0.00000  Uiso   1.00
N318   N     0.74225   0.55287   0.62170   0.00000  Uiso   1.00
N319   N     0.79093   0.26542   0.36873   0.00000  Uiso   1.00
N320   N     0.84243   0.63085   0.23565   0.00000  Uiso   1.00
N321   N     0.66071   0.57404   0.57821   0.00000  Uiso   1.00
N322   N     0.70939   0.28659   0.32524   0.00000  Uiso   1.00
C323   C     0.17375   0.52588   0.42699   0.00000  Uiso   1.00
C324   C     0.16675   0.48335   0.37561   0.00000  Uiso   1.00
C325   C     0.11543   0.45938   0.35664   0.00000  Uiso   1.00
C326   C     0.11805   0.42136   0.30885   0.00000  Uiso   1.00
C327   C     0.09925   0.35737   0.23332   0.00000  Uiso   1.00
C328   C     0.21683   0.49900   0.47002   0.00000  Uiso   1.00
C329   C     0.20762   0.48820   0.53043   0.00000  Uiso   1.00
C330   C     0.25241   0.46336   0.56212   0.00000  Uiso   1.00
C331   C     0.31137   0.42369   0.63317   0.00000  Uiso   1.00
C332   C     0.20341   0.57822   0.40029   0.00000  Uiso   1.00
C333   C     0.18293   0.63402   0.40209   0.00000  Uiso   1.00
C334   C     0.21641   0.67588   0.37508   0.00000  Uiso   1.00
C335   C     0.25454   0.75921   0.33787   0.00000  Uiso   1.00
C336   C     0.26965   0.50098   0.37584   0.00000  Uiso   1.00
C337   C     0.21884   0.46983   0.34783   0.00000  Uiso   1.00
C338   C     0.22153   0.43184   0.30006   0.00000  Uiso   1.00
C339   C     0.17023   0.40782   0.28102   0.00000  Uiso   1.00
C340   C     0.26892   0.48548   0.44224   0.00000  Uiso   1.00
C341   C     0.31372   0.46065   0.47385   0.00000  Uiso   1.00
C342   C     0.30459   0.44981   0.53429   0.00000  Uiso   1.00
C343   C     0.25550   0.56469   0.37251   0.00000  Uiso   1.00
C344   C     0.28902   0.60647   0.34550   0.00000  Uiso   1.00
C345   C     0.26860   0.66233   0.34725   0.00000  Uiso   1.00
H346   H     0.13320   0.53641   0.44862   0.00000  Uiso   1.00
H347   H     0.07513   0.46986   0.37816   0.00000  Uiso   1.00
H348   H     0.16731   0.49867   0.55192   0.00000  Uiso   1.00
H349   H     0.14262   0.64447   0.42359   0.00000  Uiso   1.00
H350   H     0.03372   0.39009   0.28780   0.00000  Uiso   1.00
H351   H     0.22810   0.45087   0.65419   0.00000  Uiso   1.00
H352   H     0.17602   0.75832   0.38359   0.00000  Uiso   1.00
H353   H     0.31021   0.49045   0.35422   0.00000  Uiso   1.00
H354   H     0.26185   0.42138   0.27857   0.00000  Uiso   1.00
H355   H     0.35403   0.45019   0.45233   0.00000  Uiso   1.00
H356   H     0.32933   0.59599   0.32401   0.00000  Uiso   1.00
H357   H     0.18526   0.35075   0.20697   0.00000  Uiso   1.00
H358   H     0.37964   0.41152   0.57337   0.00000  Uiso   1.00
H359   H     0.32757   0.71897   0.30277   0.00000  Uiso   1.00
O360   O     0.07449   0.32580   0.19933   0.00000  Uiso   1.00
O361   O     0.32950   0.40554   0.68003   0.00000  Uiso   1.00
O362   O     0.26118   0.80891   0.32501   0.00000  Uiso   1.00
N363   N     0.07602   0.39032   0.27915   0.00000  Uiso   1.00
N364   N     0.25775   0.44713   0.62170   0.00000  Uiso   1.00
N365   N     0.20907   0.73458   0.36873   0.00000  Uiso   1.00
N366   N     0.15757   0.36915   0.23565   0.00000  Uiso   1.00
N367   N     0.33929   0.42596   0.57821   0.00000  Uiso   1.00
N368   N     0.29061   0.71341   0.32524   0.00000  Uiso   1.00
C369   C     0.02588   0.67375   0.92699   0.00000  Uiso   1.00
C370   C     0.98335   0.66675   0.87561   0.00000  Uiso   1.00
C371   C     0.95938   0.61543   0.85664   0.00000  Uiso   1.00
C372   C     0.92136   0.61805   0.80885   0.00000  Uiso   1.00
C373   C     0.85737   0.59925   0.73332   0.00000  Uiso   1.00
C374   C     0.99900   0.71683   0.97002   0.00000  Uiso   1.00
C375   C     0.98820   0.70762   0.03043   0.00000  Uiso   1.00
C376   C     0.96336   0.75241   0.06212   0.00000  Uiso   1.00
C377   C     0.92369   0.81137   0.13317   0.00000  Uiso   1.00
C378   C     0.07822   0.70341   0.90029   0.00000  Uiso   1.00
C379   C     0.13402   0.68293   0.90209   0.00000  Uiso   1.00
C380   C     0.17588   0.71641   0.87508   0.00000  Uiso   1.00
C381   C     0.25921   0.75454   0.83787   0.00000  Uiso   1.00
C382   C     0.00098   0.76965   0.87584   0.00000  Uiso   1.00
C383   C     0.96983   0.71884   0.84783   0.00000  Uiso   1.00
C384   C     0.93184   0.72153   0.80006   0.00000  Uiso   1.00
C385   C     0.90782   0.67023   0.78102   0.00000  Uiso   1.00
C386   C     0.98548   0.76892   0.94224   0.00000  Uiso   1.00
C387   C     0.96065   0.81372   0.97385   0.00000  Uiso   1.00
C388   C     0.94981   0.80459   0.03429   0.00000  Uiso   1.00
C389   C     0.06469   0.75550   0.87251   0.00000  Uiso   1.00
C390   C     0.10647   0.78902   0.84550   0.00000  Uiso   1.00
C391   C     0.16233   0.76860   0.84725   0.00000  Uiso   1.00
H392   H     0.03641   0.63320   0.94862   0.00000  Uiso   1.00
H393   H     0.96986   0.57513   0.87816   0.00000  Uiso   1.00
H394   H     0.99867   0.66731   0.05192   0.00000  Uiso   1.00
H395   H     0.14447   0.64262   0.92359   0.00000  Uiso   1.00
H396   H     0.89009   0.53372   0.78780   0.00000  Uiso   1.00
H397   H     0.95087   0.72810   0.15419   0.00000  Uiso   1.00
H398   H     0.25832   0.67602   0.88359   0.00000  Uiso   1.00
H399   H     0.99045   0.81021   0.85422   0.00000  Uiso   1.00
H400   H     0.92138   0.76185   0.77857   0.00000  Uiso   1.00
H401   H     0.95019   0.85403   0.95233   0.00000  Uiso   1.00
H402   H     0.09599   0.82933   0.82401   0.00000  Uiso   1.00
H403   H     0.85075   0.68526   0.70697   0.00000  Uiso   1.00
H404   H     0.91152   0.87964   0.07337   0.00000  Uiso   1.00
H405   H     0.21897   0.82757   0.80277   0.00000  Uiso   1.00
O406   O     0.82580   0.57449   0.69933   0.00000  Uiso   1.00
O407   O     0.90554   0.82950   0.18003   0.00000  Uiso   1.00
O408   O     0.30891   0.76118   0.82501   0.00000  Uiso   1.00
N409   N     0.89032   0.57602   0.77915   0.00000  Uiso   1.00
N410   N     0.94713   0.75775   0.12170   0.00000  Uiso   1.00
N411   N     0.23458   0.70907   0.86873   0.00000  Uiso   1.00
N412   N     0.86915   0.65757   0.73565   0.00000  Uiso   1.00
N413   N     0.92596   0.83929   0.07821   0.00000  Uiso   1.00
N414   N     0.21341   0.79061   0.82524   0.00000  Uiso   1.00
C415   C     0.97412   0.32625   0.92699   0.00000  Uiso   1.00
C416   C     0.01665   0.33325   0.87561   0.00000  Uiso   1.00
C417   C     0.04062   0.38457   0.85664   0.00000  Uiso   1.00
C418   C     0.07864   0.38195   0.80885   0.00000  Uiso   1.00
C419   C     0.14263   0.40075   0.73332   0.00000  Uiso   1.00
C420   C     0.00100   0.28317   0.97002   0.00000  Uiso   1.00
C421   C     0.01180   0.29238   0.03043   0.00000  Uiso   1.00
C422   C     0.03664   0.24759   0.06212   0.00000  Uiso   1.00
C423   C     0.07631   0.18863   0.13317   0.00000  Uiso   1.00
C424   C     0.92178   0.29659   0.90029   0.00000  Uiso   1.00
C425   C     0.86598   0.31707   0.90209   0.00000  Uiso   1.00
C426   C     0.82412   0.28359   0.87508   0.00000  Uiso   1.00
C427   C     0.74079   0.24546   0.83787   0.00000  Uiso   1.00
C428   C     0.99902   0.23035   0.87584   0.00000  Uiso   1.00
C429   C     0.03017   0.28116   0.84783   0.00000  Uiso   1.00
C430   C     0.06816   0.27847   0.80006   0.00000  Uiso   1.00
C431   C     0.09218   0.32977   0.78102   0.00000  Uiso   1.00
C432   C     0.01452   0.23108   0.94224   0.00000  Uiso   1.00
C433   C     0.03935   0.18628   0.97385   0.00000  Uiso   1.00
C434   C     0.05019   0.19541   0.03429   0.00000  Uiso   1.00
C435   C     0.93531   0.24450   0.87251   0.00000  Uiso   1.00
C436   C     0.89353   0.21098   0.84550   0.00000  Uiso   1.00
C437   C     0.83767   0.23140   0.84725   0.00000  Uiso   1.00
H438   H     0.96359   0.36680   0.94862   0.00000  Uiso   1.00
H439   H     0.03014   0.42487   0.87816   0.00000  Uiso   1.00
H440   H     0.00133   0.33269   0.05192   0.00000  Uiso   1.00
H441   H     0.85553   0.35738   0.92359   0.00000  Uiso   1.00
H442   H     0.10991   0.46628   0.78780   0.00000  Uiso   1.00
H443   H     0.04913   0.27190   0.15419   0.00000  Uiso   1.00
H444   H     0.74168   0.32398   0.88359   0.00000  Uiso   1.00
H445   H     0.00955   0.18979   0.85422   0.00000  Uiso   1.00
H446   H     0.07862   0.23815   0.77857   0.00000  Uiso   1.00
H447   H     0.04981   0.14597   0.95233   0.00000  Uiso   1.00
H448   H     0.90401   0.17067   0.82401   0.00000  Uiso   1.00
H449   H     0.14925   0.31474   0.70697   0.00000  Uiso   1.00
H450   H     0.08848   0.12036   0.07337   0.00000  Uiso   1.00
H451   H     0.78103   0.17243   0.80277   0.00000  Uiso   1.00
O452   O     0.17420   0.42551   0.69933   0.00000  Uiso   1.00
O453   O     0.09446   0.17050   0.18003   0.00000  Uiso   1.00
O454   O     0.69109   0.23882   0.82501   0.00000  Uiso   1.00
N455   N     0.10968   0.42398   0.77915   0.00000  Uiso   1.00
N456   N     0.05287   0.24225   0.12170   0.00000  Uiso   1.00
N457   N     0.76542   0.29093   0.86873   0.00000  Uiso   1.00
N458   N     0.13085   0.34243   0.73565   0.00000  Uiso   1.00
N459   N     0.07404   0.16071   0.07821   0.00000  Uiso   1.00
N460   N     0.78659   0.20939   0.82524   0.00000  Uiso   1.00
C461   C     0.82625   0.52588   0.92699   0.00000  Uiso   1.00
C462   C     0.83325   0.48335   0.87561   0.00000  Uiso   1.00
C463   C     0.88457   0.45938   0.85664   0.00000  Uiso   1.00
C464   C     0.88195   0.42136   0.80885   0.00000  Uiso   1.00
C465   C     0.90075   0.35737   0.73332   0.00000  Uiso   1.00
C466   C     0.78317   0.49900   0.97002   0.00000  Uiso   1.00
C467   C     0.79238   0.48820   0.03043   0.00000  Uiso   1.00
C468   C     0.74759   0.46336   0.06212   0.00000  Uiso   1.00
C469   C     0.68863   0.42369   0.13317   0.00000  Uiso   1.00
C470   C     0.79659   0.57822   0.90029   0.00000  Uiso   1.00
C471   C     0.81707   0.63402   0.90209   0.00000  Uiso   1.00
C472   C     0.78359   0.67588   0.87508   0.00000  Uiso   1.00
C473   C     0.74546   0.75921   0.83787   0.00000  Uiso   1.00
C474   C     0.73035   0.50098   0.87584   0.00000  Uiso   1.00
C475   C     0.78116   0.46983   0.84783   0.00000  Uiso   1.00
C476   C     0.77847   0.43184   0.80006   0.00000  Uiso   1.00
C477   C     0.82977   0.40782   0.78102   0.00000  Uiso   1.00
C478   C     0.73108   0.48548   0.94224   0.00000  Uiso   1.00
C479   C     0.68628   0.46065   0.97385   0.00000  Uiso   1.00
C480   C     0.69541   0.44981   0.03429   0.00000  Uiso   1.00
C481   C     0.74450   0.56469   0.87251   0.00000  Uiso   1.00
C482   C     0.71098   0.60647   0.84550   0.00000  Uiso   1.00
C483   C     0.73140   0.66233   0.84725   0.00000  Uiso   1.00
H484   H     0.86680   0.53641   0.94862   0.00000  Uiso   1.00
H485   H     0.92487   0.46986   0.87816   0.00000  Uiso   1.00
H486   H     0.83269   0.49867   0.05192   0.00000  Uiso   1.00
H487   H     0.85738   0.64447   0.92359   0.00000  Uiso   1.00
H488   H     0.96628   0.39009   0.78780   0.00000  Uiso   1.00
H489   H     0.77190   0.45087   0.15419   0.00000  Uiso   1.00
H490   H     0.82398   0.75832   0.88359   0.00000  Uiso   1.00
H491   H     0.68979   0.49045   0.85422   0.00000  Uiso   1.00
H492   H     0.73815   0.42138   0.77857   0.00000  Uiso   1.00
H493   H     0.64597   0.45019   0.95233   0.00000  Uiso   1.00
H494   H     0.67067   0.59599   0.82401   0.00000  Uiso   1.00
H495   H     0.81474   0.35075   0.70697   0.00000  Uiso   1.00
H496   H     0.62036   0.41152   0.07337   0.00000  Uiso   1.00
H497   H     0.67243   0.71897   0.80277   0.00000  Uiso   1.00
O498   O     0.92551   0.32580   0.69933   0.00000  Uiso   1.00
O499   O     0.67050   0.40554   0.18003   0.00000  Uiso   1.00
O500   O     0.73882   0.80891   0.82501   0.00000  Uiso   1.00
N501   N     0.92398   0.39032   0.77915   0.00000  Uiso   1.00
N502   N     0.74225   0.44713   0.12170   0.00000  Uiso   1.00
N503   N     0.79093   0.73458   0.86873   0.00000  Uiso   1.00
N504   N     0.84243   0.36915   0.73565   0.00000  Uiso   1.00
N505   N     0.66071   0.42596   0.07821   0.00000  Uiso   1.00
N506   N     0.70939   0.71341   0.82524   0.00000  Uiso   1.00
C507   C     0.17375   0.47412   0.92699   0.00000  Uiso   1.00
C508   C     0.16675   0.51665   0.87561   0.00000  Uiso   1.00
C509   C     0.11543   0.54062   0.85664   0.00000  Uiso   1.00
C510   C     0.11805   0.57864   0.80885   0.00000  Uiso   1.00
C511   C     0.09925   0.64263   0.73332   0.00000  Uiso   1.00
C512   C     0.21683   0.50100   0.97002   0.00000  Uiso   1.00
C513   C     0.20762   0.51180   0.03043   0.00000  Uiso   1.00
C514   C     0.25241   0.53664   0.06212   0.00000  Uiso   1.00
C515   C     0.31137   0.57631   0.13317   0.00000  Uiso   1.00
C516   C     0.20341   0.42178   0.90029   0.00000  Uiso   1.00
C517   C     0.18293   0.36598   0.90209   0.00000  Uiso   1.00
C518   C     0.21641   0.32412   0.87508   0.00000  Uiso   1.00
C519   C     0.25454   0.24079   0.83787   0.00000  Uiso   1.00
C520   C     0.26965   0.49902   0.87584   0.00000  Uiso   1.00
C521   C     0.21884   0.53017   0.84783   0.00000  Uiso   1.00
C522   C     0.22153   0.56816   0.80006   0.00000  Uiso   1.00
C523   C     0.17023   0.59218   0.78102   0.00000  Uiso   1.00
C524   C     0.26892   0.51452   0.94224   0.00000  Uiso   1.00
C525   C     0.31372   0.53935   0.97385   0.00000  Uiso   1.00
C526   C     0.30459   0.55019   0.03429   0.00000  Uiso   1.00
C527   C     0.25550   0.43531   0.87251   0.00000  Uiso   1.00
C528   C     0.28902   0.39353   0.84550   0.00000  Uiso   1.00
C529   C     0.26860   0.33767   0.84725   0.00000  Uiso   1.00
H530   H     0.13320   0.46359   0.94862   0.00000  Uiso   1.00
H531   H     0.07513   0.53014   0.87816   0.00000  Uiso   1.00
H532   H     0.16731   0.50133   0.05192   0.00000  Uiso   1.00
H533   H     0.14262   0.35553   0.92359   0.00000  Uiso   1.00
H534   H     0.03372   0.60991   0.78780   0.00000  Uiso   1.00
H535   H     0.22810   0.54913   0.15419   0.00000  Uiso   1.00
H536   H     0.17602   0.24168   0.88359   0.00000  Uiso   1.00
H537   H     0.31021   0.50955   0.85422   0.00000  Uiso   1.00
H538   H     0.26185   0.57862   0.77857   0.00000  Uiso   1.00
H539   H     0.35403   0.54981   0.95233   0.00000  Uiso   1.00
H540   H     0.32933   0.40401   0.82401   0.00000  Uiso   1.00
H541   H     0.18526   0.64925   0.70697   0.00000  Uiso   1.00
H542   H     0.37964   0.58848   0.07337   0.00000  Uiso   1.00
H543   H     0.32757   0.28103   0.80277   0.00000  Uiso   1.00
O544   O     0.07449   0.67420   0.69933   0.00000  Uiso   1.00
O545   O     0.32950   0.59446   0.18003   0.00000  Uiso   1.00
O546   O     0.26118   0.19109   0.82501   0.00000  Uiso   1.00
N547   N     0.07602   0.60968   0.77915   0.00000  Uiso   1.00
N548   N     0.25775   0.55287   0.12170   0.00000  Uiso   1.00
N549   N     0.20907   0.26542   0.86873   0.00000  Uiso   1.00
N550   N     0.15757   0.63085   0.73565   0.00000  Uiso   1.00
N551   N     0.33929   0.57404   0.07821   0.00000  Uiso   1.00
N552   N     0.29061   0.28659   0.82524   0.00000  Uiso   1.00
C553   C     0.47412   0.17375   0.57301   0.00000  Uiso   1.00
C554   C     0.51665   0.16675   0.62439   0.00000  Uiso   1.00
C555   C     0.54062   0.11543   0.64336   0.00000  Uiso   1.00
C556   C     0.57864   0.11805   0.69115   0.00000  Uiso   1.00
C557   C     0.64263   0.09925   0.76668   0.00000  Uiso   1.00
C558   C     0.50100   0.21683   0.52998   0.00000  Uiso   1.00
C559   C     0.51180   0.20762   0.46957   0.00000  Uiso   1.00
C560   C     0.53664   0.25241   0.43788   0.00000  Uiso   1.00
C561   C     0.57631   0.31137   0.36683   0.00000  Uiso   1.00
C562   C     0.42178   0.20341   0.59971   0.00000  Uiso   1.00
C563   C     0.36598   0.18293   0.59791   0.00000  Uiso   1.00
C564   C     0.32412   0.21641   0.62492   0.00000  Uiso   1.00
C565   C     0.24079   0.25454   0.66213   0.00000  Uiso   1.00
C566   C     0.49902   0.26965   0.62416   0.00000  Uiso   1.00
C567   C     0.53017   0.21884   0.65217   0.00000  Uiso   1.00
C568   C     0.56816   0.22153   0.69994   0.00000  Uiso   1.00
C569   C     0.59218   0.17023   0.71898   0.00000  Uiso   1.00
C570   C     0.51452   0.26892   0.55776   0.00000  Uiso   1.00
C571   C     0.53935   0.31372   0.52615   0.00000  Uiso   1.00
C572   C     0.55019   0.30459   0.46571   0.00000  Uiso   1.00
C573   C     0.43531   0.25550   0.62749   0.00000  Uiso   1.00
C574   C     0.39353   0.28902   0.65450   0.00000  Uiso   1.00
C575   C     0.33767   0.26860   0.65275   0.00000  Uiso   1.00
H576   H     0.46359   0.13320   0.55138   0.00000  Uiso   1.00
H577   H     0.53014   0.07513   0.62184   0.00000  Uiso   1.00
H578   H     0.50133   0.16731   0.44808   0.00000  Uiso   1.00
H579   H     0.35553   0.14262   0.57641   0.00000  Uiso   1.00
H580   H     0.60991   0.03372   0.71220   0.00000  Uiso   1.00
H581   H     0.54913   0.22810   0.34581   0.00000  Uiso   1.00
H582   H     0.24168   0.17602   0.61641   0.00000  Uiso   1.00
H583   H     0.50955   0.31021   0.64578   0.00000  Uiso   1.00
H584   H     0.57862   0.26185   0.72143   0.00000  Uiso   1.00
H585   H     0.54981   0.35403   0.54767   0.00000  Uiso   1.00
H586   H     0.40401   0.32933   0.67599   0.00000  Uiso   1.00
H587   H     0.64925   0.18526   0.79303   0.00000  Uiso   1.00
H588   H     0.58848   0.37964   0.42663   0.00000  Uiso   1.00
H589   H     0.28103   0.32757   0.69723   0.00000  Uiso   1.00
O590   O     0.67420   0.07449   0.80067   0.00000  Uiso   1.00
O591   O     0.59446   0.32950   0.31997   0.00000  Uiso   1.00
O592   O     0.19109   0.26118   0.67499   0.00000  Uiso   1.00
N593   N     0.60968   0.07602   0.72085   0.00000  Uiso   1.00
N594   N     0.55287   0.25775   0.37830   0.00000  Uiso   1.00
N595   N     0.26542   0.20907   0.63127   0.00000  Uiso   1.00
N596   N     0.63085   0.15757   0.76435   0.00000  Uiso   1.00
N597   N     0.57404   0.33929   0.42179   0.00000  Uiso   1.00
N598   N     0.28659   0.29061   0.67476   0.00000  Uiso   1.00
C599   C     0.52588   0.82625   0.57301   0.00000  Uiso   1.00
C600   C     0.48335   0.83325   0.62439   0.00000  Uiso   1.00
C601   C     0.45938   0.88457   0.64336   0.00000  Uiso   1.00
C602   C     0.42136   0.88195   0.69115   0.00000  Uiso   1.00
C603   C     0.35737   0.90075   0.76668   0.00000  Uiso   1.00
C604   C     0.49900   0.78317   0.52998   0.00000  Uiso   1.00
C605   C     0.48820   0.79238   0.46957   0.00000  Uiso   1.00
C606   C     0.46336   0.74759   0.43788   0.00000  Uiso   1.00
C607   C     0.42369   0.68863   0.36683   0.00000  Uiso   1.00
C608   C     0.57822   0.79659   0.59971   0.00000  Uiso   1.00
C609   C     0.63402   0.81707   0.59791   0.00000  Uiso   1.00
C610   C     0.67588   0.78359   0.62492   0.00000  Uiso   1.00
C611   C     0.75921   0.74546   0.66213   0.00000  Uiso   1.00
C612   C     0.50098   0.73035   0.62416   0.00000  Uiso   1.00
C613   C     0.46983   0.78116   0.65217   0.00000  Uiso   1.00
C614   C     0.43184   0.77847   0.69994   0.00000  Uiso   1.00
C615   C     0.40782   0.82977   0.71898   0.00000  Uiso   1.00
C616   C     0.48548   0.73108   0.55776   0.00000  Uiso   1.00
C617   C     0.46065   0.68628   0.52615   0.00000  Uiso   1.00
C618   C     0.44981   0.69541   0.46571   0.00000  Uiso   1.00
C619   C     0.56469   0.74450   0.62749   0.00000  Uiso   1.00
C620   C     0.60647   0.71098   0.65450   0.00000  Uiso   1.00
C621   C     0.66233   0.73140   0.65275   0.00000  Uiso   1.00
H622   H     0.53641   0.86680   0.55138   0.00000  Uiso   1.00
H623   H     0.46986   0.92487   0.62184   0.00000  Uiso   1.00
H624   H     0.49867   0.83269   0.44808   0.00000  Uiso   1.00
H625   H     0.64447   0.85738   0.57641   0.00000  Uiso   1.00
H626   H     0.39009   0.96628   0.71220   0.00000  Uiso   1.00
H627   H     0.45087   0.77190   0.34581   0.00000  Uiso   1.00
H628   H     0.75832   0.82398   0.61641   0.00000  Uiso   1.00
H629   H     0.49045   0.68979   0.64578   0.00000  Uiso   1.00
H630   H     0.42138   0.73815   0.72143   0.00000  Uiso   1.00
H631   H     0.45019   0.64597   0.54767   0.00000  Uiso   1.00
H632   H     0.59599   0.67067   0.67599   0.00000  Uiso   1.00
H633   H     0.35075   0.81474   0.79303   0.00000  Uiso   1.00
H634   H     0.41152   0.62036   0.42663   0.00000  Uiso   1.00
H635   H     0.71897   0.67243   0.69723   0.00000  Uiso   1.00
O636   O     0.32580   0.92551   0.80067   0.00000  Uiso   1.00
O637   O     0.40554   0.67050   0.31997   0.00000  Uiso   1.00
O638   O     0.80891   0.73882   0.67499   0.00000  Uiso   1.00
N639   N     0.39032   0.92398   0.72085   0.00000  Uiso   1.00
N640   N     0.44713   0.74225   0.37830   0.00000  Uiso   1.00
N641   N     0.73458   0.79093   0.63127   0.00000  Uiso   1.00
N642   N     0.36915   0.84243   0.76435   0.00000  Uiso   1.00
N643   N     0.42596   0.66071   0.42179   0.00000  Uiso   1.00
N644   N     0.71341   0.70939   0.67476   0.00000  Uiso   1.00
C645   C     0.67375   0.02588   0.57301   0.00000  Uiso   1.00
C646   C     0.66675   0.98335   0.62439   0.00000  Uiso   1.00
C647   C     0.61543   0.95938   0.64336   0.00000  Uiso   1.00
C648   C     0.61805   0.92136   0.69115   0.00000  Uiso   1.00
C649   C     0.59925   0.85737   0.76668   0.00000  Uiso   1.00
C650   C     0.71683   0.99900   0.52998   0.00000  Uiso   1.00
C651   C     0.70762   0.98820   0.46957   0.00000  Uiso   1.00
C652   C     0.75241   0.96336   0.43788   0.00000  Uiso   1.00
C653   C     0.81137   0.92369   0.36683   0.00000  Uiso   1.00
C654   C     0.70341   0.07822   0.59971   0.00000  Uiso   1.00
C655   C     0.68293   0.13402   0.59791   0.00000  Uiso   1.00
C656   C     0.71641   0.17588   0.62492   0.00000  Uiso   1.00
C657   C     0.75454   0.25921   0.66213   0.00000  Uiso   1.00
C658   C     0.76965   0.00098   0.62416   0.00000  Uiso   1.00
C659   C     0.71884   0.96983   0.65217   0.00000  Uiso   1.00
C660   C     0.72153   0.93184   0.69994   0.00000  Uiso   1.00
C661   C     0.67023   0.90782   0.71898   0.00000  Uiso   1.00
C662   C     0.76892   0.98548   0.55776   0.00000  Uiso   1.00
C663   C     0.81372   0.96065   0.52615   0.00000  Uiso   1.00
C664   C     0.80459   0.94981   0.46571   0.00000  Uiso   1.00
C665   C     0.75550   0.06469   0.62749   0.00000  Uiso   1.00
C666   C     0.78902   0.10647   0.65450   0.00000  Uiso   1.00
C667   C     0.76860   0.16233   0.65275   0.00000  Uiso   1.00
H668   H     0.63320   0.03641   0.55138   0.00000  Uiso   1.00
H669   H     0.57513   0.96986   0.62184   0.00000  Uiso   1.00
H670   H     0.66731   0.99867   0.44808   0.00000  Uiso   1.00
H671   H     0.64262   0.14447   0.57641   0.00000  Uiso   1.00
H672   H     0.53372   0.89009   0.71220   0.00000  Uiso   1.00
H673   H     0.72810   0.95087   0.34581   0.00000  Uiso   1.00
H674   H     0.67602   0.25832   0.61641   0.00000  Uiso   1.00
H675   H     0.81021   0.99045   0.64578   0.00000  Uiso   1.00
H676   H     0.76185   0.92138   0.72143   0.00000  Uiso   1.00
H677   H     0.85403   0.95019   0.54767   0.00000  Uiso   1.00
H678   H     0.82933   0.09599   0.67599   0.00000  Uiso   1.00
H679   H     0.68526   0.85075   0.79303   0.00000  Uiso   1.00
H680   H     0.87964   0.91152   0.42663   0.00000  Uiso   1.00
H681   H     0.82757   0.21897   0.69723   0.00000  Uiso   1.00
O682   O     0.57449   0.82580   0.80067   0.00000  Uiso   1.00
O683   O     0.82950   0.90554   0.31997   0.00000  Uiso   1.00
O684   O     0.76118   0.30891   0.67499   0.00000  Uiso   1.00
N685   N     0.57602   0.89032   0.72085   0.00000  Uiso   1.00
N686   N     0.75775   0.94713   0.37830   0.00000  Uiso   1.00
N687   N     0.70907   0.23458   0.63127   0.00000  Uiso   1.00
N688   N     0.65757   0.86915   0.76435   0.00000  Uiso   1.00
N689   N     0.83929   0.92596   0.42179   0.00000  Uiso   1.00
N690   N     0.79061   0.21341   0.67476   0.00000  Uiso   1.00
C691   C     0.32625   0.97412   0.57301   0.00000  Uiso   1.00
C692   C     0.33325   0.01665   0.62439   0.00000  Uiso   1.00
C693   C     0.38457   0.04062   0.64336   0.00000  Uiso   1.00
C694   C     0.38195   0.07864   0.69115   0.00000  Uiso   1.00
C695   C     0.40075   0.14263   0.76668   0.00000  Uiso   1.00
C696   C     0.28317   0.00100   0.52998   0.00000  Uiso   1.00
C697   C     0.29238   0.01180   0.46957   0.00000  Uiso   1.00
C698   C     0.24759   0.03664   0.43788   0.00000  Uiso   1.00
C699   C     0.18863   0.07631   0.36683   0.00000  Uiso   1.00
C700   C     0.29659   0.92178   0.59971   0.00000  Uiso   1.00
C701   C     0.31707   0.86598   0.59791   0.00000  Uiso   1.00
C702   C     0.28359   0.82412   0.62492   0.00000  Uiso   1.00
C703   C     0.24546   0.74079   0.66213   0.00000  Uiso   1.00
C704   C     0.23035   0.99902   0.62416   0.00000  Uiso   1.00
C705   C     0.28116   0.03017   0.65217   0.00000  Uiso   1.00
C706   C     0.27847   0.06816   0.69994   0.00000  Uiso   1.00
C707   C     0.32977   0.09218   0.71898   0.00000  Uiso   1.00
C708   C     0.23108   0.01452   0.55776   0.00000  Uiso   1.00
C709   C     0.18628   0.03935   0.52615   0.00000  Uiso   1.00
C710   C     0.19541   0.05019   0.46571   0.00000  Uiso   1.00
C711   C     0.24450   0.93531   0.62749   0.00000  Uiso   1.00
C712   C     0.21098   0.89353   0.65450   0.00000  Uiso   1.00
C713   C     0.23140   0.83767   0.65275   0.00000  Uiso   1.00
H714   H     0.36680   0.96359   0.55138   0.00000  Uiso   1.00
H715   H     0.42487   0.03014   0.62184   0.00000  Uiso   1.00
H716   H     0.33269   0.00133   0.44808   0.00000  Uiso   1.00
H717   H     0.35738   0.85553   0.57641   0.00000  Uiso   1.00
H718   H     0.46628   0.10991   0.71220   0.00000  Uiso   1.00
H719   H     0.27190   0.04913   0.34581   0.00000  Uiso   1.00
H720   H     0.32398   0.74168   0.61641   0.00000  Uiso   1.00
H721   H     0.18979   0.00955   0.64578   0.00000  Uiso   1.00
H722   H     0.23815   0.07862   0.72143   0.00000  Uiso   1.00
H723   H     0.14597   0.04981   0.54767   0.00000  Uiso   1.00
H724   H     0.17067   0.90401   0.67599   0.00000  Uiso   1.00
H725   H     0.31474   0.14925   0.79303   0.00000  Uiso   1.00
H726   H     0.12036   0.08848   0.42663   0.00000  Uiso   1.00
H727   H     0.17243   0.78103   0.69723   0.00000  Uiso   1.00
O728   O     0.42551   0.17420   0.80067   0.00000  Uiso   1.00
O729   O     0.17050   0.09446   0.31997   0.00000  Uiso   1.00
O730   O     0.23882   0.69109   0.67499   0.00000  Uiso   1.00
N731   N     0.42398   0.10968   0.72085   0.00000  Uiso   1.00
N732   N     0.24225   0.05287   0.37830   0.00000  Uiso   1.00
N733   N     0.29093   0.76542   0.63127   0.00000  Uiso   1.00
N734   N     0.34243   0.13085   0.76435   0.00000  Uiso   1.00
N735   N     0.16071   0.07404   0.42179   0.00000  Uiso   1.00
N736   N     0.20939   0.78659   0.67476   0.00000  Uiso   1.00
