data_job_00677
_audit_creation_date              2018-12-19
_audit_creation_method            'Materials Studio'
_symmetry_space_group_name_H-M    'P1'
_symmetry_Int_Tables_number       1
_symmetry_cell_setting            triclinic
loop_
_symmetry_equiv_pos_as_xyz
  x,y,z
_cell_length_a                    40.2201
_cell_length_b                    35.8026
_cell_length_c                    7.0889
_cell_angle_alpha                 90.0000
_cell_angle_beta                  90.0000
_cell_angle_gamma                 90.0000
loop_
_atom_site_label
_atom_site_type_symbol
_atom_site_fract_x
_atom_site_fract_y
_atom_site_fract_z
_atom_site_U_iso_or_equiv
_atom_site_adp_type
_atom_site_occupancy
C1     C     0.65707   0.79483   0.52409   0.00000  Uiso   1.00
C2     C     0.67507   0.82127   0.65828   0.00000  Uiso   1.00
C3     C     0.68916   0.85532   0.60959   0.00000  Uiso   1.00
C4     C     0.70452   0.87536   0.75283   0.00000  Uiso   1.00
C5     C     0.73230   0.91848   0.93299   0.00000  Uiso   1.00
C6     C     0.67503   0.75744   0.53923   0.00000  Uiso   1.00
C7     C     0.68909   0.73781   0.39043   0.00000  Uiso   1.00
C8     C     0.70441   0.70412   0.43345   0.00000  Uiso   1.00
C9     C     0.73211   0.64812   0.42876   0.00000  Uiso   1.00
C10    C     0.62262   0.78868   0.60844   0.00000  Uiso   1.00
C11    C     0.59261   0.79531   0.51782   0.00000  Uiso   1.00
C12    C     0.56381   0.78792   0.61910   0.00000  Uiso   1.00
C13    C     0.51014   0.78043   0.72188   0.00000  Uiso   1.00
C14    C     0.65928   0.76989   0.86508   0.00000  Uiso   1.00
C15    C     0.67627   0.80773   0.84349   0.00000  Uiso   1.00
C16    C     0.69161   0.82773   0.98685   0.00000  Uiso   1.00
C17    C     0.70572   0.86180   0.93837   0.00000  Uiso   1.00
C18    C     0.67623   0.74390   0.72443   0.00000  Uiso   1.00
C19    C     0.69154   0.71022   0.76768   0.00000  Uiso   1.00
C20    C     0.70561   0.69055   0.61899   0.00000  Uiso   1.00
C21    C     0.62382   0.77514   0.79365   0.00000  Uiso   1.00
C22    C     0.59506   0.76773   0.89509   0.00000  Uiso   1.00
C23    C     0.56501   0.77435   0.80464   0.00000  Uiso   1.00
H24    H     0.65614   0.80537   0.37990   0.00000  Uiso   1.00
H25    H     0.68823   0.86579   0.46623   0.00000  Uiso   1.00
H26    H     0.68815   0.74830   0.24711   0.00000  Uiso   1.00
H27    H     0.59169   0.80579   0.37450   0.00000  Uiso   1.00
H28    H     0.72435   0.92679   0.64362   0.00000  Uiso   1.00
H29    H     0.72418   0.67905   0.18158   0.00000  Uiso   1.00
H30    H     0.52078   0.80029   0.45018   0.00000  Uiso   1.00
H31    H     0.66022   0.75935   0.00927   0.00000  Uiso   1.00
H32    H     0.69253   0.81724   0.13016   0.00000  Uiso   1.00
H33    H     0.69246   0.69975   0.91102   0.00000  Uiso   1.00
H34    H     0.59600   0.75725   0.03841   0.00000  Uiso   1.00
H35    H     0.72785   0.88739   0.18248   0.00000  Uiso   1.00
H36    H     0.72767   0.63965   0.72043   0.00000  Uiso   1.00
H37    H     0.52427   0.76089   0.98904   0.00000  Uiso   1.00
O38    O     0.74730   0.94600   0.98120   0.00000  Uiso   1.00
O39    O     0.74706   0.62097   0.37501   0.00000  Uiso   1.00
O40    O     0.48020   0.78004   0.72741   0.00000  Uiso   1.00
N41    N     0.72073   0.90958   0.75386   0.00000  Uiso   1.00
N42    N     0.72058   0.67796   0.32188   0.00000  Uiso   1.00
N43    N     0.53041   0.79130   0.57298   0.00000  Uiso   1.00
N44    N     0.72261   0.88837   0.04382   0.00000  Uiso   1.00
N45    N     0.72246   0.65676   0.61183   0.00000  Uiso   1.00
N46    N     0.53229   0.77010   0.86294   0.00000  Uiso   1.00
C47    C     0.65707   0.29483   0.02409   0.00000  Uiso   1.00
C48    C     0.67507   0.32127   0.15828   0.00000  Uiso   1.00
C49    C     0.68916   0.35532   0.10959   0.00000  Uiso   1.00
C50    C     0.70452   0.37536   0.25283   0.00000  Uiso   1.00
C51    C     0.73230   0.41848   0.43299   0.00000  Uiso   1.00
C52    C     0.67503   0.25744   0.03923   0.00000  Uiso   1.00
C53    C     0.68909   0.23781   0.89043   0.00000  Uiso   1.00
C54    C     0.70441   0.20412   0.93345   0.00000  Uiso   1.00
C55    C     0.73211   0.14812   0.92876   0.00000  Uiso   1.00
C56    C     0.62262   0.28868   0.10844   0.00000  Uiso   1.00
C57    C     0.59261   0.29531   0.01782   0.00000  Uiso   1.00
C58    C     0.56381   0.28792   0.11910   0.00000  Uiso   1.00
C59    C     0.51014   0.28043   0.22188   0.00000  Uiso   1.00
C60    C     0.65928   0.26989   0.36508   0.00000  Uiso   1.00
C61    C     0.67627   0.30773   0.34349   0.00000  Uiso   1.00
C62    C     0.69161   0.32773   0.48685   0.00000  Uiso   1.00
C63    C     0.70572   0.36180   0.43837   0.00000  Uiso   1.00
C64    C     0.67623   0.24390   0.22443   0.00000  Uiso   1.00
C65    C     0.69154   0.21022   0.26768   0.00000  Uiso   1.00
C66    C     0.70561   0.19055   0.11899   0.00000  Uiso   1.00
C67    C     0.62382   0.27514   0.29365   0.00000  Uiso   1.00
C68    C     0.59506   0.26773   0.39509   0.00000  Uiso   1.00
C69    C     0.56501   0.27435   0.30464   0.00000  Uiso   1.00
H70    H     0.65614   0.30537   0.87990   0.00000  Uiso   1.00
H71    H     0.68823   0.36579   0.96623   0.00000  Uiso   1.00
H72    H     0.68815   0.24830   0.74711   0.00000  Uiso   1.00
H73    H     0.59169   0.30579   0.87450   0.00000  Uiso   1.00
H74    H     0.72435   0.42679   0.14362   0.00000  Uiso   1.00
H75    H     0.72418   0.17905   0.68158   0.00000  Uiso   1.00
H76    H     0.52078   0.30029   0.95018   0.00000  Uiso   1.00
H77    H     0.66022   0.25935   0.50927   0.00000  Uiso   1.00
H78    H     0.69253   0.31724   0.63016   0.00000  Uiso   1.00
H79    H     0.69246   0.19975   0.41102   0.00000  Uiso   1.00
H80    H     0.59600   0.25725   0.53841   0.00000  Uiso   1.00
H81    H     0.72785   0.38739   0.68248   0.00000  Uiso   1.00
H82    H     0.72767   0.13965   0.22043   0.00000  Uiso   1.00
H83    H     0.52427   0.26089   0.48904   0.00000  Uiso   1.00
O84    O     0.74730   0.44600   0.48120   0.00000  Uiso   1.00
O85    O     0.74706   0.12097   0.87501   0.00000  Uiso   1.00
O86    O     0.48020   0.28004   0.22741   0.00000  Uiso   1.00
N87    N     0.72073   0.40958   0.25386   0.00000  Uiso   1.00
N88    N     0.72058   0.17796   0.82188   0.00000  Uiso   1.00
N89    N     0.53041   0.29130   0.07298   0.00000  Uiso   1.00
N90    N     0.72261   0.38837   0.54382   0.00000  Uiso   1.00
N91    N     0.72246   0.15676   0.11183   0.00000  Uiso   1.00
N92    N     0.53229   0.27010   0.36294   0.00000  Uiso   1.00
C93    C     0.15707   0.79483   0.02409   0.00000  Uiso   1.00
C94    C     0.17507   0.82127   0.15828   0.00000  Uiso   1.00
C95    C     0.18916   0.85532   0.10959   0.00000  Uiso   1.00
C96    C     0.20452   0.87536   0.25283   0.00000  Uiso   1.00
C97    C     0.23230   0.91848   0.43299   0.00000  Uiso   1.00
C98    C     0.17503   0.75744   0.03923   0.00000  Uiso   1.00
C99    C     0.18909   0.73781   0.89043   0.00000  Uiso   1.00
C100   C     0.20441   0.70412   0.93345   0.00000  Uiso   1.00
C101   C     0.23211   0.64812   0.92876   0.00000  Uiso   1.00
C102   C     0.12262   0.78868   0.10844   0.00000  Uiso   1.00
C103   C     0.09261   0.79531   0.01782   0.00000  Uiso   1.00
C104   C     0.06381   0.78792   0.11910   0.00000  Uiso   1.00
C105   C     0.01014   0.78043   0.22188   0.00000  Uiso   1.00
C106   C     0.15928   0.76989   0.36508   0.00000  Uiso   1.00
C107   C     0.17627   0.80773   0.34349   0.00000  Uiso   1.00
C108   C     0.19161   0.82773   0.48685   0.00000  Uiso   1.00
C109   C     0.20572   0.86180   0.43837   0.00000  Uiso   1.00
C110   C     0.17623   0.74390   0.22443   0.00000  Uiso   1.00
C111   C     0.19154   0.71022   0.26768   0.00000  Uiso   1.00
C112   C     0.20561   0.69055   0.11899   0.00000  Uiso   1.00
C113   C     0.12382   0.77514   0.29365   0.00000  Uiso   1.00
C114   C     0.09506   0.76773   0.39509   0.00000  Uiso   1.00
C115   C     0.06501   0.77435   0.30464   0.00000  Uiso   1.00
H116   H     0.15614   0.80537   0.87990   0.00000  Uiso   1.00
H117   H     0.18823   0.86579   0.96623   0.00000  Uiso   1.00
H118   H     0.18815   0.74830   0.74711   0.00000  Uiso   1.00
H119   H     0.09169   0.80579   0.87450   0.00000  Uiso   1.00
H120   H     0.22435   0.92679   0.14362   0.00000  Uiso   1.00
H121   H     0.22418   0.67905   0.68158   0.00000  Uiso   1.00
H122   H     0.02078   0.80029   0.95018   0.00000  Uiso   1.00
H123   H     0.16022   0.75935   0.50927   0.00000  Uiso   1.00
H124   H     0.19253   0.81724   0.63016   0.00000  Uiso   1.00
H125   H     0.19246   0.69975   0.41102   0.00000  Uiso   1.00
H126   H     0.09600   0.75725   0.53841   0.00000  Uiso   1.00
H127   H     0.22785   0.88739   0.68248   0.00000  Uiso   1.00
H128   H     0.22767   0.63965   0.22043   0.00000  Uiso   1.00
H129   H     0.02427   0.76089   0.48904   0.00000  Uiso   1.00
O130   O     0.24730   0.94600   0.48120   0.00000  Uiso   1.00
O131   O     0.24706   0.62097   0.87501   0.00000  Uiso   1.00
O132   O     0.98020   0.78004   0.22741   0.00000  Uiso   1.00
N133   N     0.22073   0.90958   0.25386   0.00000  Uiso   1.00
N134   N     0.22058   0.67796   0.82188   0.00000  Uiso   1.00
N135   N     0.03041   0.79130   0.07298   0.00000  Uiso   1.00
N136   N     0.22261   0.88837   0.54382   0.00000  Uiso   1.00
N137   N     0.22246   0.65676   0.11183   0.00000  Uiso   1.00
N138   N     0.03229   0.77010   0.36294   0.00000  Uiso   1.00
C139   C     0.15707   0.29483   0.52409   0.00000  Uiso   1.00
C140   C     0.17507   0.32127   0.65828   0.00000  Uiso   1.00
C141   C     0.18916   0.35532   0.60959   0.00000  Uiso   1.00
C142   C     0.20452   0.37536   0.75283   0.00000  Uiso   1.00
C143   C     0.23230   0.41848   0.93299   0.00000  Uiso   1.00
C144   C     0.17503   0.25744   0.53923   0.00000  Uiso   1.00
C145   C     0.18909   0.23781   0.39043   0.00000  Uiso   1.00
C146   C     0.20441   0.20412   0.43345   0.00000  Uiso   1.00
C147   C     0.23211   0.14812   0.42876   0.00000  Uiso   1.00
C148   C     0.12262   0.28868   0.60844   0.00000  Uiso   1.00
C149   C     0.09261   0.29531   0.51782   0.00000  Uiso   1.00
C150   C     0.06381   0.28792   0.61910   0.00000  Uiso   1.00
C151   C     0.01014   0.28043   0.72188   0.00000  Uiso   1.00
C152   C     0.15928   0.26989   0.86508   0.00000  Uiso   1.00
C153   C     0.17627   0.30773   0.84349   0.00000  Uiso   1.00
C154   C     0.19161   0.32773   0.98685   0.00000  Uiso   1.00
C155   C     0.20572   0.36180   0.93837   0.00000  Uiso   1.00
C156   C     0.17623   0.24390   0.72443   0.00000  Uiso   1.00
C157   C     0.19154   0.21022   0.76768   0.00000  Uiso   1.00
C158   C     0.20561   0.19055   0.61899   0.00000  Uiso   1.00
C159   C     0.12382   0.27514   0.79365   0.00000  Uiso   1.00
C160   C     0.09506   0.26773   0.89509   0.00000  Uiso   1.00
C161   C     0.06501   0.27435   0.80464   0.00000  Uiso   1.00
H162   H     0.15614   0.30537   0.37990   0.00000  Uiso   1.00
H163   H     0.18823   0.36579   0.46623   0.00000  Uiso   1.00
H164   H     0.18815   0.24830   0.24711   0.00000  Uiso   1.00
H165   H     0.09169   0.30579   0.37450   0.00000  Uiso   1.00
H166   H     0.22435   0.42679   0.64362   0.00000  Uiso   1.00
H167   H     0.22418   0.17905   0.18158   0.00000  Uiso   1.00
H168   H     0.02078   0.30029   0.45018   0.00000  Uiso   1.00
H169   H     0.16022   0.25935   0.00927   0.00000  Uiso   1.00
H170   H     0.19253   0.31724   0.13016   0.00000  Uiso   1.00
H171   H     0.19246   0.19975   0.91102   0.00000  Uiso   1.00
H172   H     0.09600   0.25725   0.03841   0.00000  Uiso   1.00
H173   H     0.22785   0.38739   0.18248   0.00000  Uiso   1.00
H174   H     0.22767   0.13965   0.72043   0.00000  Uiso   1.00
H175   H     0.02427   0.26089   0.98904   0.00000  Uiso   1.00
O176   O     0.24730   0.44600   0.98120   0.00000  Uiso   1.00
O177   O     0.24706   0.12097   0.37501   0.00000  Uiso   1.00
O178   O     0.98020   0.28004   0.72741   0.00000  Uiso   1.00
N179   N     0.22073   0.40958   0.75386   0.00000  Uiso   1.00
N180   N     0.22058   0.17796   0.32188   0.00000  Uiso   1.00
N181   N     0.03041   0.29130   0.57298   0.00000  Uiso   1.00
N182   N     0.22261   0.38837   0.04382   0.00000  Uiso   1.00
N183   N     0.22246   0.15676   0.61183   0.00000  Uiso   1.00
N184   N     0.03229   0.27010   0.86294   0.00000  Uiso   1.00
C185   C     0.34293   0.20517   0.52409   0.00000  Uiso   1.00
C186   C     0.32493   0.17873   0.65828   0.00000  Uiso   1.00
C187   C     0.31084   0.14468   0.60959   0.00000  Uiso   1.00
C188   C     0.29548   0.12464   0.75283   0.00000  Uiso   1.00
C189   C     0.26770   0.08152   0.93299   0.00000  Uiso   1.00
C190   C     0.32497   0.24256   0.53923   0.00000  Uiso   1.00
C191   C     0.31091   0.26219   0.39043   0.00000  Uiso   1.00
C192   C     0.29559   0.29588   0.43345   0.00000  Uiso   1.00
C193   C     0.26789   0.35188   0.42876   0.00000  Uiso   1.00
C194   C     0.37738   0.21132   0.60844   0.00000  Uiso   1.00
C195   C     0.40739   0.20469   0.51782   0.00000  Uiso   1.00
C196   C     0.43619   0.21208   0.61910   0.00000  Uiso   1.00
C197   C     0.48986   0.21957   0.72188   0.00000  Uiso   1.00
C198   C     0.34072   0.23011   0.86508   0.00000  Uiso   1.00
C199   C     0.32373   0.19227   0.84349   0.00000  Uiso   1.00
C200   C     0.30839   0.17227   0.98685   0.00000  Uiso   1.00
C201   C     0.29428   0.13820   0.93837   0.00000  Uiso   1.00
C202   C     0.32377   0.25610   0.72443   0.00000  Uiso   1.00
C203   C     0.30846   0.28978   0.76768   0.00000  Uiso   1.00
C204   C     0.29439   0.30945   0.61899   0.00000  Uiso   1.00
C205   C     0.37618   0.22486   0.79365   0.00000  Uiso   1.00
C206   C     0.40494   0.23227   0.89509   0.00000  Uiso   1.00
C207   C     0.43499   0.22565   0.80464   0.00000  Uiso   1.00
H208   H     0.34386   0.19463   0.37990   0.00000  Uiso   1.00
H209   H     0.31177   0.13421   0.46623   0.00000  Uiso   1.00
H210   H     0.31185   0.25170   0.24711   0.00000  Uiso   1.00
H211   H     0.40831   0.19421   0.37450   0.00000  Uiso   1.00
H212   H     0.27565   0.07321   0.64362   0.00000  Uiso   1.00
H213   H     0.27582   0.32095   0.18158   0.00000  Uiso   1.00
H214   H     0.47922   0.19971   0.45018   0.00000  Uiso   1.00
H215   H     0.33978   0.24065   0.00927   0.00000  Uiso   1.00
H216   H     0.30747   0.18276   0.13016   0.00000  Uiso   1.00
H217   H     0.30754   0.30025   0.91102   0.00000  Uiso   1.00
H218   H     0.40400   0.24275   0.03841   0.00000  Uiso   1.00
H219   H     0.27215   0.11261   0.18248   0.00000  Uiso   1.00
H220   H     0.27233   0.36035   0.72043   0.00000  Uiso   1.00
H221   H     0.47573   0.23911   0.98904   0.00000  Uiso   1.00
O222   O     0.25270   0.05400   0.98120   0.00000  Uiso   1.00
O223   O     0.25294   0.37903   0.37501   0.00000  Uiso   1.00
O224   O     0.51980   0.21996   0.72741   0.00000  Uiso   1.00
N225   N     0.27927   0.09042   0.75386   0.00000  Uiso   1.00
N226   N     0.27942   0.32204   0.32188   0.00000  Uiso   1.00
N227   N     0.46959   0.20870   0.57298   0.00000  Uiso   1.00
N228   N     0.27739   0.11163   0.04382   0.00000  Uiso   1.00
N229   N     0.27754   0.34324   0.61183   0.00000  Uiso   1.00
N230   N     0.46771   0.22990   0.86294   0.00000  Uiso   1.00
C231   C     0.34293   0.70517   0.02409   0.00000  Uiso   1.00
C232   C     0.32493   0.67873   0.15828   0.00000  Uiso   1.00
C233   C     0.31084   0.64468   0.10959   0.00000  Uiso   1.00
C234   C     0.29548   0.62464   0.25283   0.00000  Uiso   1.00
C235   C     0.26770   0.58152   0.43299   0.00000  Uiso   1.00
C236   C     0.32497   0.74256   0.03923   0.00000  Uiso   1.00
C237   C     0.31091   0.76219   0.89043   0.00000  Uiso   1.00
C238   C     0.29559   0.79588   0.93345   0.00000  Uiso   1.00
C239   C     0.26789   0.85188   0.92876   0.00000  Uiso   1.00
C240   C     0.37738   0.71132   0.10844   0.00000  Uiso   1.00
C241   C     0.40739   0.70469   0.01782   0.00000  Uiso   1.00
C242   C     0.43619   0.71208   0.11910   0.00000  Uiso   1.00
C243   C     0.48986   0.71957   0.22188   0.00000  Uiso   1.00
C244   C     0.34072   0.73011   0.36508   0.00000  Uiso   1.00
C245   C     0.32373   0.69227   0.34349   0.00000  Uiso   1.00
C246   C     0.30839   0.67227   0.48685   0.00000  Uiso   1.00
C247   C     0.29428   0.63820   0.43837   0.00000  Uiso   1.00
C248   C     0.32377   0.75610   0.22443   0.00000  Uiso   1.00
C249   C     0.30846   0.78978   0.26768   0.00000  Uiso   1.00
C250   C     0.29439   0.80945   0.11899   0.00000  Uiso   1.00
C251   C     0.37618   0.72486   0.29365   0.00000  Uiso   1.00
C252   C     0.40494   0.73227   0.39509   0.00000  Uiso   1.00
C253   C     0.43499   0.72565   0.30464   0.00000  Uiso   1.00
H254   H     0.34386   0.69463   0.87990   0.00000  Uiso   1.00
H255   H     0.31177   0.63421   0.96623   0.00000  Uiso   1.00
H256   H     0.31185   0.75170   0.74711   0.00000  Uiso   1.00
H257   H     0.40831   0.69421   0.87450   0.00000  Uiso   1.00
H258   H     0.27565   0.57321   0.14362   0.00000  Uiso   1.00
H259   H     0.27582   0.82095   0.68158   0.00000  Uiso   1.00
H260   H     0.47922   0.69971   0.95018   0.00000  Uiso   1.00
H261   H     0.33978   0.74065   0.50927   0.00000  Uiso   1.00
H262   H     0.30747   0.68276   0.63016   0.00000  Uiso   1.00
H263   H     0.30754   0.80025   0.41102   0.00000  Uiso   1.00
H264   H     0.40400   0.74275   0.53841   0.00000  Uiso   1.00
H265   H     0.27215   0.61261   0.68248   0.00000  Uiso   1.00
H266   H     0.27233   0.86035   0.22043   0.00000  Uiso   1.00
H267   H     0.47573   0.73911   0.48904   0.00000  Uiso   1.00
O268   O     0.25270   0.55400   0.48120   0.00000  Uiso   1.00
O269   O     0.25294   0.87903   0.87501   0.00000  Uiso   1.00
O270   O     0.51980   0.71996   0.22741   0.00000  Uiso   1.00
N271   N     0.27927   0.59042   0.25386   0.00000  Uiso   1.00
N272   N     0.27942   0.82204   0.82188   0.00000  Uiso   1.00
N273   N     0.46959   0.70870   0.07298   0.00000  Uiso   1.00
N274   N     0.27739   0.61163   0.54382   0.00000  Uiso   1.00
N275   N     0.27754   0.84324   0.11183   0.00000  Uiso   1.00
N276   N     0.46771   0.72990   0.36294   0.00000  Uiso   1.00
C277   C     0.84293   0.20517   0.02409   0.00000  Uiso   1.00
C278   C     0.82493   0.17873   0.15828   0.00000  Uiso   1.00
C279   C     0.81084   0.14468   0.10959   0.00000  Uiso   1.00
C280   C     0.79548   0.12464   0.25283   0.00000  Uiso   1.00
C281   C     0.76770   0.08152   0.43299   0.00000  Uiso   1.00
C282   C     0.82497   0.24256   0.03923   0.00000  Uiso   1.00
C283   C     0.81091   0.26219   0.89043   0.00000  Uiso   1.00
C284   C     0.79559   0.29588   0.93345   0.00000  Uiso   1.00
C285   C     0.76789   0.35188   0.92876   0.00000  Uiso   1.00
C286   C     0.87738   0.21132   0.10844   0.00000  Uiso   1.00
C287   C     0.90739   0.20469   0.01782   0.00000  Uiso   1.00
C288   C     0.93619   0.21208   0.11910   0.00000  Uiso   1.00
C289   C     0.98986   0.21957   0.22188   0.00000  Uiso   1.00
C290   C     0.84072   0.23011   0.36508   0.00000  Uiso   1.00
C291   C     0.82373   0.19227   0.34349   0.00000  Uiso   1.00
C292   C     0.80839   0.17227   0.48685   0.00000  Uiso   1.00
C293   C     0.79428   0.13820   0.43837   0.00000  Uiso   1.00
C294   C     0.82377   0.25610   0.22443   0.00000  Uiso   1.00
C295   C     0.80846   0.28978   0.26768   0.00000  Uiso   1.00
C296   C     0.79439   0.30945   0.11899   0.00000  Uiso   1.00
C297   C     0.87618   0.22486   0.29365   0.00000  Uiso   1.00
C298   C     0.90494   0.23227   0.39509   0.00000  Uiso   1.00
C299   C     0.93499   0.22565   0.30464   0.00000  Uiso   1.00
H300   H     0.84386   0.19463   0.87990   0.00000  Uiso   1.00
H301   H     0.81177   0.13421   0.96623   0.00000  Uiso   1.00
H302   H     0.81185   0.25170   0.74711   0.00000  Uiso   1.00
H303   H     0.90831   0.19421   0.87450   0.00000  Uiso   1.00
H304   H     0.77565   0.07321   0.14362   0.00000  Uiso   1.00
H305   H     0.77582   0.32095   0.68158   0.00000  Uiso   1.00
H306   H     0.97922   0.19971   0.95018   0.00000  Uiso   1.00
H307   H     0.83978   0.24065   0.50927   0.00000  Uiso   1.00
H308   H     0.80747   0.18276   0.63016   0.00000  Uiso   1.00
H309   H     0.80754   0.30025   0.41102   0.00000  Uiso   1.00
H310   H     0.90400   0.24275   0.53841   0.00000  Uiso   1.00
H311   H     0.77215   0.11261   0.68248   0.00000  Uiso   1.00
H312   H     0.77233   0.36035   0.22043   0.00000  Uiso   1.00
H313   H     0.97573   0.23911   0.48904   0.00000  Uiso   1.00
O314   O     0.75270   0.05400   0.48120   0.00000  Uiso   1.00
O315   O     0.75294   0.37903   0.87501   0.00000  Uiso   1.00
O316   O     0.01980   0.21996   0.22741   0.00000  Uiso   1.00
N317   N     0.77927   0.09042   0.25386   0.00000  Uiso   1.00
N318   N     0.77942   0.32204   0.82188   0.00000  Uiso   1.00
N319   N     0.96959   0.20870   0.07298   0.00000  Uiso   1.00
N320   N     0.77739   0.11163   0.54382   0.00000  Uiso   1.00
N321   N     0.77754   0.34324   0.11183   0.00000  Uiso   1.00
N322   N     0.96771   0.22990   0.36294   0.00000  Uiso   1.00
C323   C     0.84293   0.70517   0.52409   0.00000  Uiso   1.00
C324   C     0.82493   0.67873   0.65828   0.00000  Uiso   1.00
C325   C     0.81084   0.64468   0.60959   0.00000  Uiso   1.00
C326   C     0.79548   0.62464   0.75283   0.00000  Uiso   1.00
C327   C     0.76770   0.58152   0.93299   0.00000  Uiso   1.00
C328   C     0.82497   0.74256   0.53923   0.00000  Uiso   1.00
C329   C     0.81091   0.76219   0.39043   0.00000  Uiso   1.00
C330   C     0.79559   0.79588   0.43345   0.00000  Uiso   1.00
C331   C     0.76789   0.85188   0.42876   0.00000  Uiso   1.00
C332   C     0.87738   0.71132   0.60844   0.00000  Uiso   1.00
C333   C     0.90739   0.70469   0.51782   0.00000  Uiso   1.00
C334   C     0.93619   0.71208   0.61910   0.00000  Uiso   1.00
C335   C     0.98986   0.71957   0.72188   0.00000  Uiso   1.00
C336   C     0.84072   0.73011   0.86508   0.00000  Uiso   1.00
C337   C     0.82373   0.69227   0.84349   0.00000  Uiso   1.00
C338   C     0.80839   0.67227   0.98685   0.00000  Uiso   1.00
C339   C     0.79428   0.63820   0.93837   0.00000  Uiso   1.00
C340   C     0.82377   0.75610   0.72443   0.00000  Uiso   1.00
C341   C     0.80846   0.78978   0.76768   0.00000  Uiso   1.00
C342   C     0.79439   0.80945   0.61899   0.00000  Uiso   1.00
C343   C     0.87618   0.72486   0.79365   0.00000  Uiso   1.00
C344   C     0.90494   0.73227   0.89509   0.00000  Uiso   1.00
C345   C     0.93499   0.72565   0.80464   0.00000  Uiso   1.00
H346   H     0.84386   0.69463   0.37990   0.00000  Uiso   1.00
H347   H     0.81177   0.63421   0.46623   0.00000  Uiso   1.00
H348   H     0.81185   0.75170   0.24711   0.00000  Uiso   1.00
H349   H     0.90831   0.69421   0.37450   0.00000  Uiso   1.00
H350   H     0.77565   0.57321   0.64362   0.00000  Uiso   1.00
H351   H     0.77582   0.82095   0.18158   0.00000  Uiso   1.00
H352   H     0.97922   0.69971   0.45018   0.00000  Uiso   1.00
H353   H     0.83978   0.74065   0.00927   0.00000  Uiso   1.00
H354   H     0.80747   0.68276   0.13016   0.00000  Uiso   1.00
H355   H     0.80754   0.80025   0.91102   0.00000  Uiso   1.00
H356   H     0.90400   0.74275   0.03841   0.00000  Uiso   1.00
H357   H     0.77215   0.61261   0.18248   0.00000  Uiso   1.00
H358   H     0.77233   0.86035   0.72043   0.00000  Uiso   1.00
H359   H     0.97573   0.73911   0.98904   0.00000  Uiso   1.00
O360   O     0.75270   0.55400   0.98120   0.00000  Uiso   1.00
O361   O     0.75294   0.87903   0.37501   0.00000  Uiso   1.00
O362   O     0.01980   0.71996   0.72741   0.00000  Uiso   1.00
N363   N     0.77927   0.59042   0.75386   0.00000  Uiso   1.00
N364   N     0.77942   0.82204   0.32188   0.00000  Uiso   1.00
N365   N     0.96959   0.70870   0.57298   0.00000  Uiso   1.00
N366   N     0.77739   0.61163   0.04382   0.00000  Uiso   1.00
N367   N     0.77754   0.84324   0.61183   0.00000  Uiso   1.00
N368   N     0.96771   0.72990   0.86294   0.00000  Uiso   1.00
C369   C     0.90707   0.45517   0.77409   0.00000  Uiso   1.00
C370   C     0.92507   0.42873   0.90828   0.00000  Uiso   1.00
C371   C     0.93916   0.39468   0.85959   0.00000  Uiso   1.00
C372   C     0.95452   0.37464   0.00283   0.00000  Uiso   1.00
C373   C     0.98230   0.33152   0.18299   0.00000  Uiso   1.00
C374   C     0.92503   0.49256   0.78923   0.00000  Uiso   1.00
C375   C     0.93909   0.51219   0.64043   0.00000  Uiso   1.00
C376   C     0.95441   0.54588   0.68345   0.00000  Uiso   1.00
C377   C     0.98211   0.60188   0.67876   0.00000  Uiso   1.00
C378   C     0.87262   0.46132   0.85844   0.00000  Uiso   1.00
C379   C     0.84261   0.45469   0.76782   0.00000  Uiso   1.00
C380   C     0.81381   0.46208   0.86910   0.00000  Uiso   1.00
C381   C     0.76014   0.46957   0.97188   0.00000  Uiso   1.00
C382   C     0.90928   0.48011   0.11508   0.00000  Uiso   1.00
C383   C     0.92627   0.44227   0.09349   0.00000  Uiso   1.00
C384   C     0.94161   0.42227   0.23685   0.00000  Uiso   1.00
C385   C     0.95572   0.38820   0.18837   0.00000  Uiso   1.00
C386   C     0.92623   0.50610   0.97443   0.00000  Uiso   1.00
C387   C     0.94154   0.53978   0.01768   0.00000  Uiso   1.00
C388   C     0.95561   0.55945   0.86899   0.00000  Uiso   1.00
C389   C     0.87382   0.47486   0.04365   0.00000  Uiso   1.00
C390   C     0.84506   0.48227   0.14509   0.00000  Uiso   1.00
C391   C     0.81501   0.47565   0.05464   0.00000  Uiso   1.00
H392   H     0.90614   0.44463   0.62990   0.00000  Uiso   1.00
H393   H     0.93823   0.38421   0.71623   0.00000  Uiso   1.00
H394   H     0.93815   0.50170   0.49711   0.00000  Uiso   1.00
H395   H     0.84169   0.44421   0.62450   0.00000  Uiso   1.00
H396   H     0.97435   0.32321   0.89362   0.00000  Uiso   1.00
H397   H     0.97418   0.57095   0.43158   0.00000  Uiso   1.00
H398   H     0.77078   0.44971   0.70018   0.00000  Uiso   1.00
H399   H     0.91022   0.49065   0.25927   0.00000  Uiso   1.00
H400   H     0.94253   0.43276   0.38016   0.00000  Uiso   1.00
H401   H     0.94246   0.55025   0.16102   0.00000  Uiso   1.00
H402   H     0.84600   0.49275   0.28841   0.00000  Uiso   1.00
H403   H     0.97785   0.36261   0.43248   0.00000  Uiso   1.00
H404   H     0.97767   0.61035   0.97043   0.00000  Uiso   1.00
H405   H     0.77427   0.48911   0.23904   0.00000  Uiso   1.00
O406   O     0.99730   0.30400   0.23120   0.00000  Uiso   1.00
O407   O     0.99706   0.62903   0.62501   0.00000  Uiso   1.00
O408   O     0.73020   0.46996   0.97741   0.00000  Uiso   1.00
N409   N     0.97073   0.34042   0.00386   0.00000  Uiso   1.00
N410   N     0.97058   0.57204   0.57188   0.00000  Uiso   1.00
N411   N     0.78041   0.45870   0.82298   0.00000  Uiso   1.00
N412   N     0.97261   0.36163   0.29382   0.00000  Uiso   1.00
N413   N     0.97246   0.59324   0.86183   0.00000  Uiso   1.00
N414   N     0.78229   0.47990   0.11294   0.00000  Uiso   1.00
C415   C     0.90707   0.95517   0.27409   0.00000  Uiso   1.00
C416   C     0.92507   0.92873   0.40828   0.00000  Uiso   1.00
C417   C     0.93916   0.89468   0.35959   0.00000  Uiso   1.00
C418   C     0.95452   0.87464   0.50283   0.00000  Uiso   1.00
C419   C     0.98230   0.83152   0.68299   0.00000  Uiso   1.00
C420   C     0.92503   0.99256   0.28923   0.00000  Uiso   1.00
C421   C     0.93909   0.01219   0.14043   0.00000  Uiso   1.00
C422   C     0.95441   0.04588   0.18345   0.00000  Uiso   1.00
C423   C     0.98211   0.10188   0.17876   0.00000  Uiso   1.00
C424   C     0.87262   0.96132   0.35844   0.00000  Uiso   1.00
C425   C     0.84261   0.95469   0.26782   0.00000  Uiso   1.00
C426   C     0.81381   0.96208   0.36910   0.00000  Uiso   1.00
C427   C     0.76014   0.96957   0.47188   0.00000  Uiso   1.00
C428   C     0.90928   0.98011   0.61508   0.00000  Uiso   1.00
C429   C     0.92627   0.94227   0.59349   0.00000  Uiso   1.00
C430   C     0.94161   0.92227   0.73685   0.00000  Uiso   1.00
C431   C     0.95572   0.88820   0.68837   0.00000  Uiso   1.00
C432   C     0.92623   0.00610   0.47443   0.00000  Uiso   1.00
C433   C     0.94154   0.03978   0.51768   0.00000  Uiso   1.00
C434   C     0.95561   0.05945   0.36899   0.00000  Uiso   1.00
C435   C     0.87382   0.97486   0.54365   0.00000  Uiso   1.00
C436   C     0.84506   0.98227   0.64509   0.00000  Uiso   1.00
C437   C     0.81501   0.97565   0.55464   0.00000  Uiso   1.00
H438   H     0.90614   0.94463   0.12990   0.00000  Uiso   1.00
H439   H     0.93823   0.88421   0.21623   0.00000  Uiso   1.00
H440   H     0.93815   0.00170   0.99711   0.00000  Uiso   1.00
H441   H     0.84169   0.94421   0.12450   0.00000  Uiso   1.00
H442   H     0.97435   0.82321   0.39362   0.00000  Uiso   1.00
H443   H     0.97418   0.07095   0.93158   0.00000  Uiso   1.00
H444   H     0.77078   0.94971   0.20018   0.00000  Uiso   1.00
H445   H     0.91022   0.99065   0.75927   0.00000  Uiso   1.00
H446   H     0.94253   0.93276   0.88016   0.00000  Uiso   1.00
H447   H     0.94246   0.05025   0.66102   0.00000  Uiso   1.00
H448   H     0.84600   0.99275   0.78841   0.00000  Uiso   1.00
H449   H     0.97785   0.86261   0.93248   0.00000  Uiso   1.00
H450   H     0.97767   0.11035   0.47043   0.00000  Uiso   1.00
H451   H     0.77427   0.98911   0.73904   0.00000  Uiso   1.00
O452   O     0.99730   0.80400   0.73120   0.00000  Uiso   1.00
O453   O     0.99706   0.12903   0.12501   0.00000  Uiso   1.00
O454   O     0.73020   0.96996   0.47741   0.00000  Uiso   1.00
N455   N     0.97073   0.84042   0.50386   0.00000  Uiso   1.00
N456   N     0.97058   0.07204   0.07188   0.00000  Uiso   1.00
N457   N     0.78041   0.95870   0.32298   0.00000  Uiso   1.00
N458   N     0.97261   0.86163   0.79382   0.00000  Uiso   1.00
N459   N     0.97246   0.09324   0.36183   0.00000  Uiso   1.00
N460   N     0.78229   0.97990   0.61294   0.00000  Uiso   1.00
C461   C     0.40707   0.45517   0.27409   0.00000  Uiso   1.00
C462   C     0.42507   0.42873   0.40828   0.00000  Uiso   1.00
C463   C     0.43916   0.39468   0.35959   0.00000  Uiso   1.00
C464   C     0.45452   0.37464   0.50283   0.00000  Uiso   1.00
C465   C     0.48230   0.33152   0.68299   0.00000  Uiso   1.00
C466   C     0.42503   0.49256   0.28923   0.00000  Uiso   1.00
C467   C     0.43909   0.51219   0.14043   0.00000  Uiso   1.00
C468   C     0.45441   0.54588   0.18345   0.00000  Uiso   1.00
C469   C     0.48211   0.60188   0.17876   0.00000  Uiso   1.00
C470   C     0.37262   0.46132   0.35844   0.00000  Uiso   1.00
C471   C     0.34261   0.45469   0.26782   0.00000  Uiso   1.00
C472   C     0.31381   0.46208   0.36910   0.00000  Uiso   1.00
C473   C     0.26014   0.46957   0.47188   0.00000  Uiso   1.00
C474   C     0.40928   0.48011   0.61508   0.00000  Uiso   1.00
C475   C     0.42627   0.44227   0.59349   0.00000  Uiso   1.00
C476   C     0.44161   0.42227   0.73685   0.00000  Uiso   1.00
C477   C     0.45572   0.38820   0.68837   0.00000  Uiso   1.00
C478   C     0.42623   0.50610   0.47443   0.00000  Uiso   1.00
C479   C     0.44154   0.53978   0.51768   0.00000  Uiso   1.00
C480   C     0.45561   0.55945   0.36899   0.00000  Uiso   1.00
C481   C     0.37382   0.47486   0.54365   0.00000  Uiso   1.00
C482   C     0.34506   0.48227   0.64509   0.00000  Uiso   1.00
C483   C     0.31501   0.47565   0.55464   0.00000  Uiso   1.00
H484   H     0.40614   0.44463   0.12990   0.00000  Uiso   1.00
H485   H     0.43823   0.38421   0.21623   0.00000  Uiso   1.00
H486   H     0.43815   0.50170   0.99711   0.00000  Uiso   1.00
H487   H     0.34169   0.44421   0.12450   0.00000  Uiso   1.00
H488   H     0.47435   0.32321   0.39362   0.00000  Uiso   1.00
H489   H     0.47418   0.57095   0.93158   0.00000  Uiso   1.00
H490   H     0.27078   0.44971   0.20018   0.00000  Uiso   1.00
H491   H     0.41022   0.49065   0.75927   0.00000  Uiso   1.00
H492   H     0.44253   0.43276   0.88016   0.00000  Uiso   1.00
H493   H     0.44246   0.55025   0.66102   0.00000  Uiso   1.00
H494   H     0.34600   0.49275   0.78841   0.00000  Uiso   1.00
H495   H     0.47785   0.36261   0.93248   0.00000  Uiso   1.00
H496   H     0.47767   0.61035   0.47043   0.00000  Uiso   1.00
H497   H     0.27427   0.48911   0.73904   0.00000  Uiso   1.00
O498   O     0.49730   0.30400   0.73120   0.00000  Uiso   1.00
O499   O     0.49706   0.62903   0.12501   0.00000  Uiso   1.00
O500   O     0.23020   0.46996   0.47741   0.00000  Uiso   1.00
N501   N     0.47073   0.34042   0.50386   0.00000  Uiso   1.00
N502   N     0.47058   0.57204   0.07188   0.00000  Uiso   1.00
N503   N     0.28041   0.45870   0.32298   0.00000  Uiso   1.00
N504   N     0.47261   0.36163   0.79382   0.00000  Uiso   1.00
N505   N     0.47246   0.59324   0.36183   0.00000  Uiso   1.00
N506   N     0.28229   0.47990   0.61294   0.00000  Uiso   1.00
C507   C     0.40707   0.95517   0.77409   0.00000  Uiso   1.00
C508   C     0.42507   0.92873   0.90828   0.00000  Uiso   1.00
C509   C     0.43916   0.89468   0.85959   0.00000  Uiso   1.00
C510   C     0.45452   0.87464   0.00283   0.00000  Uiso   1.00
C511   C     0.48230   0.83152   0.18299   0.00000  Uiso   1.00
C512   C     0.42503   0.99256   0.78923   0.00000  Uiso   1.00
C513   C     0.43909   0.01219   0.64043   0.00000  Uiso   1.00
C514   C     0.45441   0.04588   0.68345   0.00000  Uiso   1.00
C515   C     0.48211   0.10188   0.67876   0.00000  Uiso   1.00
C516   C     0.37262   0.96132   0.85844   0.00000  Uiso   1.00
C517   C     0.34261   0.95469   0.76782   0.00000  Uiso   1.00
C518   C     0.31381   0.96208   0.86910   0.00000  Uiso   1.00
C519   C     0.26014   0.96957   0.97188   0.00000  Uiso   1.00
C520   C     0.40928   0.98011   0.11508   0.00000  Uiso   1.00
C521   C     0.42627   0.94227   0.09349   0.00000  Uiso   1.00
C522   C     0.44161   0.92227   0.23685   0.00000  Uiso   1.00
C523   C     0.45572   0.88820   0.18837   0.00000  Uiso   1.00
C524   C     0.42623   0.00610   0.97443   0.00000  Uiso   1.00
C525   C     0.44154   0.03978   0.01768   0.00000  Uiso   1.00
C526   C     0.45561   0.05945   0.86899   0.00000  Uiso   1.00
C527   C     0.37382   0.97486   0.04365   0.00000  Uiso   1.00
C528   C     0.34506   0.98227   0.14509   0.00000  Uiso   1.00
C529   C     0.31501   0.97565   0.05464   0.00000  Uiso   1.00
H530   H     0.40614   0.94463   0.62990   0.00000  Uiso   1.00
H531   H     0.43823   0.88421   0.71623   0.00000  Uiso   1.00
H532   H     0.43815   0.00170   0.49711   0.00000  Uiso   1.00
H533   H     0.34169   0.94421   0.62450   0.00000  Uiso   1.00
H534   H     0.47435   0.82321   0.89362   0.00000  Uiso   1.00
H535   H     0.47418   0.07095   0.43158   0.00000  Uiso   1.00
H536   H     0.27078   0.94971   0.70018   0.00000  Uiso   1.00
H537   H     0.41022   0.99065   0.25927   0.00000  Uiso   1.00
H538   H     0.44253   0.93276   0.38016   0.00000  Uiso   1.00
H539   H     0.44246   0.05025   0.16102   0.00000  Uiso   1.00
H540   H     0.34600   0.99275   0.28841   0.00000  Uiso   1.00
H541   H     0.47785   0.86261   0.43248   0.00000  Uiso   1.00
H542   H     0.47767   0.11035   0.97043   0.00000  Uiso   1.00
H543   H     0.27427   0.98911   0.23904   0.00000  Uiso   1.00
O544   O     0.49730   0.80400   0.23120   0.00000  Uiso   1.00
O545   O     0.49706   0.12903   0.62501   0.00000  Uiso   1.00
O546   O     0.23020   0.96996   0.97741   0.00000  Uiso   1.00
N547   N     0.47073   0.84042   0.00386   0.00000  Uiso   1.00
N548   N     0.47058   0.07204   0.57188   0.00000  Uiso   1.00
N549   N     0.28041   0.95870   0.82298   0.00000  Uiso   1.00
N550   N     0.47261   0.86163   0.29382   0.00000  Uiso   1.00
N551   N     0.47246   0.09324   0.86183   0.00000  Uiso   1.00
N552   N     0.28229   0.97990   0.11294   0.00000  Uiso   1.00
C553   C     0.59293   0.04483   0.77409   0.00000  Uiso   1.00
C554   C     0.57493   0.07127   0.90828   0.00000  Uiso   1.00
C555   C     0.56084   0.10532   0.85959   0.00000  Uiso   1.00
C556   C     0.54548   0.12536   0.00283   0.00000  Uiso   1.00
C557   C     0.51770   0.16848   0.18299   0.00000  Uiso   1.00
C558   C     0.57497   0.00744   0.78923   0.00000  Uiso   1.00
C559   C     0.56091   0.98781   0.64043   0.00000  Uiso   1.00
C560   C     0.54559   0.95412   0.68345   0.00000  Uiso   1.00
C561   C     0.51789   0.89812   0.67876   0.00000  Uiso   1.00
C562   C     0.62738   0.03868   0.85844   0.00000  Uiso   1.00
C563   C     0.65739   0.04531   0.76782   0.00000  Uiso   1.00
C564   C     0.68619   0.03792   0.86910   0.00000  Uiso   1.00
C565   C     0.73986   0.03043   0.97188   0.00000  Uiso   1.00
C566   C     0.59072   0.01989   0.11508   0.00000  Uiso   1.00
C567   C     0.57373   0.05773   0.09349   0.00000  Uiso   1.00
C568   C     0.55839   0.07773   0.23685   0.00000  Uiso   1.00
C569   C     0.54428   0.11180   0.18837   0.00000  Uiso   1.00
C570   C     0.57377   0.99390   0.97443   0.00000  Uiso   1.00
C571   C     0.55846   0.96022   0.01768   0.00000  Uiso   1.00
C572   C     0.54439   0.94055   0.86899   0.00000  Uiso   1.00
C573   C     0.62618   0.02514   0.04365   0.00000  Uiso   1.00
C574   C     0.65494   0.01773   0.14509   0.00000  Uiso   1.00
C575   C     0.68499   0.02435   0.05464   0.00000  Uiso   1.00
H576   H     0.59386   0.05537   0.62990   0.00000  Uiso   1.00
H577   H     0.56177   0.11579   0.71623   0.00000  Uiso   1.00
H578   H     0.56185   0.99830   0.49711   0.00000  Uiso   1.00
H579   H     0.65831   0.05579   0.62450   0.00000  Uiso   1.00
H580   H     0.52565   0.17679   0.89362   0.00000  Uiso   1.00
H581   H     0.52582   0.92905   0.43158   0.00000  Uiso   1.00
H582   H     0.72922   0.05029   0.70018   0.00000  Uiso   1.00
H583   H     0.58978   0.00935   0.25927   0.00000  Uiso   1.00
H584   H     0.55747   0.06724   0.38016   0.00000  Uiso   1.00
H585   H     0.55754   0.94975   0.16102   0.00000  Uiso   1.00
H586   H     0.65400   0.00725   0.28841   0.00000  Uiso   1.00
H587   H     0.52215   0.13739   0.43248   0.00000  Uiso   1.00
H588   H     0.52233   0.88965   0.97043   0.00000  Uiso   1.00
H589   H     0.72573   0.01089   0.23904   0.00000  Uiso   1.00
O590   O     0.50270   0.19600   0.23120   0.00000  Uiso   1.00
O591   O     0.50294   0.87097   0.62501   0.00000  Uiso   1.00
O592   O     0.76980   0.03004   0.97741   0.00000  Uiso   1.00
N593   N     0.52927   0.15958   0.00386   0.00000  Uiso   1.00
N594   N     0.52942   0.92796   0.57188   0.00000  Uiso   1.00
N595   N     0.71959   0.04130   0.82298   0.00000  Uiso   1.00
N596   N     0.52739   0.13837   0.29382   0.00000  Uiso   1.00
N597   N     0.52754   0.90676   0.86183   0.00000  Uiso   1.00
N598   N     0.71771   0.02010   0.11294   0.00000  Uiso   1.00
C599   C     0.59293   0.54483   0.27409   0.00000  Uiso   1.00
C600   C     0.57493   0.57127   0.40828   0.00000  Uiso   1.00
C601   C     0.56084   0.60532   0.35959   0.00000  Uiso   1.00
C602   C     0.54548   0.62536   0.50283   0.00000  Uiso   1.00
C603   C     0.51770   0.66848   0.68299   0.00000  Uiso   1.00
C604   C     0.57497   0.50744   0.28923   0.00000  Uiso   1.00
C605   C     0.56091   0.48781   0.14043   0.00000  Uiso   1.00
C606   C     0.54559   0.45412   0.18345   0.00000  Uiso   1.00
C607   C     0.51789   0.39812   0.17876   0.00000  Uiso   1.00
C608   C     0.62738   0.53868   0.35844   0.00000  Uiso   1.00
C609   C     0.65739   0.54531   0.26782   0.00000  Uiso   1.00
C610   C     0.68619   0.53792   0.36910   0.00000  Uiso   1.00
C611   C     0.73986   0.53043   0.47188   0.00000  Uiso   1.00
C612   C     0.59072   0.51989   0.61508   0.00000  Uiso   1.00
C613   C     0.57373   0.55773   0.59349   0.00000  Uiso   1.00
C614   C     0.55839   0.57773   0.73685   0.00000  Uiso   1.00
C615   C     0.54428   0.61180   0.68837   0.00000  Uiso   1.00
C616   C     0.57377   0.49390   0.47443   0.00000  Uiso   1.00
C617   C     0.55846   0.46022   0.51768   0.00000  Uiso   1.00
C618   C     0.54439   0.44055   0.36899   0.00000  Uiso   1.00
C619   C     0.62618   0.52514   0.54365   0.00000  Uiso   1.00
C620   C     0.65494   0.51773   0.64509   0.00000  Uiso   1.00
C621   C     0.68499   0.52435   0.55464   0.00000  Uiso   1.00
H622   H     0.59386   0.55537   0.12990   0.00000  Uiso   1.00
H623   H     0.56177   0.61579   0.21623   0.00000  Uiso   1.00
H624   H     0.56185   0.49830   0.99711   0.00000  Uiso   1.00
H625   H     0.65831   0.55579   0.12450   0.00000  Uiso   1.00
H626   H     0.52565   0.67679   0.39362   0.00000  Uiso   1.00
H627   H     0.52582   0.42905   0.93158   0.00000  Uiso   1.00
H628   H     0.72922   0.55029   0.20018   0.00000  Uiso   1.00
H629   H     0.58978   0.50935   0.75927   0.00000  Uiso   1.00
H630   H     0.55747   0.56724   0.88016   0.00000  Uiso   1.00
H631   H     0.55754   0.44975   0.66102   0.00000  Uiso   1.00
H632   H     0.65400   0.50725   0.78841   0.00000  Uiso   1.00
H633   H     0.52215   0.63739   0.93248   0.00000  Uiso   1.00
H634   H     0.52233   0.38965   0.47043   0.00000  Uiso   1.00
H635   H     0.72573   0.51089   0.73904   0.00000  Uiso   1.00
O636   O     0.50270   0.69600   0.73120   0.00000  Uiso   1.00
O637   O     0.50294   0.37097   0.12501   0.00000  Uiso   1.00
O638   O     0.76980   0.53004   0.47741   0.00000  Uiso   1.00
N639   N     0.52927   0.65958   0.50386   0.00000  Uiso   1.00
N640   N     0.52942   0.42796   0.07188   0.00000  Uiso   1.00
N641   N     0.71959   0.54130   0.32298   0.00000  Uiso   1.00
N642   N     0.52739   0.63837   0.79382   0.00000  Uiso   1.00
N643   N     0.52754   0.40676   0.36183   0.00000  Uiso   1.00
N644   N     0.71771   0.52010   0.61294   0.00000  Uiso   1.00
C645   C     0.09293   0.04483   0.27409   0.00000  Uiso   1.00
C646   C     0.07493   0.07127   0.40828   0.00000  Uiso   1.00
C647   C     0.06084   0.10532   0.35959   0.00000  Uiso   1.00
C648   C     0.04548   0.12536   0.50283   0.00000  Uiso   1.00
C649   C     0.01770   0.16848   0.68299   0.00000  Uiso   1.00
C650   C     0.07497   0.00744   0.28923   0.00000  Uiso   1.00
C651   C     0.06091   0.98781   0.14043   0.00000  Uiso   1.00
C652   C     0.04559   0.95412   0.18345   0.00000  Uiso   1.00
C653   C     0.01789   0.89812   0.17876   0.00000  Uiso   1.00
C654   C     0.12738   0.03868   0.35844   0.00000  Uiso   1.00
C655   C     0.15739   0.04531   0.26782   0.00000  Uiso   1.00
C656   C     0.18619   0.03792   0.36910   0.00000  Uiso   1.00
C657   C     0.23986   0.03043   0.47188   0.00000  Uiso   1.00
C658   C     0.09072   0.01989   0.61508   0.00000  Uiso   1.00
C659   C     0.07373   0.05773   0.59349   0.00000  Uiso   1.00
C660   C     0.05839   0.07773   0.73685   0.00000  Uiso   1.00
C661   C     0.04428   0.11180   0.68837   0.00000  Uiso   1.00
C662   C     0.07377   0.99390   0.47443   0.00000  Uiso   1.00
C663   C     0.05846   0.96022   0.51768   0.00000  Uiso   1.00
C664   C     0.04439   0.94055   0.36899   0.00000  Uiso   1.00
C665   C     0.12618   0.02514   0.54365   0.00000  Uiso   1.00
C666   C     0.15494   0.01773   0.64509   0.00000  Uiso   1.00
C667   C     0.18499   0.02435   0.55464   0.00000  Uiso   1.00
H668   H     0.09386   0.05537   0.12990   0.00000  Uiso   1.00
H669   H     0.06177   0.11579   0.21623   0.00000  Uiso   1.00
H670   H     0.06185   0.99830   0.99711   0.00000  Uiso   1.00
H671   H     0.15831   0.05579   0.12450   0.00000  Uiso   1.00
H672   H     0.02565   0.17679   0.39362   0.00000  Uiso   1.00
H673   H     0.02582   0.92905   0.93158   0.00000  Uiso   1.00
H674   H     0.22922   0.05029   0.20018   0.00000  Uiso   1.00
H675   H     0.08978   0.00935   0.75927   0.00000  Uiso   1.00
H676   H     0.05747   0.06724   0.88016   0.00000  Uiso   1.00
H677   H     0.05754   0.94975   0.66102   0.00000  Uiso   1.00
H678   H     0.15400   0.00725   0.78841   0.00000  Uiso   1.00
H679   H     0.02215   0.13739   0.93248   0.00000  Uiso   1.00
H680   H     0.02233   0.88965   0.47043   0.00000  Uiso   1.00
H681   H     0.22573   0.01089   0.73904   0.00000  Uiso   1.00
O682   O     0.00270   0.19600   0.73120   0.00000  Uiso   1.00
O683   O     0.00294   0.87097   0.12501   0.00000  Uiso   1.00
O684   O     0.26980   0.03004   0.47741   0.00000  Uiso   1.00
N685   N     0.02927   0.15958   0.50386   0.00000  Uiso   1.00
N686   N     0.02942   0.92796   0.07188   0.00000  Uiso   1.00
N687   N     0.21959   0.04130   0.32298   0.00000  Uiso   1.00
N688   N     0.02739   0.13837   0.79382   0.00000  Uiso   1.00
N689   N     0.02754   0.90676   0.36183   0.00000  Uiso   1.00
N690   N     0.21771   0.02010   0.61294   0.00000  Uiso   1.00
C691   C     0.09293   0.54483   0.77409   0.00000  Uiso   1.00
C692   C     0.07493   0.57127   0.90828   0.00000  Uiso   1.00
C693   C     0.06084   0.60532   0.85959   0.00000  Uiso   1.00
C694   C     0.04548   0.62536   0.00283   0.00000  Uiso   1.00
C695   C     0.01770   0.66848   0.18299   0.00000  Uiso   1.00
C696   C     0.07497   0.50744   0.78923   0.00000  Uiso   1.00
C697   C     0.06091   0.48781   0.64043   0.00000  Uiso   1.00
C698   C     0.04559   0.45412   0.68345   0.00000  Uiso   1.00
C699   C     0.01789   0.39812   0.67876   0.00000  Uiso   1.00
C700   C     0.12738   0.53868   0.85844   0.00000  Uiso   1.00
C701   C     0.15739   0.54531   0.76782   0.00000  Uiso   1.00
C702   C     0.18619   0.53792   0.86910   0.00000  Uiso   1.00
C703   C     0.23986   0.53043   0.97188   0.00000  Uiso   1.00
C704   C     0.09072   0.51989   0.11508   0.00000  Uiso   1.00
C705   C     0.07373   0.55773   0.09349   0.00000  Uiso   1.00
C706   C     0.05839   0.57773   0.23685   0.00000  Uiso   1.00
C707   C     0.04428   0.61180   0.18837   0.00000  Uiso   1.00
C708   C     0.07377   0.49390   0.97443   0.00000  Uiso   1.00
C709   C     0.05846   0.46022   0.01768   0.00000  Uiso   1.00
C710   C     0.04439   0.44055   0.86899   0.00000  Uiso   1.00
C711   C     0.12618   0.52514   0.04365   0.00000  Uiso   1.00
C712   C     0.15494   0.51773   0.14509   0.00000  Uiso   1.00
C713   C     0.18499   0.52435   0.05464   0.00000  Uiso   1.00
H714   H     0.09386   0.55537   0.62990   0.00000  Uiso   1.00
H715   H     0.06177   0.61579   0.71623   0.00000  Uiso   1.00
H716   H     0.06185   0.49830   0.49711   0.00000  Uiso   1.00
H717   H     0.15831   0.55579   0.62450   0.00000  Uiso   1.00
H718   H     0.02565   0.67679   0.89362   0.00000  Uiso   1.00
H719   H     0.02582   0.42905   0.43158   0.00000  Uiso   1.00
H720   H     0.22922   0.55029   0.70018   0.00000  Uiso   1.00
H721   H     0.08978   0.50935   0.25927   0.00000  Uiso   1.00
H722   H     0.05747   0.56724   0.38016   0.00000  Uiso   1.00
H723   H     0.05754   0.44975   0.16102   0.00000  Uiso   1.00
H724   H     0.15400   0.50725   0.28841   0.00000  Uiso   1.00
H725   H     0.02215   0.63739   0.43248   0.00000  Uiso   1.00
H726   H     0.02233   0.38965   0.97043   0.00000  Uiso   1.00
H727   H     0.22573   0.51089   0.23904   0.00000  Uiso   1.00
O728   O     0.00270   0.69600   0.23120   0.00000  Uiso   1.00
O729   O     0.00294   0.37097   0.62501   0.00000  Uiso   1.00
O730   O     0.26980   0.53004   0.97741   0.00000  Uiso   1.00
N731   N     0.02927   0.65958   0.00386   0.00000  Uiso   1.00
N732   N     0.02942   0.42796   0.57188   0.00000  Uiso   1.00
N733   N     0.21959   0.54130   0.82298   0.00000  Uiso   1.00
N734   N     0.02739   0.63837   0.29382   0.00000  Uiso   1.00
N735   N     0.02754   0.40676   0.86183   0.00000  Uiso   1.00
N736   N     0.21771   0.52010   0.11294   0.00000  Uiso   1.00
