data_job_05155
_audit_creation_date              2018-12-19
_audit_creation_method            'Materials Studio'
_symmetry_space_group_name_H-M    'P1'
_symmetry_Int_Tables_number       1
_symmetry_cell_setting            triclinic
loop_
_symmetry_equiv_pos_as_xyz
  x,y,z
_cell_length_a                    25.2115
_cell_length_b                    41.7555
_cell_length_c                    12.0632
_cell_angle_alpha                 90.0000
_cell_angle_beta                  90.0000
_cell_angle_gamma                 90.0000
loop_
_atom_site_label
_atom_site_type_symbol
_atom_site_fract_x
_atom_site_fract_y
_atom_site_fract_z
_atom_site_U_iso_or_equiv
_atom_site_adp_type
_atom_site_occupancy
C1     C     0.45551   0.92150   0.62566   0.00000  Uiso   1.00
C2     C     0.45970   0.88612   0.65575   0.00000  Uiso   1.00
C3     C     0.45818   0.87358   0.76224   0.00000  Uiso   1.00
C4     C     0.46266   0.84057   0.77235   0.00000  Uiso   1.00
C5     C     0.46831   0.78864   0.83325   0.00000  Uiso   1.00
C6     C     0.50510   0.92929   0.55848   0.00000  Uiso   1.00
C7     C     0.54175   0.95304   0.58318   0.00000  Uiso   1.00
C8     C     0.58445   0.95637   0.51140   0.00000  Uiso   1.00
C9     C     0.66056   0.97146   0.42124   0.00000  Uiso   1.00
C10    C     0.40905   0.92421   0.54528   0.00000  Uiso   1.00
C11    C     0.36493   0.94370   0.55887   0.00000  Uiso   1.00
C12    C     0.32676   0.94276   0.47596   0.00000  Uiso   1.00
C13    C     0.25373   0.94997   0.36531   0.00000  Uiso   1.00
C14    C     0.46617   0.88518   0.45426   0.00000  Uiso   1.00
C15    C     0.46549   0.86640   0.56265   0.00000  Uiso   1.00
C16    C     0.46998   0.83340   0.57261   0.00000  Uiso   1.00
C17    C     0.46846   0.82081   0.67909   0.00000  Uiso   1.00
C18    C     0.51090   0.90956   0.46539   0.00000  Uiso   1.00
C19    C     0.55355   0.91285   0.39355   0.00000  Uiso   1.00
C20    C     0.59025   0.93660   0.41814   0.00000  Uiso   1.00
C21    C     0.41484   0.90448   0.45219   0.00000  Uiso   1.00
C22    C     0.37673   0.90351   0.36924   0.00000  Uiso   1.00
C23    C     0.33256   0.92299   0.38270   0.00000  Uiso   1.00
H24    H     0.45101   0.93687   0.69813   0.00000  Uiso   1.00
H25    H     0.45370   0.88886   0.83426   0.00000  Uiso   1.00
H26    H     0.53726   0.96831   0.65522   0.00000  Uiso   1.00
H27    H     0.36047   0.95896   0.63092   0.00000  Uiso   1.00
H28    H     0.45927   0.82694   0.94414   0.00000  Uiso   1.00
H29    H     0.63543   0.99446   0.56661   0.00000  Uiso   1.00
H30    H     0.26263   0.97476   0.51535   0.00000  Uiso   1.00
H31    H     0.47068   0.86982   0.38177   0.00000  Uiso   1.00
H32    H     0.47446   0.81813   0.50055   0.00000  Uiso   1.00
H33    H     0.55801   0.89758   0.32151   0.00000  Uiso   1.00
H34    H     0.38122   0.88824   0.29721   0.00000  Uiso   1.00
H35    H     0.47612   0.76953   0.67328   0.00000  Uiso   1.00
H36    H     0.65228   0.93706   0.29575   0.00000  Uiso   1.00
H37    H     0.27948   0.91736   0.24450   0.00000  Uiso   1.00
O38    O     0.46984   0.76544   0.89255   0.00000  Uiso   1.00
O39    O     0.70095   0.98524   0.39724   0.00000  Uiso   1.00
O40    O     0.21185   0.95939   0.33000   0.00000  Uiso   1.00
N41    N     0.46270   0.82052   0.86409   0.00000  Uiso   1.00
N42    N     0.62741   0.97714   0.51113   0.00000  Uiso   1.00
N43    N     0.27888   0.95873   0.46320   0.00000  Uiso   1.00
N44    N     0.47177   0.78963   0.71834   0.00000  Uiso   1.00
N45    N     0.63648   0.94626   0.36539   0.00000  Uiso   1.00
N46    N     0.28795   0.92784   0.31745   0.00000  Uiso   1.00
C47    C     0.60989   0.92354   0.88040   0.00000  Uiso   1.00
C48    C     0.60771   0.88807   0.85062   0.00000  Uiso   1.00
C49    C     0.60959   0.87550   0.74420   0.00000  Uiso   1.00
C50    C     0.60705   0.84241   0.73438   0.00000  Uiso   1.00
C51    C     0.60428   0.79034   0.67395   0.00000  Uiso   1.00
C52    C     0.56011   0.93028   0.94832   0.00000  Uiso   1.00
C53    C     0.52198   0.95320   0.92405   0.00000  Uiso   1.00
C54    C     0.47938   0.95565   0.99649   0.00000  Uiso   1.00
C55    C     0.40274   0.96913   0.08778   0.00000  Uiso   1.00
C56    C     0.65646   0.92731   0.96000   0.00000  Uiso   1.00
C57    C     0.69933   0.94774   0.94557   0.00000  Uiso   1.00
C58    C     0.73783   0.94768   0.02786   0.00000  Uiso   1.00
C59    C     0.81078   0.95655   0.13727   0.00000  Uiso   1.00
C60    C     0.60204   0.88712   0.05222   0.00000  Uiso   1.00
C61    C     0.60344   0.86829   0.94395   0.00000  Uiso   1.00
C62    C     0.60090   0.83521   0.93429   0.00000  Uiso   1.00
C63    C     0.60278   0.82259   0.82788   0.00000  Uiso   1.00
C64    C     0.55585   0.91050   0.04164   0.00000  Uiso   1.00
C65    C     0.51329   0.91291   0.11414   0.00000  Uiso   1.00
C66    C     0.47510   0.93583   0.08999   0.00000  Uiso   1.00
C67    C     0.65219   0.90753   0.05332   0.00000  Uiso   1.00
C68    C     0.69064   0.90744   0.13566   0.00000  Uiso   1.00
C69    C     0.73356   0.92787   0.12135   0.00000  Uiso   1.00
H70    H     0.61321   0.93894   0.80775   0.00000  Uiso   1.00
H71    H     0.61288   0.89082   0.67200   0.00000  Uiso   1.00
H72    H     0.52529   0.96851   0.85183   0.00000  Uiso   1.00
H73    H     0.70261   0.96304   0.87334   0.00000  Uiso   1.00
H74    H     0.61063   0.82874   0.56265   0.00000  Uiso   1.00
H75    H     0.42595   0.99257   0.94185   0.00000  Uiso   1.00
H76    H     0.79986   0.98104   0.98721   0.00000  Uiso   1.00
H77    H     0.59872   0.87172   0.12488   0.00000  Uiso   1.00
H78    H     0.59760   0.81991   0.00653   0.00000  Uiso   1.00
H79    H     0.51001   0.89760   0.18636   0.00000  Uiso   1.00
H80    H     0.68732   0.89213   0.20787   0.00000  Uiso   1.00
H81    H     0.59822   0.77119   0.83417   0.00000  Uiso   1.00
H82    H     0.41354   0.93502   0.21337   0.00000  Uiso   1.00
H83    H     0.78745   0.92349   0.25873   0.00000  Uiso   1.00
O84    O     0.60393   0.76709   0.61483   0.00000  Uiso   1.00
O85    O     0.36165   0.98203   0.11234   0.00000  Uiso   1.00
O86    O     0.85221   0.96691   0.17184   0.00000  Uiso   1.00
N87    N     0.60787   0.82231   0.64279   0.00000  Uiso   1.00
N88    N     0.43520   0.97547   0.99732   0.00000  Uiso   1.00
N89    N     0.78477   0.96470   0.03973   0.00000  Uiso   1.00
N90    N     0.60119   0.79134   0.78890   0.00000  Uiso   1.00
N91    N     0.42852   0.94450   0.14342   0.00000  Uiso   1.00
N92    N     0.77809   0.93373   0.18584   0.00000  Uiso   1.00
C93    C     0.04449   0.07850   0.62566   0.00000  Uiso   1.00
C94    C     0.04030   0.11388   0.65575   0.00000  Uiso   1.00
C95    C     0.04182   0.12642   0.76224   0.00000  Uiso   1.00
C96    C     0.03734   0.15943   0.77235   0.00000  Uiso   1.00
C97    C     0.03169   0.21136   0.83325   0.00000  Uiso   1.00
C98    C     0.99490   0.07071   0.55848   0.00000  Uiso   1.00
C99    C     0.95825   0.04696   0.58318   0.00000  Uiso   1.00
C100   C     0.91555   0.04363   0.51140   0.00000  Uiso   1.00
C101   C     0.83944   0.02854   0.42124   0.00000  Uiso   1.00
C102   C     0.09095   0.07579   0.54528   0.00000  Uiso   1.00
C103   C     0.13507   0.05630   0.55887   0.00000  Uiso   1.00
C104   C     0.17324   0.05724   0.47596   0.00000  Uiso   1.00
C105   C     0.24627   0.05003   0.36531   0.00000  Uiso   1.00
C106   C     0.03383   0.11482   0.45426   0.00000  Uiso   1.00
C107   C     0.03451   0.13360   0.56265   0.00000  Uiso   1.00
C108   C     0.03002   0.16660   0.57261   0.00000  Uiso   1.00
C109   C     0.03154   0.17919   0.67909   0.00000  Uiso   1.00
C110   C     0.98910   0.09044   0.46539   0.00000  Uiso   1.00
C111   C     0.94645   0.08715   0.39355   0.00000  Uiso   1.00
C112   C     0.90975   0.06340   0.41814   0.00000  Uiso   1.00
C113   C     0.08516   0.09552   0.45219   0.00000  Uiso   1.00
C114   C     0.12327   0.09649   0.36924   0.00000  Uiso   1.00
C115   C     0.16744   0.07701   0.38270   0.00000  Uiso   1.00
H116   H     0.04899   0.06313   0.69813   0.00000  Uiso   1.00
H117   H     0.04630   0.11114   0.83426   0.00000  Uiso   1.00
H118   H     0.96274   0.03169   0.65522   0.00000  Uiso   1.00
H119   H     0.13953   0.04104   0.63092   0.00000  Uiso   1.00
H120   H     0.04073   0.17306   0.94414   0.00000  Uiso   1.00
H121   H     0.86457   0.00554   0.56661   0.00000  Uiso   1.00
H122   H     0.23737   0.02524   0.51535   0.00000  Uiso   1.00
H123   H     0.02932   0.13018   0.38177   0.00000  Uiso   1.00
H124   H     0.02554   0.18187   0.50055   0.00000  Uiso   1.00
H125   H     0.94199   0.10242   0.32151   0.00000  Uiso   1.00
H126   H     0.11878   0.11176   0.29721   0.00000  Uiso   1.00
H127   H     0.02388   0.23047   0.67328   0.00000  Uiso   1.00
H128   H     0.84772   0.06294   0.29575   0.00000  Uiso   1.00
H129   H     0.22052   0.08264   0.24450   0.00000  Uiso   1.00
O130   O     0.03016   0.23456   0.89255   0.00000  Uiso   1.00
O131   O     0.79905   0.01476   0.39724   0.00000  Uiso   1.00
O132   O     0.28815   0.04061   0.33000   0.00000  Uiso   1.00
N133   N     0.03730   0.17948   0.86409   0.00000  Uiso   1.00
N134   N     0.87259   0.02286   0.51113   0.00000  Uiso   1.00
N135   N     0.22112   0.04127   0.46320   0.00000  Uiso   1.00
N136   N     0.02823   0.21037   0.71834   0.00000  Uiso   1.00
N137   N     0.86352   0.05374   0.36539   0.00000  Uiso   1.00
N138   N     0.21205   0.07216   0.31745   0.00000  Uiso   1.00
C139   C     0.89011   0.07646   0.88040   0.00000  Uiso   1.00
C140   C     0.89229   0.11193   0.85062   0.00000  Uiso   1.00
C141   C     0.89041   0.12450   0.74420   0.00000  Uiso   1.00
C142   C     0.89295   0.15759   0.73438   0.00000  Uiso   1.00
C143   C     0.89572   0.20966   0.67395   0.00000  Uiso   1.00
C144   C     0.93989   0.06972   0.94832   0.00000  Uiso   1.00
C145   C     0.97802   0.04680   0.92405   0.00000  Uiso   1.00
C146   C     0.02062   0.04435   0.99649   0.00000  Uiso   1.00
C147   C     0.09726   0.03087   0.08778   0.00000  Uiso   1.00
C148   C     0.84354   0.07269   0.96000   0.00000  Uiso   1.00
C149   C     0.80067   0.05226   0.94557   0.00000  Uiso   1.00
C150   C     0.76217   0.05232   0.02786   0.00000  Uiso   1.00
C151   C     0.68922   0.04345   0.13727   0.00000  Uiso   1.00
C152   C     0.89796   0.11288   0.05222   0.00000  Uiso   1.00
C153   C     0.89656   0.13171   0.94395   0.00000  Uiso   1.00
C154   C     0.89910   0.16479   0.93429   0.00000  Uiso   1.00
C155   C     0.89722   0.17741   0.82788   0.00000  Uiso   1.00
C156   C     0.94415   0.08950   0.04164   0.00000  Uiso   1.00
C157   C     0.98671   0.08709   0.11414   0.00000  Uiso   1.00
C158   C     0.02490   0.06417   0.08999   0.00000  Uiso   1.00
C159   C     0.84781   0.09247   0.05332   0.00000  Uiso   1.00
C160   C     0.80936   0.09256   0.13566   0.00000  Uiso   1.00
C161   C     0.76644   0.07213   0.12135   0.00000  Uiso   1.00
H162   H     0.88679   0.06106   0.80775   0.00000  Uiso   1.00
H163   H     0.88712   0.10918   0.67200   0.00000  Uiso   1.00
H164   H     0.97471   0.03149   0.85183   0.00000  Uiso   1.00
H165   H     0.79739   0.03696   0.87334   0.00000  Uiso   1.00
H166   H     0.88937   0.17126   0.56265   0.00000  Uiso   1.00
H167   H     0.07405   0.00743   0.94185   0.00000  Uiso   1.00
H168   H     0.70014   0.01896   0.98721   0.00000  Uiso   1.00
H169   H     0.90128   0.12828   0.12488   0.00000  Uiso   1.00
H170   H     0.90240   0.18009   0.00653   0.00000  Uiso   1.00
H171   H     0.98999   0.10240   0.18636   0.00000  Uiso   1.00
H172   H     0.81268   0.10787   0.20787   0.00000  Uiso   1.00
H173   H     0.90178   0.22881   0.83417   0.00000  Uiso   1.00
H174   H     0.08646   0.06498   0.21337   0.00000  Uiso   1.00
H175   H     0.71255   0.07651   0.25873   0.00000  Uiso   1.00
O176   O     0.89607   0.23291   0.61483   0.00000  Uiso   1.00
O177   O     0.13835   0.01797   0.11234   0.00000  Uiso   1.00
O178   O     0.64779   0.03309   0.17184   0.00000  Uiso   1.00
N179   N     0.89213   0.17769   0.64279   0.00000  Uiso   1.00
N180   N     0.06480   0.02453   0.99732   0.00000  Uiso   1.00
N181   N     0.71523   0.03530   0.03973   0.00000  Uiso   1.00
N182   N     0.89881   0.20866   0.78890   0.00000  Uiso   1.00
N183   N     0.07148   0.05550   0.14342   0.00000  Uiso   1.00
N184   N     0.72191   0.06627   0.18584   0.00000  Uiso   1.00
C185   C     0.04449   0.42150   0.87434   0.00000  Uiso   1.00
C186   C     0.04030   0.38612   0.84425   0.00000  Uiso   1.00
C187   C     0.04182   0.37358   0.73776   0.00000  Uiso   1.00
C188   C     0.03734   0.34057   0.72765   0.00000  Uiso   1.00
C189   C     0.03169   0.28864   0.66675   0.00000  Uiso   1.00
C190   C     0.99490   0.42929   0.94152   0.00000  Uiso   1.00
C191   C     0.95825   0.45304   0.91682   0.00000  Uiso   1.00
C192   C     0.91555   0.45637   0.98860   0.00000  Uiso   1.00
C193   C     0.83944   0.47146   0.07876   0.00000  Uiso   1.00
C194   C     0.09095   0.42421   0.95472   0.00000  Uiso   1.00
C195   C     0.13507   0.44370   0.94113   0.00000  Uiso   1.00
C196   C     0.17324   0.44276   0.02404   0.00000  Uiso   1.00
C197   C     0.24627   0.44997   0.13469   0.00000  Uiso   1.00
C198   C     0.03383   0.38518   0.04574   0.00000  Uiso   1.00
C199   C     0.03451   0.36640   0.93735   0.00000  Uiso   1.00
C200   C     0.03002   0.33340   0.92739   0.00000  Uiso   1.00
C201   C     0.03154   0.32081   0.82091   0.00000  Uiso   1.00
C202   C     0.98910   0.40956   0.03461   0.00000  Uiso   1.00
C203   C     0.94645   0.41285   0.10645   0.00000  Uiso   1.00
C204   C     0.90975   0.43660   0.08186   0.00000  Uiso   1.00
C205   C     0.08516   0.40448   0.04781   0.00000  Uiso   1.00
C206   C     0.12327   0.40351   0.13076   0.00000  Uiso   1.00
C207   C     0.16744   0.42299   0.11730   0.00000  Uiso   1.00
H208   H     0.04899   0.43687   0.80187   0.00000  Uiso   1.00
H209   H     0.04630   0.38886   0.66574   0.00000  Uiso   1.00
H210   H     0.96274   0.46831   0.84478   0.00000  Uiso   1.00
H211   H     0.13953   0.45896   0.86908   0.00000  Uiso   1.00
H212   H     0.04073   0.32694   0.55586   0.00000  Uiso   1.00
H213   H     0.86457   0.49446   0.93339   0.00000  Uiso   1.00
H214   H     0.23737   0.47476   0.98465   0.00000  Uiso   1.00
H215   H     0.02932   0.36982   0.11823   0.00000  Uiso   1.00
H216   H     0.02554   0.31813   0.99945   0.00000  Uiso   1.00
H217   H     0.94199   0.39758   0.17849   0.00000  Uiso   1.00
H218   H     0.11878   0.38824   0.20279   0.00000  Uiso   1.00
H219   H     0.02388   0.26953   0.82672   0.00000  Uiso   1.00
H220   H     0.84772   0.43706   0.20425   0.00000  Uiso   1.00
H221   H     0.22052   0.41736   0.25550   0.00000  Uiso   1.00
O222   O     0.03016   0.26544   0.60745   0.00000  Uiso   1.00
O223   O     0.79905   0.48524   0.10276   0.00000  Uiso   1.00
O224   O     0.28815   0.45939   0.17000   0.00000  Uiso   1.00
N225   N     0.03730   0.32052   0.63591   0.00000  Uiso   1.00
N226   N     0.87259   0.47714   0.98887   0.00000  Uiso   1.00
N227   N     0.22112   0.45873   0.03680   0.00000  Uiso   1.00
N228   N     0.02823   0.28963   0.78166   0.00000  Uiso   1.00
N229   N     0.86352   0.44626   0.13461   0.00000  Uiso   1.00
N230   N     0.21205   0.42784   0.18255   0.00000  Uiso   1.00
C231   C     0.89011   0.42354   0.61960   0.00000  Uiso   1.00
C232   C     0.89229   0.38807   0.64938   0.00000  Uiso   1.00
C233   C     0.89041   0.37550   0.75580   0.00000  Uiso   1.00
C234   C     0.89295   0.34241   0.76562   0.00000  Uiso   1.00
C235   C     0.89572   0.29034   0.82605   0.00000  Uiso   1.00
C236   C     0.93989   0.43028   0.55168   0.00000  Uiso   1.00
C237   C     0.97802   0.45320   0.57595   0.00000  Uiso   1.00
C238   C     0.02062   0.45565   0.50351   0.00000  Uiso   1.00
C239   C     0.09726   0.46913   0.41222   0.00000  Uiso   1.00
C240   C     0.84354   0.42731   0.54000   0.00000  Uiso   1.00
C241   C     0.80067   0.44774   0.55443   0.00000  Uiso   1.00
C242   C     0.76217   0.44768   0.47214   0.00000  Uiso   1.00
C243   C     0.68922   0.45655   0.36273   0.00000  Uiso   1.00
C244   C     0.89796   0.38712   0.44778   0.00000  Uiso   1.00
C245   C     0.89656   0.36829   0.55605   0.00000  Uiso   1.00
C246   C     0.89910   0.33521   0.56571   0.00000  Uiso   1.00
C247   C     0.89722   0.32259   0.67212   0.00000  Uiso   1.00
C248   C     0.94415   0.41050   0.45836   0.00000  Uiso   1.00
C249   C     0.98671   0.41291   0.38586   0.00000  Uiso   1.00
C250   C     0.02490   0.43583   0.41001   0.00000  Uiso   1.00
C251   C     0.84781   0.40753   0.44668   0.00000  Uiso   1.00
C252   C     0.80936   0.40744   0.36434   0.00000  Uiso   1.00
C253   C     0.76644   0.42787   0.37865   0.00000  Uiso   1.00
H254   H     0.88679   0.43894   0.69225   0.00000  Uiso   1.00
H255   H     0.88712   0.39082   0.82800   0.00000  Uiso   1.00
H256   H     0.97471   0.46851   0.64817   0.00000  Uiso   1.00
H257   H     0.79739   0.46304   0.62666   0.00000  Uiso   1.00
H258   H     0.88937   0.32874   0.93735   0.00000  Uiso   1.00
H259   H     0.07405   0.49257   0.55815   0.00000  Uiso   1.00
H260   H     0.70014   0.48104   0.51279   0.00000  Uiso   1.00
H261   H     0.90128   0.37172   0.37512   0.00000  Uiso   1.00
H262   H     0.90240   0.31991   0.49347   0.00000  Uiso   1.00
H263   H     0.98999   0.39760   0.31364   0.00000  Uiso   1.00
H264   H     0.81268   0.39213   0.29213   0.00000  Uiso   1.00
H265   H     0.90178   0.27119   0.66583   0.00000  Uiso   1.00
H266   H     0.08646   0.43502   0.28663   0.00000  Uiso   1.00
H267   H     0.71255   0.42349   0.24127   0.00000  Uiso   1.00
O268   O     0.89607   0.26709   0.88517   0.00000  Uiso   1.00
O269   O     0.13835   0.48203   0.38766   0.00000  Uiso   1.00
O270   O     0.64779   0.46691   0.32816   0.00000  Uiso   1.00
N271   N     0.89213   0.32231   0.85721   0.00000  Uiso   1.00
N272   N     0.06480   0.47547   0.50268   0.00000  Uiso   1.00
N273   N     0.71523   0.46470   0.46027   0.00000  Uiso   1.00
N274   N     0.89881   0.29134   0.71110   0.00000  Uiso   1.00
N275   N     0.07148   0.44450   0.35658   0.00000  Uiso   1.00
N276   N     0.72191   0.43373   0.31416   0.00000  Uiso   1.00
C277   C     0.45551   0.57850   0.87434   0.00000  Uiso   1.00
C278   C     0.45970   0.61388   0.84425   0.00000  Uiso   1.00
C279   C     0.45818   0.62642   0.73776   0.00000  Uiso   1.00
C280   C     0.46266   0.65943   0.72765   0.00000  Uiso   1.00
C281   C     0.46831   0.71136   0.66675   0.00000  Uiso   1.00
C282   C     0.50510   0.57071   0.94152   0.00000  Uiso   1.00
C283   C     0.54175   0.54696   0.91682   0.00000  Uiso   1.00
C284   C     0.58445   0.54363   0.98860   0.00000  Uiso   1.00
C285   C     0.66056   0.52854   0.07876   0.00000  Uiso   1.00
C286   C     0.40905   0.57579   0.95472   0.00000  Uiso   1.00
C287   C     0.36493   0.55630   0.94113   0.00000  Uiso   1.00
C288   C     0.32676   0.55724   0.02404   0.00000  Uiso   1.00
C289   C     0.25373   0.55003   0.13469   0.00000  Uiso   1.00
C290   C     0.46617   0.61482   0.04574   0.00000  Uiso   1.00
C291   C     0.46549   0.63360   0.93735   0.00000  Uiso   1.00
C292   C     0.46998   0.66660   0.92739   0.00000  Uiso   1.00
C293   C     0.46846   0.67919   0.82091   0.00000  Uiso   1.00
C294   C     0.51090   0.59044   0.03461   0.00000  Uiso   1.00
C295   C     0.55355   0.58715   0.10645   0.00000  Uiso   1.00
C296   C     0.59025   0.56340   0.08186   0.00000  Uiso   1.00
C297   C     0.41484   0.59552   0.04781   0.00000  Uiso   1.00
C298   C     0.37673   0.59649   0.13076   0.00000  Uiso   1.00
C299   C     0.33256   0.57701   0.11730   0.00000  Uiso   1.00
H300   H     0.45101   0.56313   0.80187   0.00000  Uiso   1.00
H301   H     0.45370   0.61114   0.66574   0.00000  Uiso   1.00
H302   H     0.53726   0.53169   0.84478   0.00000  Uiso   1.00
H303   H     0.36047   0.54104   0.86908   0.00000  Uiso   1.00
H304   H     0.45927   0.67306   0.55586   0.00000  Uiso   1.00
H305   H     0.63543   0.50554   0.93339   0.00000  Uiso   1.00
H306   H     0.26263   0.52524   0.98465   0.00000  Uiso   1.00
H307   H     0.47068   0.63018   0.11823   0.00000  Uiso   1.00
H308   H     0.47446   0.68187   0.99945   0.00000  Uiso   1.00
H309   H     0.55801   0.60242   0.17849   0.00000  Uiso   1.00
H310   H     0.38122   0.61176   0.20279   0.00000  Uiso   1.00
H311   H     0.47612   0.73047   0.82672   0.00000  Uiso   1.00
H312   H     0.65228   0.56294   0.20425   0.00000  Uiso   1.00
H313   H     0.27948   0.58264   0.25550   0.00000  Uiso   1.00
O314   O     0.46984   0.73456   0.60745   0.00000  Uiso   1.00
O315   O     0.70095   0.51476   0.10276   0.00000  Uiso   1.00
O316   O     0.21185   0.54061   0.17000   0.00000  Uiso   1.00
N317   N     0.46270   0.67948   0.63591   0.00000  Uiso   1.00
N318   N     0.62741   0.52286   0.98887   0.00000  Uiso   1.00
N319   N     0.27888   0.54127   0.03680   0.00000  Uiso   1.00
N320   N     0.47177   0.71037   0.78166   0.00000  Uiso   1.00
N321   N     0.63648   0.55374   0.13461   0.00000  Uiso   1.00
N322   N     0.28795   0.57216   0.18255   0.00000  Uiso   1.00
C323   C     0.60989   0.57646   0.61960   0.00000  Uiso   1.00
C324   C     0.60771   0.61193   0.64938   0.00000  Uiso   1.00
C325   C     0.60959   0.62450   0.75580   0.00000  Uiso   1.00
C326   C     0.60705   0.65759   0.76562   0.00000  Uiso   1.00
C327   C     0.60428   0.70966   0.82605   0.00000  Uiso   1.00
C328   C     0.56011   0.56972   0.55168   0.00000  Uiso   1.00
C329   C     0.52198   0.54680   0.57595   0.00000  Uiso   1.00
C330   C     0.47938   0.54435   0.50351   0.00000  Uiso   1.00
C331   C     0.40274   0.53087   0.41222   0.00000  Uiso   1.00
C332   C     0.65646   0.57269   0.54000   0.00000  Uiso   1.00
C333   C     0.69933   0.55226   0.55443   0.00000  Uiso   1.00
C334   C     0.73783   0.55232   0.47214   0.00000  Uiso   1.00
C335   C     0.81078   0.54345   0.36273   0.00000  Uiso   1.00
C336   C     0.60204   0.61288   0.44778   0.00000  Uiso   1.00
C337   C     0.60344   0.63171   0.55605   0.00000  Uiso   1.00
C338   C     0.60090   0.66479   0.56571   0.00000  Uiso   1.00
C339   C     0.60278   0.67741   0.67212   0.00000  Uiso   1.00
C340   C     0.55585   0.58950   0.45836   0.00000  Uiso   1.00
C341   C     0.51329   0.58709   0.38586   0.00000  Uiso   1.00
C342   C     0.47510   0.56417   0.41001   0.00000  Uiso   1.00
C343   C     0.65219   0.59247   0.44668   0.00000  Uiso   1.00
C344   C     0.69064   0.59256   0.36434   0.00000  Uiso   1.00
C345   C     0.73356   0.57213   0.37865   0.00000  Uiso   1.00
H346   H     0.61321   0.56106   0.69225   0.00000  Uiso   1.00
H347   H     0.61288   0.60918   0.82800   0.00000  Uiso   1.00
H348   H     0.52529   0.53149   0.64817   0.00000  Uiso   1.00
H349   H     0.70261   0.53696   0.62666   0.00000  Uiso   1.00
H350   H     0.61063   0.67126   0.93735   0.00000  Uiso   1.00
H351   H     0.42595   0.50743   0.55815   0.00000  Uiso   1.00
H352   H     0.79986   0.51896   0.51279   0.00000  Uiso   1.00
H353   H     0.59872   0.62828   0.37512   0.00000  Uiso   1.00
H354   H     0.59760   0.68009   0.49347   0.00000  Uiso   1.00
H355   H     0.51001   0.60240   0.31364   0.00000  Uiso   1.00
H356   H     0.68732   0.60787   0.29213   0.00000  Uiso   1.00
H357   H     0.59822   0.72881   0.66583   0.00000  Uiso   1.00
H358   H     0.41354   0.56498   0.28663   0.00000  Uiso   1.00
H359   H     0.78745   0.57651   0.24127   0.00000  Uiso   1.00
O360   O     0.60393   0.73291   0.88517   0.00000  Uiso   1.00
O361   O     0.36165   0.51797   0.38766   0.00000  Uiso   1.00
O362   O     0.85221   0.53309   0.32816   0.00000  Uiso   1.00
N363   N     0.60787   0.67769   0.85721   0.00000  Uiso   1.00
N364   N     0.43520   0.52453   0.50268   0.00000  Uiso   1.00
N365   N     0.78477   0.53530   0.46027   0.00000  Uiso   1.00
N366   N     0.60119   0.70866   0.71110   0.00000  Uiso   1.00
N367   N     0.42852   0.55550   0.35658   0.00000  Uiso   1.00
N368   N     0.77809   0.56627   0.31416   0.00000  Uiso   1.00
C369   C     0.54449   0.07850   0.37434   0.00000  Uiso   1.00
C370   C     0.54030   0.11388   0.34425   0.00000  Uiso   1.00
C371   C     0.54182   0.12642   0.23776   0.00000  Uiso   1.00
C372   C     0.53734   0.15943   0.22765   0.00000  Uiso   1.00
C373   C     0.53169   0.21136   0.16675   0.00000  Uiso   1.00
C374   C     0.49490   0.07071   0.44152   0.00000  Uiso   1.00
C375   C     0.45825   0.04696   0.41682   0.00000  Uiso   1.00
C376   C     0.41555   0.04363   0.48860   0.00000  Uiso   1.00
C377   C     0.33944   0.02854   0.57876   0.00000  Uiso   1.00
C378   C     0.59095   0.07579   0.45472   0.00000  Uiso   1.00
C379   C     0.63507   0.05630   0.44113   0.00000  Uiso   1.00
C380   C     0.67324   0.05724   0.52404   0.00000  Uiso   1.00
C381   C     0.74627   0.05003   0.63469   0.00000  Uiso   1.00
C382   C     0.53383   0.11482   0.54574   0.00000  Uiso   1.00
C383   C     0.53451   0.13360   0.43735   0.00000  Uiso   1.00
C384   C     0.53002   0.16660   0.42739   0.00000  Uiso   1.00
C385   C     0.53154   0.17919   0.32091   0.00000  Uiso   1.00
C386   C     0.48910   0.09044   0.53461   0.00000  Uiso   1.00
C387   C     0.44645   0.08715   0.60645   0.00000  Uiso   1.00
C388   C     0.40975   0.06340   0.58186   0.00000  Uiso   1.00
C389   C     0.58516   0.09552   0.54781   0.00000  Uiso   1.00
C390   C     0.62327   0.09649   0.63076   0.00000  Uiso   1.00
C391   C     0.66744   0.07701   0.61730   0.00000  Uiso   1.00
H392   H     0.54899   0.06313   0.30187   0.00000  Uiso   1.00
H393   H     0.54630   0.11114   0.16574   0.00000  Uiso   1.00
H394   H     0.46274   0.03169   0.34478   0.00000  Uiso   1.00
H395   H     0.63953   0.04104   0.36908   0.00000  Uiso   1.00
H396   H     0.54073   0.17306   0.05586   0.00000  Uiso   1.00
H397   H     0.36457   0.00554   0.43339   0.00000  Uiso   1.00
H398   H     0.73737   0.02524   0.48465   0.00000  Uiso   1.00
H399   H     0.52932   0.13018   0.61823   0.00000  Uiso   1.00
H400   H     0.52554   0.18187   0.49945   0.00000  Uiso   1.00
H401   H     0.44199   0.10242   0.67849   0.00000  Uiso   1.00
H402   H     0.61878   0.11176   0.70279   0.00000  Uiso   1.00
H403   H     0.52388   0.23047   0.32672   0.00000  Uiso   1.00
H404   H     0.34772   0.06294   0.70425   0.00000  Uiso   1.00
H405   H     0.72052   0.08264   0.75550   0.00000  Uiso   1.00
O406   O     0.53016   0.23456   0.10745   0.00000  Uiso   1.00
O407   O     0.29905   0.01476   0.60276   0.00000  Uiso   1.00
O408   O     0.78815   0.04061   0.67000   0.00000  Uiso   1.00
N409   N     0.53730   0.17948   0.13591   0.00000  Uiso   1.00
N410   N     0.37259   0.02286   0.48887   0.00000  Uiso   1.00
N411   N     0.72112   0.04127   0.53680   0.00000  Uiso   1.00
N412   N     0.52823   0.21037   0.28166   0.00000  Uiso   1.00
N413   N     0.36352   0.05374   0.63461   0.00000  Uiso   1.00
N414   N     0.71205   0.07216   0.68255   0.00000  Uiso   1.00
C415   C     0.39011   0.07646   0.11960   0.00000  Uiso   1.00
C416   C     0.39229   0.11193   0.14938   0.00000  Uiso   1.00
C417   C     0.39041   0.12450   0.25580   0.00000  Uiso   1.00
C418   C     0.39295   0.15759   0.26562   0.00000  Uiso   1.00
C419   C     0.39572   0.20966   0.32605   0.00000  Uiso   1.00
C420   C     0.43989   0.06972   0.05168   0.00000  Uiso   1.00
C421   C     0.47802   0.04680   0.07595   0.00000  Uiso   1.00
C422   C     0.52062   0.04435   0.00351   0.00000  Uiso   1.00
C423   C     0.59726   0.03087   0.91222   0.00000  Uiso   1.00
C424   C     0.34354   0.07269   0.04000   0.00000  Uiso   1.00
C425   C     0.30067   0.05226   0.05443   0.00000  Uiso   1.00
C426   C     0.26217   0.05232   0.97214   0.00000  Uiso   1.00
C427   C     0.18922   0.04345   0.86273   0.00000  Uiso   1.00
C428   C     0.39796   0.11288   0.94778   0.00000  Uiso   1.00
C429   C     0.39656   0.13171   0.05605   0.00000  Uiso   1.00
C430   C     0.39910   0.16479   0.06571   0.00000  Uiso   1.00
C431   C     0.39722   0.17741   0.17212   0.00000  Uiso   1.00
C432   C     0.44415   0.08950   0.95836   0.00000  Uiso   1.00
C433   C     0.48671   0.08709   0.88586   0.00000  Uiso   1.00
C434   C     0.52490   0.06417   0.91001   0.00000  Uiso   1.00
C435   C     0.34781   0.09247   0.94668   0.00000  Uiso   1.00
C436   C     0.30936   0.09256   0.86434   0.00000  Uiso   1.00
C437   C     0.26644   0.07213   0.87865   0.00000  Uiso   1.00
H438   H     0.38679   0.06106   0.19225   0.00000  Uiso   1.00
H439   H     0.38712   0.10918   0.32800   0.00000  Uiso   1.00
H440   H     0.47471   0.03149   0.14817   0.00000  Uiso   1.00
H441   H     0.29739   0.03696   0.12666   0.00000  Uiso   1.00
H442   H     0.38937   0.17126   0.43735   0.00000  Uiso   1.00
H443   H     0.57405   0.00743   0.05815   0.00000  Uiso   1.00
H444   H     0.20014   0.01896   0.01279   0.00000  Uiso   1.00
H445   H     0.40128   0.12828   0.87512   0.00000  Uiso   1.00
H446   H     0.40240   0.18009   0.99347   0.00000  Uiso   1.00
H447   H     0.48999   0.10240   0.81364   0.00000  Uiso   1.00
H448   H     0.31268   0.10787   0.79213   0.00000  Uiso   1.00
H449   H     0.40178   0.22881   0.16583   0.00000  Uiso   1.00
H450   H     0.58646   0.06498   0.78663   0.00000  Uiso   1.00
H451   H     0.21255   0.07651   0.74127   0.00000  Uiso   1.00
O452   O     0.39607   0.23291   0.38517   0.00000  Uiso   1.00
O453   O     0.63835   0.01797   0.88766   0.00000  Uiso   1.00
O454   O     0.14779   0.03309   0.82816   0.00000  Uiso   1.00
N455   N     0.39213   0.17769   0.35721   0.00000  Uiso   1.00
N456   N     0.56480   0.02453   0.00268   0.00000  Uiso   1.00
N457   N     0.21523   0.03530   0.96027   0.00000  Uiso   1.00
N458   N     0.39881   0.20866   0.21110   0.00000  Uiso   1.00
N459   N     0.57148   0.05550   0.85658   0.00000  Uiso   1.00
N460   N     0.22191   0.06627   0.81416   0.00000  Uiso   1.00
C461   C     0.95551   0.92150   0.37434   0.00000  Uiso   1.00
C462   C     0.95970   0.88612   0.34425   0.00000  Uiso   1.00
C463   C     0.95818   0.87358   0.23776   0.00000  Uiso   1.00
C464   C     0.96266   0.84057   0.22765   0.00000  Uiso   1.00
C465   C     0.96831   0.78864   0.16675   0.00000  Uiso   1.00
C466   C     0.00510   0.92929   0.44152   0.00000  Uiso   1.00
C467   C     0.04175   0.95304   0.41682   0.00000  Uiso   1.00
C468   C     0.08445   0.95637   0.48860   0.00000  Uiso   1.00
C469   C     0.16056   0.97146   0.57876   0.00000  Uiso   1.00
C470   C     0.90905   0.92421   0.45472   0.00000  Uiso   1.00
C471   C     0.86493   0.94370   0.44113   0.00000  Uiso   1.00
C472   C     0.82676   0.94276   0.52404   0.00000  Uiso   1.00
C473   C     0.75373   0.94997   0.63469   0.00000  Uiso   1.00
C474   C     0.96617   0.88518   0.54574   0.00000  Uiso   1.00
C475   C     0.96549   0.86640   0.43735   0.00000  Uiso   1.00
C476   C     0.96998   0.83340   0.42739   0.00000  Uiso   1.00
C477   C     0.96846   0.82081   0.32091   0.00000  Uiso   1.00
C478   C     0.01090   0.90956   0.53461   0.00000  Uiso   1.00
C479   C     0.05355   0.91285   0.60645   0.00000  Uiso   1.00
C480   C     0.09025   0.93660   0.58186   0.00000  Uiso   1.00
C481   C     0.91484   0.90448   0.54781   0.00000  Uiso   1.00
C482   C     0.87673   0.90351   0.63076   0.00000  Uiso   1.00
C483   C     0.83256   0.92299   0.61730   0.00000  Uiso   1.00
H484   H     0.95101   0.93687   0.30187   0.00000  Uiso   1.00
H485   H     0.95370   0.88886   0.16574   0.00000  Uiso   1.00
H486   H     0.03726   0.96831   0.34478   0.00000  Uiso   1.00
H487   H     0.86047   0.95896   0.36908   0.00000  Uiso   1.00
H488   H     0.95927   0.82694   0.05586   0.00000  Uiso   1.00
H489   H     0.13543   0.99446   0.43339   0.00000  Uiso   1.00
H490   H     0.76263   0.97476   0.48465   0.00000  Uiso   1.00
H491   H     0.97068   0.86982   0.61823   0.00000  Uiso   1.00
H492   H     0.97446   0.81813   0.49945   0.00000  Uiso   1.00
H493   H     0.05801   0.89758   0.67849   0.00000  Uiso   1.00
H494   H     0.88122   0.88824   0.70279   0.00000  Uiso   1.00
H495   H     0.97612   0.76953   0.32672   0.00000  Uiso   1.00
H496   H     0.15228   0.93706   0.70425   0.00000  Uiso   1.00
H497   H     0.77948   0.91736   0.75550   0.00000  Uiso   1.00
O498   O     0.96984   0.76544   0.10745   0.00000  Uiso   1.00
O499   O     0.20095   0.98524   0.60276   0.00000  Uiso   1.00
O500   O     0.71185   0.95939   0.67000   0.00000  Uiso   1.00
N501   N     0.96270   0.82052   0.13591   0.00000  Uiso   1.00
N502   N     0.12741   0.97714   0.48887   0.00000  Uiso   1.00
N503   N     0.77888   0.95873   0.53680   0.00000  Uiso   1.00
N504   N     0.97177   0.78963   0.28166   0.00000  Uiso   1.00
N505   N     0.13648   0.94626   0.63461   0.00000  Uiso   1.00
N506   N     0.78795   0.92784   0.68255   0.00000  Uiso   1.00
C507   C     0.10989   0.92354   0.11960   0.00000  Uiso   1.00
C508   C     0.10771   0.88807   0.14938   0.00000  Uiso   1.00
C509   C     0.10959   0.87550   0.25580   0.00000  Uiso   1.00
C510   C     0.10705   0.84241   0.26562   0.00000  Uiso   1.00
C511   C     0.10428   0.79034   0.32605   0.00000  Uiso   1.00
C512   C     0.06011   0.93028   0.05168   0.00000  Uiso   1.00
C513   C     0.02198   0.95320   0.07595   0.00000  Uiso   1.00
C514   C     0.97938   0.95565   0.00351   0.00000  Uiso   1.00
C515   C     0.90274   0.96913   0.91222   0.00000  Uiso   1.00
C516   C     0.15646   0.92731   0.04000   0.00000  Uiso   1.00
C517   C     0.19933   0.94774   0.05443   0.00000  Uiso   1.00
C518   C     0.23783   0.94768   0.97214   0.00000  Uiso   1.00
C519   C     0.31078   0.95655   0.86273   0.00000  Uiso   1.00
C520   C     0.10204   0.88712   0.94778   0.00000  Uiso   1.00
C521   C     0.10344   0.86829   0.05605   0.00000  Uiso   1.00
C522   C     0.10090   0.83521   0.06571   0.00000  Uiso   1.00
C523   C     0.10278   0.82259   0.17212   0.00000  Uiso   1.00
C524   C     0.05585   0.91050   0.95836   0.00000  Uiso   1.00
C525   C     0.01329   0.91291   0.88586   0.00000  Uiso   1.00
C526   C     0.97510   0.93583   0.91001   0.00000  Uiso   1.00
C527   C     0.15219   0.90753   0.94668   0.00000  Uiso   1.00
C528   C     0.19064   0.90744   0.86434   0.00000  Uiso   1.00
C529   C     0.23356   0.92787   0.87865   0.00000  Uiso   1.00
H530   H     0.11321   0.93894   0.19225   0.00000  Uiso   1.00
H531   H     0.11288   0.89082   0.32800   0.00000  Uiso   1.00
H532   H     0.02529   0.96851   0.14817   0.00000  Uiso   1.00
H533   H     0.20261   0.96304   0.12666   0.00000  Uiso   1.00
H534   H     0.11063   0.82874   0.43735   0.00000  Uiso   1.00
H535   H     0.92595   0.99257   0.05815   0.00000  Uiso   1.00
H536   H     0.29986   0.98104   0.01279   0.00000  Uiso   1.00
H537   H     0.09872   0.87172   0.87512   0.00000  Uiso   1.00
H538   H     0.09760   0.81991   0.99347   0.00000  Uiso   1.00
H539   H     0.01001   0.89760   0.81364   0.00000  Uiso   1.00
H540   H     0.18732   0.89213   0.79213   0.00000  Uiso   1.00
H541   H     0.09822   0.77119   0.16583   0.00000  Uiso   1.00
H542   H     0.91354   0.93502   0.78663   0.00000  Uiso   1.00
H543   H     0.28745   0.92349   0.74127   0.00000  Uiso   1.00
O544   O     0.10393   0.76709   0.38517   0.00000  Uiso   1.00
O545   O     0.86165   0.98203   0.88766   0.00000  Uiso   1.00
O546   O     0.35221   0.96691   0.82816   0.00000  Uiso   1.00
N547   N     0.10787   0.82231   0.35721   0.00000  Uiso   1.00
N548   N     0.93520   0.97547   0.00268   0.00000  Uiso   1.00
N549   N     0.28477   0.96470   0.96027   0.00000  Uiso   1.00
N550   N     0.10119   0.79134   0.21110   0.00000  Uiso   1.00
N551   N     0.92852   0.94450   0.85658   0.00000  Uiso   1.00
N552   N     0.27809   0.93373   0.81416   0.00000  Uiso   1.00
C553   C     0.95551   0.57850   0.12566   0.00000  Uiso   1.00
C554   C     0.95970   0.61388   0.15575   0.00000  Uiso   1.00
C555   C     0.95818   0.62642   0.26224   0.00000  Uiso   1.00
C556   C     0.96266   0.65943   0.27235   0.00000  Uiso   1.00
C557   C     0.96831   0.71136   0.33325   0.00000  Uiso   1.00
C558   C     0.00510   0.57071   0.05848   0.00000  Uiso   1.00
C559   C     0.04175   0.54696   0.08318   0.00000  Uiso   1.00
C560   C     0.08445   0.54363   0.01140   0.00000  Uiso   1.00
C561   C     0.16056   0.52854   0.92124   0.00000  Uiso   1.00
C562   C     0.90905   0.57579   0.04528   0.00000  Uiso   1.00
C563   C     0.86493   0.55630   0.05887   0.00000  Uiso   1.00
C564   C     0.82676   0.55724   0.97596   0.00000  Uiso   1.00
C565   C     0.75373   0.55003   0.86531   0.00000  Uiso   1.00
C566   C     0.96617   0.61482   0.95426   0.00000  Uiso   1.00
C567   C     0.96549   0.63360   0.06265   0.00000  Uiso   1.00
C568   C     0.96998   0.66660   0.07261   0.00000  Uiso   1.00
C569   C     0.96846   0.67919   0.17909   0.00000  Uiso   1.00
C570   C     0.01090   0.59044   0.96539   0.00000  Uiso   1.00
C571   C     0.05355   0.58715   0.89355   0.00000  Uiso   1.00
C572   C     0.09025   0.56340   0.91814   0.00000  Uiso   1.00
C573   C     0.91484   0.59552   0.95219   0.00000  Uiso   1.00
C574   C     0.87673   0.59649   0.86924   0.00000  Uiso   1.00
C575   C     0.83256   0.57701   0.88270   0.00000  Uiso   1.00
H576   H     0.95101   0.56313   0.19813   0.00000  Uiso   1.00
H577   H     0.95370   0.61114   0.33426   0.00000  Uiso   1.00
H578   H     0.03726   0.53169   0.15522   0.00000  Uiso   1.00
H579   H     0.86047   0.54104   0.13092   0.00000  Uiso   1.00
H580   H     0.95927   0.67306   0.44414   0.00000  Uiso   1.00
H581   H     0.13543   0.50554   0.06661   0.00000  Uiso   1.00
H582   H     0.76263   0.52524   0.01535   0.00000  Uiso   1.00
H583   H     0.97068   0.63018   0.88177   0.00000  Uiso   1.00
H584   H     0.97446   0.68187   0.00055   0.00000  Uiso   1.00
H585   H     0.05801   0.60242   0.82151   0.00000  Uiso   1.00
H586   H     0.88122   0.61176   0.79721   0.00000  Uiso   1.00
H587   H     0.97612   0.73047   0.17328   0.00000  Uiso   1.00
H588   H     0.15228   0.56294   0.79575   0.00000  Uiso   1.00
H589   H     0.77948   0.58264   0.74450   0.00000  Uiso   1.00
O590   O     0.96984   0.73456   0.39255   0.00000  Uiso   1.00
O591   O     0.20095   0.51476   0.89724   0.00000  Uiso   1.00
O592   O     0.71185   0.54061   0.83000   0.00000  Uiso   1.00
N593   N     0.96270   0.67948   0.36409   0.00000  Uiso   1.00
N594   N     0.12741   0.52286   0.01113   0.00000  Uiso   1.00
N595   N     0.77888   0.54127   0.96320   0.00000  Uiso   1.00
N596   N     0.97177   0.71037   0.21834   0.00000  Uiso   1.00
N597   N     0.13648   0.55374   0.86539   0.00000  Uiso   1.00
N598   N     0.78795   0.57216   0.81745   0.00000  Uiso   1.00
C599   C     0.10989   0.57646   0.38040   0.00000  Uiso   1.00
C600   C     0.10771   0.61193   0.35062   0.00000  Uiso   1.00
C601   C     0.10959   0.62450   0.24420   0.00000  Uiso   1.00
C602   C     0.10705   0.65759   0.23438   0.00000  Uiso   1.00
C603   C     0.10428   0.70966   0.17395   0.00000  Uiso   1.00
C604   C     0.06011   0.56972   0.44832   0.00000  Uiso   1.00
C605   C     0.02198   0.54680   0.42405   0.00000  Uiso   1.00
C606   C     0.97938   0.54435   0.49649   0.00000  Uiso   1.00
C607   C     0.90274   0.53087   0.58778   0.00000  Uiso   1.00
C608   C     0.15646   0.57269   0.46000   0.00000  Uiso   1.00
C609   C     0.19933   0.55226   0.44557   0.00000  Uiso   1.00
C610   C     0.23783   0.55232   0.52786   0.00000  Uiso   1.00
C611   C     0.31078   0.54345   0.63727   0.00000  Uiso   1.00
C612   C     0.10204   0.61288   0.55222   0.00000  Uiso   1.00
C613   C     0.10344   0.63171   0.44395   0.00000  Uiso   1.00
C614   C     0.10090   0.66479   0.43429   0.00000  Uiso   1.00
C615   C     0.10278   0.67741   0.32788   0.00000  Uiso   1.00
C616   C     0.05585   0.58950   0.54164   0.00000  Uiso   1.00
C617   C     0.01329   0.58709   0.61414   0.00000  Uiso   1.00
C618   C     0.97510   0.56417   0.58999   0.00000  Uiso   1.00
C619   C     0.15219   0.59247   0.55332   0.00000  Uiso   1.00
C620   C     0.19064   0.59256   0.63566   0.00000  Uiso   1.00
C621   C     0.23356   0.57213   0.62135   0.00000  Uiso   1.00
H622   H     0.11321   0.56106   0.30775   0.00000  Uiso   1.00
H623   H     0.11288   0.60918   0.17200   0.00000  Uiso   1.00
H624   H     0.02529   0.53149   0.35183   0.00000  Uiso   1.00
H625   H     0.20261   0.53696   0.37334   0.00000  Uiso   1.00
H626   H     0.11063   0.67126   0.06265   0.00000  Uiso   1.00
H627   H     0.92595   0.50743   0.44185   0.00000  Uiso   1.00
H628   H     0.29986   0.51896   0.48721   0.00000  Uiso   1.00
H629   H     0.09872   0.62828   0.62488   0.00000  Uiso   1.00
H630   H     0.09760   0.68009   0.50653   0.00000  Uiso   1.00
H631   H     0.01001   0.60240   0.68636   0.00000  Uiso   1.00
H632   H     0.18732   0.60787   0.70787   0.00000  Uiso   1.00
H633   H     0.09822   0.72881   0.33417   0.00000  Uiso   1.00
H634   H     0.91354   0.56498   0.71337   0.00000  Uiso   1.00
H635   H     0.28745   0.57651   0.75873   0.00000  Uiso   1.00
O636   O     0.10393   0.73291   0.11483   0.00000  Uiso   1.00
O637   O     0.86165   0.51797   0.61234   0.00000  Uiso   1.00
O638   O     0.35221   0.53309   0.67184   0.00000  Uiso   1.00
N639   N     0.10787   0.67769   0.14279   0.00000  Uiso   1.00
N640   N     0.93520   0.52453   0.49732   0.00000  Uiso   1.00
N641   N     0.28477   0.53530   0.53973   0.00000  Uiso   1.00
N642   N     0.10119   0.70866   0.28890   0.00000  Uiso   1.00
N643   N     0.92852   0.55550   0.64342   0.00000  Uiso   1.00
N644   N     0.27809   0.56627   0.68584   0.00000  Uiso   1.00
C645   C     0.54449   0.42150   0.12566   0.00000  Uiso   1.00
C646   C     0.54030   0.38612   0.15575   0.00000  Uiso   1.00
C647   C     0.54182   0.37358   0.26224   0.00000  Uiso   1.00
C648   C     0.53734   0.34057   0.27235   0.00000  Uiso   1.00
C649   C     0.53169   0.28864   0.33325   0.00000  Uiso   1.00
C650   C     0.49490   0.42929   0.05848   0.00000  Uiso   1.00
C651   C     0.45825   0.45304   0.08318   0.00000  Uiso   1.00
C652   C     0.41555   0.45637   0.01140   0.00000  Uiso   1.00
C653   C     0.33944   0.47146   0.92124   0.00000  Uiso   1.00
C654   C     0.59095   0.42421   0.04528   0.00000  Uiso   1.00
C655   C     0.63507   0.44370   0.05887   0.00000  Uiso   1.00
C656   C     0.67324   0.44276   0.97596   0.00000  Uiso   1.00
C657   C     0.74627   0.44997   0.86531   0.00000  Uiso   1.00
C658   C     0.53383   0.38518   0.95426   0.00000  Uiso   1.00
C659   C     0.53451   0.36640   0.06265   0.00000  Uiso   1.00
C660   C     0.53002   0.33340   0.07261   0.00000  Uiso   1.00
C661   C     0.53154   0.32081   0.17909   0.00000  Uiso   1.00
C662   C     0.48910   0.40956   0.96539   0.00000  Uiso   1.00
C663   C     0.44645   0.41285   0.89355   0.00000  Uiso   1.00
C664   C     0.40975   0.43660   0.91814   0.00000  Uiso   1.00
C665   C     0.58516   0.40448   0.95219   0.00000  Uiso   1.00
C666   C     0.62327   0.40351   0.86924   0.00000  Uiso   1.00
C667   C     0.66744   0.42299   0.88270   0.00000  Uiso   1.00
H668   H     0.54899   0.43687   0.19813   0.00000  Uiso   1.00
H669   H     0.54630   0.38886   0.33426   0.00000  Uiso   1.00
H670   H     0.46274   0.46831   0.15522   0.00000  Uiso   1.00
H671   H     0.63953   0.45896   0.13092   0.00000  Uiso   1.00
H672   H     0.54073   0.32694   0.44414   0.00000  Uiso   1.00
H673   H     0.36457   0.49446   0.06661   0.00000  Uiso   1.00
H674   H     0.73737   0.47476   0.01535   0.00000  Uiso   1.00
H675   H     0.52932   0.36982   0.88177   0.00000  Uiso   1.00
H676   H     0.52554   0.31813   0.00055   0.00000  Uiso   1.00
H677   H     0.44199   0.39758   0.82151   0.00000  Uiso   1.00
H678   H     0.61878   0.38824   0.79721   0.00000  Uiso   1.00
H679   H     0.52388   0.26953   0.17328   0.00000  Uiso   1.00
H680   H     0.34772   0.43706   0.79575   0.00000  Uiso   1.00
H681   H     0.72052   0.41736   0.74450   0.00000  Uiso   1.00
O682   O     0.53016   0.26544   0.39255   0.00000  Uiso   1.00
O683   O     0.29905   0.48524   0.89724   0.00000  Uiso   1.00
O684   O     0.78815   0.45939   0.83000   0.00000  Uiso   1.00
N685   N     0.53730   0.32052   0.36409   0.00000  Uiso   1.00
N686   N     0.37259   0.47714   0.01113   0.00000  Uiso   1.00
N687   N     0.72112   0.45873   0.96320   0.00000  Uiso   1.00
N688   N     0.52823   0.28963   0.21834   0.00000  Uiso   1.00
N689   N     0.36352   0.44626   0.86539   0.00000  Uiso   1.00
N690   N     0.71205   0.42784   0.81745   0.00000  Uiso   1.00
C691   C     0.39011   0.42354   0.38040   0.00000  Uiso   1.00
C692   C     0.39229   0.38807   0.35062   0.00000  Uiso   1.00
C693   C     0.39041   0.37550   0.24420   0.00000  Uiso   1.00
C694   C     0.39295   0.34241   0.23438   0.00000  Uiso   1.00
C695   C     0.39572   0.29034   0.17395   0.00000  Uiso   1.00
C696   C     0.43989   0.43028   0.44832   0.00000  Uiso   1.00
C697   C     0.47802   0.45320   0.42405   0.00000  Uiso   1.00
C698   C     0.52062   0.45565   0.49649   0.00000  Uiso   1.00
C699   C     0.59726   0.46913   0.58778   0.00000  Uiso   1.00
C700   C     0.34354   0.42731   0.46000   0.00000  Uiso   1.00
C701   C     0.30067   0.44774   0.44557   0.00000  Uiso   1.00
C702   C     0.26217   0.44768   0.52786   0.00000  Uiso   1.00
C703   C     0.18922   0.45655   0.63727   0.00000  Uiso   1.00
C704   C     0.39796   0.38712   0.55222   0.00000  Uiso   1.00
C705   C     0.39656   0.36829   0.44395   0.00000  Uiso   1.00
C706   C     0.39910   0.33521   0.43429   0.00000  Uiso   1.00
C707   C     0.39722   0.32259   0.32788   0.00000  Uiso   1.00
C708   C     0.44415   0.41050   0.54164   0.00000  Uiso   1.00
C709   C     0.48671   0.41291   0.61414   0.00000  Uiso   1.00
C710   C     0.52490   0.43583   0.58999   0.00000  Uiso   1.00
C711   C     0.34781   0.40753   0.55332   0.00000  Uiso   1.00
C712   C     0.30936   0.40744   0.63566   0.00000  Uiso   1.00
C713   C     0.26644   0.42787   0.62135   0.00000  Uiso   1.00
H714   H     0.38679   0.43894   0.30775   0.00000  Uiso   1.00
H715   H     0.38712   0.39082   0.17200   0.00000  Uiso   1.00
H716   H     0.47471   0.46851   0.35183   0.00000  Uiso   1.00
H717   H     0.29739   0.46304   0.37334   0.00000  Uiso   1.00
H718   H     0.38937   0.32874   0.06265   0.00000  Uiso   1.00
H719   H     0.57405   0.49257   0.44185   0.00000  Uiso   1.00
H720   H     0.20014   0.48104   0.48721   0.00000  Uiso   1.00
H721   H     0.40128   0.37172   0.62488   0.00000  Uiso   1.00
H722   H     0.40240   0.31991   0.50653   0.00000  Uiso   1.00
H723   H     0.48999   0.39760   0.68636   0.00000  Uiso   1.00
H724   H     0.31268   0.39213   0.70787   0.00000  Uiso   1.00
H725   H     0.40178   0.27119   0.33417   0.00000  Uiso   1.00
H726   H     0.58646   0.43502   0.71337   0.00000  Uiso   1.00
H727   H     0.21255   0.42349   0.75873   0.00000  Uiso   1.00
O728   O     0.39607   0.26709   0.11483   0.00000  Uiso   1.00
O729   O     0.63835   0.48203   0.61234   0.00000  Uiso   1.00
O730   O     0.14779   0.46691   0.67184   0.00000  Uiso   1.00
N731   N     0.39213   0.32231   0.14279   0.00000  Uiso   1.00
N732   N     0.56480   0.47547   0.49732   0.00000  Uiso   1.00
N733   N     0.21523   0.46470   0.53973   0.00000  Uiso   1.00
N734   N     0.39881   0.29134   0.28890   0.00000  Uiso   1.00
N735   N     0.57148   0.44450   0.64342   0.00000  Uiso   1.00
N736   N     0.22191   0.43373   0.68584   0.00000  Uiso   1.00
