data_job_03812
_audit_creation_date              2018-12-19
_audit_creation_method            'Materials Studio'
_symmetry_space_group_name_H-M    'P1'
_symmetry_Int_Tables_number       1
_symmetry_cell_setting            triclinic
loop_
_symmetry_equiv_pos_as_xyz
  x,y,z
_cell_length_a                    23.2174
_cell_length_b                    23.2174
_cell_length_c                    20.6701
_cell_angle_alpha                 90.0000
_cell_angle_beta                  90.0000
_cell_angle_gamma                 90.0000
loop_
_atom_site_label
_atom_site_type_symbol
_atom_site_fract_x
_atom_site_fract_y
_atom_site_fract_z
_atom_site_U_iso_or_equiv
_atom_site_adp_type
_atom_site_occupancy
C1     C     0.22098   0.98018   0.15129   0.00000  Uiso   1.00
C2     C     0.23030   0.04508   0.14698   0.00000  Uiso   1.00
C3     C     0.19539   0.08368   0.11397   0.00000  Uiso   1.00
C4     C     0.21126   0.14132   0.11584   0.00000  Uiso   1.00
C5     C     0.21830   0.23931   0.10400   0.00000  Uiso   1.00
C6     C     0.27621   0.95256   0.12614   0.00000  Uiso   1.00
C7     C     0.27989   0.91337   0.07561   0.00000  Uiso   1.00
C8     C     0.33440   0.89312   0.05995   0.00000  Uiso   1.00
C9     C     0.41270   0.84744   0.01578   0.00000  Uiso   1.00
C10    C     0.21828   0.96598   0.22325   0.00000  Uiso   1.00
C11    C     0.17327   0.93806   0.25438   0.00000  Uiso   1.00
C12    C     0.17902   0.92910   0.32047   0.00000  Uiso   1.00
C13    C     0.16738   0.90426   0.42709   0.00000  Uiso   1.00
C14    C     0.31123   0.01388   0.21333   0.00000  Uiso   1.00
C15    C     0.27932   0.06338   0.18068   0.00000  Uiso   1.00
C16    C     0.29525   0.12097   0.18261   0.00000  Uiso   1.00
C17    C     0.26037   0.15966   0.14960   0.00000  Uiso   1.00
C18    C     0.32523   0.97087   0.15984   0.00000  Uiso   1.00
C19    C     0.37975   0.95066   0.14425   0.00000  Uiso   1.00
C20    C     0.38351   0.91146   0.09370   0.00000  Uiso   1.00
C21    C     0.26730   0.98429   0.25695   0.00000  Uiso   1.00
C22    C     0.27312   0.97536   0.32302   0.00000  Uiso   1.00
C23    C     0.22813   0.94743   0.35423   0.00000  Uiso   1.00
H24    H     0.18281   0.96592   0.12505   0.00000  Uiso   1.00
H25    H     0.15746   0.06950   0.08789   0.00000  Uiso   1.00
H26    H     0.24195   0.89921   0.04955   0.00000  Uiso   1.00
H27    H     0.13534   0.92391   0.22828   0.00000  Uiso   1.00
H28    H     0.15099   0.19241   0.06153   0.00000  Uiso   1.00
H29    H     0.32912   0.83333   0.98069   0.00000  Uiso   1.00
H30    H     0.10432   0.88539   0.35759   0.00000  Uiso   1.00
H31    H     0.34940   0.02813   0.23956   0.00000  Uiso   1.00
H32    H     0.33319   0.13512   0.20869   0.00000  Uiso   1.00
H33    H     0.41767   0.96483   0.17034   0.00000  Uiso   1.00
H34    H     0.31107   0.98953   0.34908   0.00000  Uiso   1.00
H35    H     0.29361   0.24567   0.15957   0.00000  Uiso   1.00
H36    H     0.47175   0.88659   0.07873   0.00000  Uiso   1.00
H37    H     0.24695   0.93866   0.45563   0.00000  Uiso   1.00
O38    O     0.20864   0.28830   0.08815   0.00000  Uiso   1.00
O39    O     0.44234   0.81719   0.98210   0.00000  Uiso   1.00
O40    O     0.14742   0.88551   0.47659   0.00000  Uiso   1.00
N41    N     0.18677   0.19026   0.08885   0.00000  Uiso   1.00
N42    N     0.35332   0.85455   0.01326   0.00000  Uiso   1.00
N43    N     0.14316   0.90321   0.36564   0.00000  Uiso   1.00
N44    N     0.26352   0.21892   0.14161   0.00000  Uiso   1.00
N45    N     0.43007   0.88321   0.06602   0.00000  Uiso   1.00
N46    N     0.21990   0.93187   0.41839   0.00000  Uiso   1.00
C47    C     0.77902   0.01982   0.15129   0.00000  Uiso   1.00
C48    C     0.76970   0.95492   0.14698   0.00000  Uiso   1.00
C49    C     0.80461   0.91632   0.11397   0.00000  Uiso   1.00
C50    C     0.78874   0.85868   0.11584   0.00000  Uiso   1.00
C51    C     0.78170   0.76069   0.10400   0.00000  Uiso   1.00
C52    C     0.72379   0.04744   0.12614   0.00000  Uiso   1.00
C53    C     0.72011   0.08663   0.07561   0.00000  Uiso   1.00
C54    C     0.66560   0.10688   0.05995   0.00000  Uiso   1.00
C55    C     0.58730   0.15256   0.01578   0.00000  Uiso   1.00
C56    C     0.78172   0.03402   0.22325   0.00000  Uiso   1.00
C57    C     0.82673   0.06194   0.25438   0.00000  Uiso   1.00
C58    C     0.82098   0.07090   0.32047   0.00000  Uiso   1.00
C59    C     0.83262   0.09574   0.42709   0.00000  Uiso   1.00
C60    C     0.68877   0.98612   0.21333   0.00000  Uiso   1.00
C61    C     0.72068   0.93662   0.18068   0.00000  Uiso   1.00
C62    C     0.70475   0.87903   0.18261   0.00000  Uiso   1.00
C63    C     0.73963   0.84034   0.14960   0.00000  Uiso   1.00
C64    C     0.67477   0.02913   0.15984   0.00000  Uiso   1.00
C65    C     0.62025   0.04934   0.14425   0.00000  Uiso   1.00
C66    C     0.61649   0.08854   0.09370   0.00000  Uiso   1.00
C67    C     0.73270   0.01571   0.25695   0.00000  Uiso   1.00
C68    C     0.72688   0.02464   0.32302   0.00000  Uiso   1.00
C69    C     0.77187   0.05257   0.35423   0.00000  Uiso   1.00
H70    H     0.81719   0.03408   0.12505   0.00000  Uiso   1.00
H71    H     0.84254   0.93050   0.08789   0.00000  Uiso   1.00
H72    H     0.75805   0.10079   0.04955   0.00000  Uiso   1.00
H73    H     0.86466   0.07609   0.22828   0.00000  Uiso   1.00
H74    H     0.84901   0.80759   0.06153   0.00000  Uiso   1.00
H75    H     0.67088   0.16667   0.98069   0.00000  Uiso   1.00
H76    H     0.89568   0.11461   0.35759   0.00000  Uiso   1.00
H77    H     0.65060   0.97187   0.23956   0.00000  Uiso   1.00
H78    H     0.66681   0.86488   0.20869   0.00000  Uiso   1.00
H79    H     0.58233   0.03517   0.17034   0.00000  Uiso   1.00
H80    H     0.68893   0.01047   0.34908   0.00000  Uiso   1.00
H81    H     0.70639   0.75433   0.15957   0.00000  Uiso   1.00
H82    H     0.52825   0.11341   0.07873   0.00000  Uiso   1.00
H83    H     0.75305   0.06134   0.45563   0.00000  Uiso   1.00
O84    O     0.79136   0.71170   0.08815   0.00000  Uiso   1.00
O85    O     0.55766   0.18281   0.98210   0.00000  Uiso   1.00
O86    O     0.85258   0.11449   0.47659   0.00000  Uiso   1.00
N87    N     0.81323   0.80974   0.08885   0.00000  Uiso   1.00
N88    N     0.64668   0.14545   0.01326   0.00000  Uiso   1.00
N89    N     0.85684   0.09679   0.36564   0.00000  Uiso   1.00
N90    N     0.73648   0.78108   0.14161   0.00000  Uiso   1.00
N91    N     0.56993   0.11679   0.06602   0.00000  Uiso   1.00
N92    N     0.78010   0.06813   0.41839   0.00000  Uiso   1.00
C93    C     0.51982   0.72098   0.15129   0.00000  Uiso   1.00
C94    C     0.45492   0.73030   0.14698   0.00000  Uiso   1.00
C95    C     0.41632   0.69539   0.11397   0.00000  Uiso   1.00
C96    C     0.35868   0.71126   0.11584   0.00000  Uiso   1.00
C97    C     0.26069   0.71830   0.10400   0.00000  Uiso   1.00
C98    C     0.54744   0.77621   0.12614   0.00000  Uiso   1.00
C99    C     0.58663   0.77989   0.07561   0.00000  Uiso   1.00
C100   C     0.60688   0.83440   0.05995   0.00000  Uiso   1.00
C101   C     0.65256   0.91270   0.01578   0.00000  Uiso   1.00
C102   C     0.53402   0.71828   0.22325   0.00000  Uiso   1.00
C103   C     0.56194   0.67327   0.25438   0.00000  Uiso   1.00
C104   C     0.57090   0.67902   0.32047   0.00000  Uiso   1.00
C105   C     0.59574   0.66738   0.42709   0.00000  Uiso   1.00
C106   C     0.48612   0.81123   0.21333   0.00000  Uiso   1.00
C107   C     0.43662   0.77932   0.18068   0.00000  Uiso   1.00
C108   C     0.37903   0.79525   0.18261   0.00000  Uiso   1.00
C109   C     0.34034   0.76037   0.14960   0.00000  Uiso   1.00
C110   C     0.52913   0.82523   0.15984   0.00000  Uiso   1.00
C111   C     0.54934   0.87975   0.14425   0.00000  Uiso   1.00
C112   C     0.58854   0.88351   0.09370   0.00000  Uiso   1.00
C113   C     0.51571   0.76730   0.25695   0.00000  Uiso   1.00
C114   C     0.52464   0.77312   0.32302   0.00000  Uiso   1.00
C115   C     0.55257   0.72813   0.35423   0.00000  Uiso   1.00
H116   H     0.53408   0.68281   0.12505   0.00000  Uiso   1.00
H117   H     0.43050   0.65746   0.08789   0.00000  Uiso   1.00
H118   H     0.60079   0.74195   0.04955   0.00000  Uiso   1.00
H119   H     0.57609   0.63534   0.22828   0.00000  Uiso   1.00
H120   H     0.30759   0.65099   0.06153   0.00000  Uiso   1.00
H121   H     0.66667   0.82912   0.98069   0.00000  Uiso   1.00
H122   H     0.61461   0.60432   0.35759   0.00000  Uiso   1.00
H123   H     0.47187   0.84940   0.23956   0.00000  Uiso   1.00
H124   H     0.36488   0.83319   0.20869   0.00000  Uiso   1.00
H125   H     0.53517   0.91767   0.17034   0.00000  Uiso   1.00
H126   H     0.51047   0.81107   0.34908   0.00000  Uiso   1.00
H127   H     0.25433   0.79361   0.15957   0.00000  Uiso   1.00
H128   H     0.61341   0.97175   0.07873   0.00000  Uiso   1.00
H129   H     0.56134   0.74695   0.45563   0.00000  Uiso   1.00
O130   O     0.21170   0.70864   0.08815   0.00000  Uiso   1.00
O131   O     0.68281   0.94234   0.98210   0.00000  Uiso   1.00
O132   O     0.61449   0.64742   0.47659   0.00000  Uiso   1.00
N133   N     0.30974   0.68677   0.08885   0.00000  Uiso   1.00
N134   N     0.64545   0.85332   0.01326   0.00000  Uiso   1.00
N135   N     0.59679   0.64316   0.36564   0.00000  Uiso   1.00
N136   N     0.28108   0.76352   0.14161   0.00000  Uiso   1.00
N137   N     0.61679   0.93007   0.06602   0.00000  Uiso   1.00
N138   N     0.56813   0.71990   0.41839   0.00000  Uiso   1.00
C139   C     0.48018   0.27902   0.15129   0.00000  Uiso   1.00
C140   C     0.54508   0.26970   0.14698   0.00000  Uiso   1.00
C141   C     0.58368   0.30461   0.11397   0.00000  Uiso   1.00
C142   C     0.64132   0.28874   0.11584   0.00000  Uiso   1.00
C143   C     0.73931   0.28170   0.10400   0.00000  Uiso   1.00
C144   C     0.45256   0.22379   0.12614   0.00000  Uiso   1.00
C145   C     0.41337   0.22011   0.07561   0.00000  Uiso   1.00
C146   C     0.39312   0.16560   0.05995   0.00000  Uiso   1.00
C147   C     0.34744   0.08730   0.01578   0.00000  Uiso   1.00
C148   C     0.46598   0.28172   0.22325   0.00000  Uiso   1.00
C149   C     0.43806   0.32673   0.25438   0.00000  Uiso   1.00
C150   C     0.42910   0.32098   0.32047   0.00000  Uiso   1.00
C151   C     0.40426   0.33262   0.42709   0.00000  Uiso   1.00
C152   C     0.51388   0.18877   0.21333   0.00000  Uiso   1.00
C153   C     0.56338   0.22068   0.18068   0.00000  Uiso   1.00
C154   C     0.62097   0.20475   0.18261   0.00000  Uiso   1.00
C155   C     0.65966   0.23963   0.14960   0.00000  Uiso   1.00
C156   C     0.47087   0.17477   0.15984   0.00000  Uiso   1.00
C157   C     0.45066   0.12025   0.14425   0.00000  Uiso   1.00
C158   C     0.41146   0.11649   0.09370   0.00000  Uiso   1.00
C159   C     0.48429   0.23270   0.25695   0.00000  Uiso   1.00
C160   C     0.47536   0.22688   0.32302   0.00000  Uiso   1.00
C161   C     0.44743   0.27187   0.35423   0.00000  Uiso   1.00
H162   H     0.46592   0.31719   0.12505   0.00000  Uiso   1.00
H163   H     0.56950   0.34254   0.08789   0.00000  Uiso   1.00
H164   H     0.39921   0.25805   0.04955   0.00000  Uiso   1.00
H165   H     0.42391   0.36466   0.22828   0.00000  Uiso   1.00
H166   H     0.69241   0.34901   0.06153   0.00000  Uiso   1.00
H167   H     0.33333   0.17088   0.98069   0.00000  Uiso   1.00
H168   H     0.38539   0.39568   0.35759   0.00000  Uiso   1.00
H169   H     0.52813   0.15060   0.23956   0.00000  Uiso   1.00
H170   H     0.63512   0.16681   0.20869   0.00000  Uiso   1.00
H171   H     0.46483   0.08233   0.17034   0.00000  Uiso   1.00
H172   H     0.48953   0.18893   0.34908   0.00000  Uiso   1.00
H173   H     0.74567   0.20639   0.15957   0.00000  Uiso   1.00
H174   H     0.38659   0.02825   0.07873   0.00000  Uiso   1.00
H175   H     0.43866   0.25305   0.45563   0.00000  Uiso   1.00
O176   O     0.78830   0.29136   0.08815   0.00000  Uiso   1.00
O177   O     0.31719   0.05766   0.98210   0.00000  Uiso   1.00
O178   O     0.38551   0.35258   0.47659   0.00000  Uiso   1.00
N179   N     0.69026   0.31323   0.08885   0.00000  Uiso   1.00
N180   N     0.35455   0.14668   0.01326   0.00000  Uiso   1.00
N181   N     0.40321   0.35684   0.36564   0.00000  Uiso   1.00
N182   N     0.71892   0.23648   0.14161   0.00000  Uiso   1.00
N183   N     0.38321   0.06993   0.06602   0.00000  Uiso   1.00
N184   N     0.43187   0.28010   0.41839   0.00000  Uiso   1.00
C185   C     0.27902   0.48018   0.34871   0.00000  Uiso   1.00
C186   C     0.26970   0.54508   0.35302   0.00000  Uiso   1.00
C187   C     0.30461   0.58368   0.38603   0.00000  Uiso   1.00
C188   C     0.28874   0.64132   0.38416   0.00000  Uiso   1.00
C189   C     0.28170   0.73931   0.39600   0.00000  Uiso   1.00
C190   C     0.22379   0.45256   0.37386   0.00000  Uiso   1.00
C191   C     0.22011   0.41337   0.42439   0.00000  Uiso   1.00
C192   C     0.16560   0.39312   0.44005   0.00000  Uiso   1.00
C193   C     0.08730   0.34744   0.48422   0.00000  Uiso   1.00
C194   C     0.28172   0.46598   0.27675   0.00000  Uiso   1.00
C195   C     0.32673   0.43806   0.24562   0.00000  Uiso   1.00
C196   C     0.32098   0.42910   0.17953   0.00000  Uiso   1.00
C197   C     0.33262   0.40426   0.07291   0.00000  Uiso   1.00
C198   C     0.18877   0.51388   0.28667   0.00000  Uiso   1.00
C199   C     0.22068   0.56338   0.31932   0.00000  Uiso   1.00
C200   C     0.20475   0.62097   0.31739   0.00000  Uiso   1.00
C201   C     0.23963   0.65966   0.35040   0.00000  Uiso   1.00
C202   C     0.17477   0.47087   0.34016   0.00000  Uiso   1.00
C203   C     0.12025   0.45066   0.35575   0.00000  Uiso   1.00
C204   C     0.11649   0.41146   0.40630   0.00000  Uiso   1.00
C205   C     0.23270   0.48429   0.24305   0.00000  Uiso   1.00
C206   C     0.22688   0.47536   0.17698   0.00000  Uiso   1.00
C207   C     0.27187   0.44743   0.14577   0.00000  Uiso   1.00
H208   H     0.31719   0.46592   0.37495   0.00000  Uiso   1.00
H209   H     0.34254   0.56950   0.41211   0.00000  Uiso   1.00
H210   H     0.25805   0.39921   0.45045   0.00000  Uiso   1.00
H211   H     0.36466   0.42391   0.27172   0.00000  Uiso   1.00
H212   H     0.34901   0.69241   0.43847   0.00000  Uiso   1.00
H213   H     0.17088   0.33333   0.51931   0.00000  Uiso   1.00
H214   H     0.39568   0.38539   0.14241   0.00000  Uiso   1.00
H215   H     0.15060   0.52813   0.26044   0.00000  Uiso   1.00
H216   H     0.16681   0.63512   0.29131   0.00000  Uiso   1.00
H217   H     0.08233   0.46483   0.32966   0.00000  Uiso   1.00
H218   H     0.18893   0.48953   0.15092   0.00000  Uiso   1.00
H219   H     0.20639   0.74567   0.34043   0.00000  Uiso   1.00
H220   H     0.02825   0.38659   0.42127   0.00000  Uiso   1.00
H221   H     0.25305   0.43866   0.04437   0.00000  Uiso   1.00
O222   O     0.29136   0.78830   0.41185   0.00000  Uiso   1.00
O223   O     0.05766   0.31719   0.51790   0.00000  Uiso   1.00
O224   O     0.35258   0.38551   0.02341   0.00000  Uiso   1.00
N225   N     0.31323   0.69026   0.41115   0.00000  Uiso   1.00
N226   N     0.14668   0.35455   0.48674   0.00000  Uiso   1.00
N227   N     0.35684   0.40321   0.13436   0.00000  Uiso   1.00
N228   N     0.23648   0.71892   0.35839   0.00000  Uiso   1.00
N229   N     0.06993   0.38321   0.43398   0.00000  Uiso   1.00
N230   N     0.28010   0.43187   0.08161   0.00000  Uiso   1.00
C231   C     0.72098   0.51982   0.34871   0.00000  Uiso   1.00
C232   C     0.73030   0.45492   0.35302   0.00000  Uiso   1.00
C233   C     0.69539   0.41632   0.38603   0.00000  Uiso   1.00
C234   C     0.71126   0.35868   0.38416   0.00000  Uiso   1.00
C235   C     0.71830   0.26069   0.39600   0.00000  Uiso   1.00
C236   C     0.77621   0.54744   0.37386   0.00000  Uiso   1.00
C237   C     0.77989   0.58663   0.42439   0.00000  Uiso   1.00
C238   C     0.83440   0.60688   0.44005   0.00000  Uiso   1.00
C239   C     0.91270   0.65256   0.48422   0.00000  Uiso   1.00
C240   C     0.71828   0.53402   0.27675   0.00000  Uiso   1.00
C241   C     0.67327   0.56194   0.24562   0.00000  Uiso   1.00
C242   C     0.67902   0.57090   0.17953   0.00000  Uiso   1.00
C243   C     0.66738   0.59574   0.07291   0.00000  Uiso   1.00
C244   C     0.81123   0.48612   0.28667   0.00000  Uiso   1.00
C245   C     0.77932   0.43662   0.31932   0.00000  Uiso   1.00
C246   C     0.79525   0.37903   0.31739   0.00000  Uiso   1.00
C247   C     0.76037   0.34034   0.35040   0.00000  Uiso   1.00
C248   C     0.82523   0.52913   0.34016   0.00000  Uiso   1.00
C249   C     0.87975   0.54934   0.35575   0.00000  Uiso   1.00
C250   C     0.88351   0.58854   0.40630   0.00000  Uiso   1.00
C251   C     0.76730   0.51571   0.24305   0.00000  Uiso   1.00
C252   C     0.77312   0.52464   0.17698   0.00000  Uiso   1.00
C253   C     0.72813   0.55257   0.14577   0.00000  Uiso   1.00
H254   H     0.68281   0.53408   0.37495   0.00000  Uiso   1.00
H255   H     0.65746   0.43050   0.41211   0.00000  Uiso   1.00
H256   H     0.74195   0.60079   0.45045   0.00000  Uiso   1.00
H257   H     0.63534   0.57609   0.27172   0.00000  Uiso   1.00
H258   H     0.65099   0.30759   0.43847   0.00000  Uiso   1.00
H259   H     0.82912   0.66667   0.51931   0.00000  Uiso   1.00
H260   H     0.60432   0.61461   0.14241   0.00000  Uiso   1.00
H261   H     0.84940   0.47187   0.26044   0.00000  Uiso   1.00
H262   H     0.83319   0.36488   0.29131   0.00000  Uiso   1.00
H263   H     0.91767   0.53517   0.32966   0.00000  Uiso   1.00
H264   H     0.81107   0.51047   0.15092   0.00000  Uiso   1.00
H265   H     0.79361   0.25433   0.34043   0.00000  Uiso   1.00
H266   H     0.97175   0.61341   0.42127   0.00000  Uiso   1.00
H267   H     0.74695   0.56134   0.04437   0.00000  Uiso   1.00
O268   O     0.70864   0.21170   0.41185   0.00000  Uiso   1.00
O269   O     0.94234   0.68281   0.51790   0.00000  Uiso   1.00
O270   O     0.64742   0.61449   0.02341   0.00000  Uiso   1.00
N271   N     0.68677   0.30974   0.41115   0.00000  Uiso   1.00
N272   N     0.85332   0.64545   0.48674   0.00000  Uiso   1.00
N273   N     0.64316   0.59679   0.13436   0.00000  Uiso   1.00
N274   N     0.76352   0.28108   0.35839   0.00000  Uiso   1.00
N275   N     0.93007   0.61679   0.43398   0.00000  Uiso   1.00
N276   N     0.71990   0.56813   0.08161   0.00000  Uiso   1.00
C277   C     0.98018   0.22098   0.34871   0.00000  Uiso   1.00
C278   C     0.04508   0.23030   0.35302   0.00000  Uiso   1.00
C279   C     0.08368   0.19539   0.38603   0.00000  Uiso   1.00
C280   C     0.14132   0.21126   0.38416   0.00000  Uiso   1.00
C281   C     0.23931   0.21830   0.39600   0.00000  Uiso   1.00
C282   C     0.95256   0.27621   0.37386   0.00000  Uiso   1.00
C283   C     0.91337   0.27989   0.42439   0.00000  Uiso   1.00
C284   C     0.89312   0.33440   0.44005   0.00000  Uiso   1.00
C285   C     0.84744   0.41270   0.48422   0.00000  Uiso   1.00
C286   C     0.96598   0.21828   0.27675   0.00000  Uiso   1.00
C287   C     0.93806   0.17327   0.24562   0.00000  Uiso   1.00
C288   C     0.92910   0.17902   0.17953   0.00000  Uiso   1.00
C289   C     0.90426   0.16738   0.07291   0.00000  Uiso   1.00
C290   C     0.01388   0.31123   0.28667   0.00000  Uiso   1.00
C291   C     0.06338   0.27932   0.31932   0.00000  Uiso   1.00
C292   C     0.12097   0.29525   0.31739   0.00000  Uiso   1.00
C293   C     0.15966   0.26037   0.35040   0.00000  Uiso   1.00
C294   C     0.97087   0.32523   0.34016   0.00000  Uiso   1.00
C295   C     0.95066   0.37975   0.35575   0.00000  Uiso   1.00
C296   C     0.91146   0.38351   0.40630   0.00000  Uiso   1.00
C297   C     0.98429   0.26730   0.24305   0.00000  Uiso   1.00
C298   C     0.97536   0.27312   0.17698   0.00000  Uiso   1.00
C299   C     0.94743   0.22813   0.14577   0.00000  Uiso   1.00
H300   H     0.96592   0.18281   0.37495   0.00000  Uiso   1.00
H301   H     0.06950   0.15746   0.41211   0.00000  Uiso   1.00
H302   H     0.89921   0.24195   0.45045   0.00000  Uiso   1.00
H303   H     0.92391   0.13534   0.27172   0.00000  Uiso   1.00
H304   H     0.19241   0.15099   0.43847   0.00000  Uiso   1.00
H305   H     0.83333   0.32912   0.51931   0.00000  Uiso   1.00
H306   H     0.88539   0.10432   0.14241   0.00000  Uiso   1.00
H307   H     0.02813   0.34940   0.26044   0.00000  Uiso   1.00
H308   H     0.13512   0.33319   0.29131   0.00000  Uiso   1.00
H309   H     0.96483   0.41767   0.32966   0.00000  Uiso   1.00
H310   H     0.98953   0.31107   0.15092   0.00000  Uiso   1.00
H311   H     0.24567   0.29361   0.34043   0.00000  Uiso   1.00
H312   H     0.88659   0.47175   0.42127   0.00000  Uiso   1.00
H313   H     0.93866   0.24695   0.04437   0.00000  Uiso   1.00
O314   O     0.28830   0.20864   0.41185   0.00000  Uiso   1.00
O315   O     0.81719   0.44234   0.51790   0.00000  Uiso   1.00
O316   O     0.88551   0.14742   0.02341   0.00000  Uiso   1.00
N317   N     0.19026   0.18677   0.41115   0.00000  Uiso   1.00
N318   N     0.85455   0.35332   0.48674   0.00000  Uiso   1.00
N319   N     0.90321   0.14316   0.13436   0.00000  Uiso   1.00
N320   N     0.21892   0.26352   0.35839   0.00000  Uiso   1.00
N321   N     0.88321   0.43007   0.43398   0.00000  Uiso   1.00
N322   N     0.93187   0.21990   0.08161   0.00000  Uiso   1.00
C323   C     0.01982   0.77902   0.34871   0.00000  Uiso   1.00
C324   C     0.95492   0.76970   0.35302   0.00000  Uiso   1.00
C325   C     0.91632   0.80461   0.38603   0.00000  Uiso   1.00
C326   C     0.85868   0.78874   0.38416   0.00000  Uiso   1.00
C327   C     0.76069   0.78170   0.39600   0.00000  Uiso   1.00
C328   C     0.04744   0.72379   0.37386   0.00000  Uiso   1.00
C329   C     0.08663   0.72011   0.42439   0.00000  Uiso   1.00
C330   C     0.10688   0.66560   0.44005   0.00000  Uiso   1.00
C331   C     0.15256   0.58730   0.48422   0.00000  Uiso   1.00
C332   C     0.03402   0.78172   0.27675   0.00000  Uiso   1.00
C333   C     0.06194   0.82673   0.24562   0.00000  Uiso   1.00
C334   C     0.07090   0.82098   0.17953   0.00000  Uiso   1.00
C335   C     0.09574   0.83262   0.07291   0.00000  Uiso   1.00
C336   C     0.98612   0.68877   0.28667   0.00000  Uiso   1.00
C337   C     0.93662   0.72068   0.31932   0.00000  Uiso   1.00
C338   C     0.87903   0.70475   0.31739   0.00000  Uiso   1.00
C339   C     0.84034   0.73963   0.35040   0.00000  Uiso   1.00
C340   C     0.02913   0.67477   0.34016   0.00000  Uiso   1.00
C341   C     0.04934   0.62025   0.35575   0.00000  Uiso   1.00
C342   C     0.08854   0.61649   0.40630   0.00000  Uiso   1.00
C343   C     0.01571   0.73270   0.24305   0.00000  Uiso   1.00
C344   C     0.02464   0.72688   0.17698   0.00000  Uiso   1.00
C345   C     0.05257   0.77187   0.14577   0.00000  Uiso   1.00
H346   H     0.03408   0.81719   0.37495   0.00000  Uiso   1.00
H347   H     0.93050   0.84254   0.41211   0.00000  Uiso   1.00
H348   H     0.10079   0.75805   0.45045   0.00000  Uiso   1.00
H349   H     0.07609   0.86466   0.27172   0.00000  Uiso   1.00
H350   H     0.80759   0.84901   0.43847   0.00000  Uiso   1.00
H351   H     0.16667   0.67088   0.51931   0.00000  Uiso   1.00
H352   H     0.11461   0.89568   0.14241   0.00000  Uiso   1.00
H353   H     0.97187   0.65060   0.26044   0.00000  Uiso   1.00
H354   H     0.86488   0.66681   0.29131   0.00000  Uiso   1.00
H355   H     0.03517   0.58233   0.32966   0.00000  Uiso   1.00
H356   H     0.01047   0.68893   0.15092   0.00000  Uiso   1.00
H357   H     0.75433   0.70639   0.34043   0.00000  Uiso   1.00
H358   H     0.11341   0.52825   0.42127   0.00000  Uiso   1.00
H359   H     0.06134   0.75305   0.04437   0.00000  Uiso   1.00
O360   O     0.71170   0.79136   0.41185   0.00000  Uiso   1.00
O361   O     0.18281   0.55766   0.51790   0.00000  Uiso   1.00
O362   O     0.11449   0.85258   0.02341   0.00000  Uiso   1.00
N363   N     0.80974   0.81323   0.41115   0.00000  Uiso   1.00
N364   N     0.14545   0.64668   0.48674   0.00000  Uiso   1.00
N365   N     0.09679   0.85684   0.13436   0.00000  Uiso   1.00
N366   N     0.78108   0.73648   0.35839   0.00000  Uiso   1.00
N367   N     0.11679   0.56993   0.43398   0.00000  Uiso   1.00
N368   N     0.06813   0.78010   0.08161   0.00000  Uiso   1.00
C369   C     0.27902   0.51982   0.84871   0.00000  Uiso   1.00
C370   C     0.26970   0.45492   0.85302   0.00000  Uiso   1.00
C371   C     0.30461   0.41632   0.88603   0.00000  Uiso   1.00
C372   C     0.28874   0.35868   0.88416   0.00000  Uiso   1.00
C373   C     0.28170   0.26069   0.89600   0.00000  Uiso   1.00
C374   C     0.22379   0.54744   0.87386   0.00000  Uiso   1.00
C375   C     0.22011   0.58663   0.92439   0.00000  Uiso   1.00
C376   C     0.16560   0.60688   0.94005   0.00000  Uiso   1.00
C377   C     0.08730   0.65256   0.98422   0.00000  Uiso   1.00
C378   C     0.28172   0.53402   0.77675   0.00000  Uiso   1.00
C379   C     0.32673   0.56194   0.74562   0.00000  Uiso   1.00
C380   C     0.32098   0.57090   0.67953   0.00000  Uiso   1.00
C381   C     0.33262   0.59574   0.57291   0.00000  Uiso   1.00
C382   C     0.18877   0.48612   0.78667   0.00000  Uiso   1.00
C383   C     0.22068   0.43662   0.81932   0.00000  Uiso   1.00
C384   C     0.20475   0.37903   0.81739   0.00000  Uiso   1.00
C385   C     0.23963   0.34034   0.85040   0.00000  Uiso   1.00
C386   C     0.17477   0.52913   0.84016   0.00000  Uiso   1.00
C387   C     0.12025   0.54934   0.85575   0.00000  Uiso   1.00
C388   C     0.11649   0.58854   0.90630   0.00000  Uiso   1.00
C389   C     0.23270   0.51571   0.74305   0.00000  Uiso   1.00
C390   C     0.22688   0.52464   0.67698   0.00000  Uiso   1.00
C391   C     0.27187   0.55257   0.64577   0.00000  Uiso   1.00
H392   H     0.31719   0.53408   0.87495   0.00000  Uiso   1.00
H393   H     0.34254   0.43050   0.91211   0.00000  Uiso   1.00
H394   H     0.25805   0.60079   0.95045   0.00000  Uiso   1.00
H395   H     0.36466   0.57609   0.77172   0.00000  Uiso   1.00
H396   H     0.34901   0.30759   0.93847   0.00000  Uiso   1.00
H397   H     0.17088   0.66667   0.01931   0.00000  Uiso   1.00
H398   H     0.39568   0.61461   0.64241   0.00000  Uiso   1.00
H399   H     0.15060   0.47187   0.76044   0.00000  Uiso   1.00
H400   H     0.16681   0.36488   0.79131   0.00000  Uiso   1.00
H401   H     0.08233   0.53517   0.82966   0.00000  Uiso   1.00
H402   H     0.18893   0.51047   0.65092   0.00000  Uiso   1.00
H403   H     0.20639   0.25433   0.84043   0.00000  Uiso   1.00
H404   H     0.02825   0.61341   0.92127   0.00000  Uiso   1.00
H405   H     0.25305   0.56134   0.54437   0.00000  Uiso   1.00
O406   O     0.29136   0.21170   0.91185   0.00000  Uiso   1.00
O407   O     0.05766   0.68281   0.01790   0.00000  Uiso   1.00
O408   O     0.35258   0.61449   0.52341   0.00000  Uiso   1.00
N409   N     0.31323   0.30974   0.91115   0.00000  Uiso   1.00
N410   N     0.14668   0.64545   0.98674   0.00000  Uiso   1.00
N411   N     0.35684   0.59679   0.63436   0.00000  Uiso   1.00
N412   N     0.23648   0.28108   0.85839   0.00000  Uiso   1.00
N413   N     0.06993   0.61679   0.93398   0.00000  Uiso   1.00
N414   N     0.28010   0.56813   0.58161   0.00000  Uiso   1.00
C415   C     0.72098   0.48018   0.84871   0.00000  Uiso   1.00
C416   C     0.73030   0.54508   0.85302   0.00000  Uiso   1.00
C417   C     0.69539   0.58368   0.88603   0.00000  Uiso   1.00
C418   C     0.71126   0.64132   0.88416   0.00000  Uiso   1.00
C419   C     0.71830   0.73931   0.89600   0.00000  Uiso   1.00
C420   C     0.77621   0.45256   0.87386   0.00000  Uiso   1.00
C421   C     0.77989   0.41337   0.92439   0.00000  Uiso   1.00
C422   C     0.83440   0.39312   0.94005   0.00000  Uiso   1.00
C423   C     0.91270   0.34744   0.98422   0.00000  Uiso   1.00
C424   C     0.71828   0.46598   0.77675   0.00000  Uiso   1.00
C425   C     0.67327   0.43806   0.74562   0.00000  Uiso   1.00
C426   C     0.67902   0.42910   0.67953   0.00000  Uiso   1.00
C427   C     0.66738   0.40426   0.57291   0.00000  Uiso   1.00
C428   C     0.81123   0.51388   0.78667   0.00000  Uiso   1.00
C429   C     0.77932   0.56338   0.81932   0.00000  Uiso   1.00
C430   C     0.79525   0.62097   0.81739   0.00000  Uiso   1.00
C431   C     0.76037   0.65966   0.85040   0.00000  Uiso   1.00
C432   C     0.82523   0.47087   0.84016   0.00000  Uiso   1.00
C433   C     0.87975   0.45066   0.85575   0.00000  Uiso   1.00
C434   C     0.88351   0.41146   0.90630   0.00000  Uiso   1.00
C435   C     0.76730   0.48429   0.74305   0.00000  Uiso   1.00
C436   C     0.77312   0.47536   0.67698   0.00000  Uiso   1.00
C437   C     0.72813   0.44743   0.64577   0.00000  Uiso   1.00
H438   H     0.68281   0.46592   0.87495   0.00000  Uiso   1.00
H439   H     0.65746   0.56950   0.91211   0.00000  Uiso   1.00
H440   H     0.74195   0.39921   0.95045   0.00000  Uiso   1.00
H441   H     0.63534   0.42391   0.77172   0.00000  Uiso   1.00
H442   H     0.65099   0.69241   0.93847   0.00000  Uiso   1.00
H443   H     0.82912   0.33333   0.01931   0.00000  Uiso   1.00
H444   H     0.60432   0.38539   0.64241   0.00000  Uiso   1.00
H445   H     0.84940   0.52813   0.76044   0.00000  Uiso   1.00
H446   H     0.83319   0.63512   0.79131   0.00000  Uiso   1.00
H447   H     0.91767   0.46483   0.82966   0.00000  Uiso   1.00
H448   H     0.81107   0.48953   0.65092   0.00000  Uiso   1.00
H449   H     0.79361   0.74567   0.84043   0.00000  Uiso   1.00
H450   H     0.97175   0.38659   0.92127   0.00000  Uiso   1.00
H451   H     0.74695   0.43866   0.54437   0.00000  Uiso   1.00
O452   O     0.70864   0.78830   0.91185   0.00000  Uiso   1.00
O453   O     0.94234   0.31719   0.01790   0.00000  Uiso   1.00
O454   O     0.64742   0.38551   0.52341   0.00000  Uiso   1.00
N455   N     0.68677   0.69026   0.91115   0.00000  Uiso   1.00
N456   N     0.85332   0.35455   0.98674   0.00000  Uiso   1.00
N457   N     0.64316   0.40321   0.63436   0.00000  Uiso   1.00
N458   N     0.76352   0.71892   0.85839   0.00000  Uiso   1.00
N459   N     0.93007   0.38321   0.93398   0.00000  Uiso   1.00
N460   N     0.71990   0.43187   0.58161   0.00000  Uiso   1.00
C461   C     0.98018   0.77902   0.84871   0.00000  Uiso   1.00
C462   C     0.04508   0.76970   0.85302   0.00000  Uiso   1.00
C463   C     0.08368   0.80461   0.88603   0.00000  Uiso   1.00
C464   C     0.14132   0.78874   0.88416   0.00000  Uiso   1.00
C465   C     0.23931   0.78170   0.89600   0.00000  Uiso   1.00
C466   C     0.95256   0.72379   0.87386   0.00000  Uiso   1.00
C467   C     0.91337   0.72011   0.92439   0.00000  Uiso   1.00
C468   C     0.89312   0.66560   0.94005   0.00000  Uiso   1.00
C469   C     0.84744   0.58730   0.98422   0.00000  Uiso   1.00
C470   C     0.96598   0.78172   0.77675   0.00000  Uiso   1.00
C471   C     0.93806   0.82673   0.74562   0.00000  Uiso   1.00
C472   C     0.92910   0.82098   0.67953   0.00000  Uiso   1.00
C473   C     0.90426   0.83262   0.57291   0.00000  Uiso   1.00
C474   C     0.01388   0.68877   0.78667   0.00000  Uiso   1.00
C475   C     0.06338   0.72068   0.81932   0.00000  Uiso   1.00
C476   C     0.12097   0.70475   0.81739   0.00000  Uiso   1.00
C477   C     0.15966   0.73963   0.85040   0.00000  Uiso   1.00
C478   C     0.97087   0.67477   0.84016   0.00000  Uiso   1.00
C479   C     0.95066   0.62025   0.85575   0.00000  Uiso   1.00
C480   C     0.91146   0.61649   0.90630   0.00000  Uiso   1.00
C481   C     0.98429   0.73270   0.74305   0.00000  Uiso   1.00
C482   C     0.97536   0.72688   0.67698   0.00000  Uiso   1.00
C483   C     0.94743   0.77187   0.64577   0.00000  Uiso   1.00
H484   H     0.96592   0.81719   0.87495   0.00000  Uiso   1.00
H485   H     0.06950   0.84254   0.91211   0.00000  Uiso   1.00
H486   H     0.89921   0.75805   0.95045   0.00000  Uiso   1.00
H487   H     0.92391   0.86466   0.77172   0.00000  Uiso   1.00
H488   H     0.19241   0.84901   0.93847   0.00000  Uiso   1.00
H489   H     0.83333   0.67088   0.01931   0.00000  Uiso   1.00
H490   H     0.88539   0.89568   0.64241   0.00000  Uiso   1.00
H491   H     0.02813   0.65060   0.76044   0.00000  Uiso   1.00
H492   H     0.13512   0.66681   0.79131   0.00000  Uiso   1.00
H493   H     0.96483   0.58233   0.82966   0.00000  Uiso   1.00
H494   H     0.98953   0.68893   0.65092   0.00000  Uiso   1.00
H495   H     0.24567   0.70639   0.84043   0.00000  Uiso   1.00
H496   H     0.88659   0.52825   0.92127   0.00000  Uiso   1.00
H497   H     0.93866   0.75305   0.54437   0.00000  Uiso   1.00
O498   O     0.28830   0.79136   0.91185   0.00000  Uiso   1.00
O499   O     0.81719   0.55766   0.01790   0.00000  Uiso   1.00
O500   O     0.88551   0.85258   0.52341   0.00000  Uiso   1.00
N501   N     0.19026   0.81323   0.91115   0.00000  Uiso   1.00
N502   N     0.85455   0.64668   0.98674   0.00000  Uiso   1.00
N503   N     0.90321   0.85684   0.63436   0.00000  Uiso   1.00
N504   N     0.21892   0.73648   0.85839   0.00000  Uiso   1.00
N505   N     0.88321   0.56993   0.93398   0.00000  Uiso   1.00
N506   N     0.93187   0.78010   0.58161   0.00000  Uiso   1.00
C507   C     0.01982   0.22098   0.84871   0.00000  Uiso   1.00
C508   C     0.95492   0.23030   0.85302   0.00000  Uiso   1.00
C509   C     0.91632   0.19539   0.88603   0.00000  Uiso   1.00
C510   C     0.85868   0.21126   0.88416   0.00000  Uiso   1.00
C511   C     0.76069   0.21830   0.89600   0.00000  Uiso   1.00
C512   C     0.04744   0.27621   0.87386   0.00000  Uiso   1.00
C513   C     0.08663   0.27989   0.92439   0.00000  Uiso   1.00
C514   C     0.10688   0.33440   0.94005   0.00000  Uiso   1.00
C515   C     0.15256   0.41270   0.98422   0.00000  Uiso   1.00
C516   C     0.03402   0.21828   0.77675   0.00000  Uiso   1.00
C517   C     0.06194   0.17327   0.74562   0.00000  Uiso   1.00
C518   C     0.07090   0.17902   0.67953   0.00000  Uiso   1.00
C519   C     0.09574   0.16738   0.57291   0.00000  Uiso   1.00
C520   C     0.98612   0.31123   0.78667   0.00000  Uiso   1.00
C521   C     0.93662   0.27932   0.81932   0.00000  Uiso   1.00
C522   C     0.87903   0.29525   0.81739   0.00000  Uiso   1.00
C523   C     0.84034   0.26037   0.85040   0.00000  Uiso   1.00
C524   C     0.02913   0.32523   0.84016   0.00000  Uiso   1.00
C525   C     0.04934   0.37975   0.85575   0.00000  Uiso   1.00
C526   C     0.08854   0.38351   0.90630   0.00000  Uiso   1.00
C527   C     0.01571   0.26730   0.74305   0.00000  Uiso   1.00
C528   C     0.02464   0.27312   0.67698   0.00000  Uiso   1.00
C529   C     0.05257   0.22813   0.64577   0.00000  Uiso   1.00
H530   H     0.03408   0.18281   0.87495   0.00000  Uiso   1.00
H531   H     0.93050   0.15746   0.91211   0.00000  Uiso   1.00
H532   H     0.10079   0.24195   0.95045   0.00000  Uiso   1.00
H533   H     0.07609   0.13534   0.77172   0.00000  Uiso   1.00
H534   H     0.80759   0.15099   0.93847   0.00000  Uiso   1.00
H535   H     0.16667   0.32912   0.01931   0.00000  Uiso   1.00
H536   H     0.11461   0.10432   0.64241   0.00000  Uiso   1.00
H537   H     0.97187   0.34940   0.76044   0.00000  Uiso   1.00
H538   H     0.86488   0.33319   0.79131   0.00000  Uiso   1.00
H539   H     0.03517   0.41767   0.82966   0.00000  Uiso   1.00
H540   H     0.01047   0.31107   0.65092   0.00000  Uiso   1.00
H541   H     0.75433   0.29361   0.84043   0.00000  Uiso   1.00
H542   H     0.11341   0.47175   0.92127   0.00000  Uiso   1.00
H543   H     0.06134   0.24695   0.54437   0.00000  Uiso   1.00
O544   O     0.71170   0.20864   0.91185   0.00000  Uiso   1.00
O545   O     0.18281   0.44234   0.01790   0.00000  Uiso   1.00
O546   O     0.11449   0.14742   0.52341   0.00000  Uiso   1.00
N547   N     0.80974   0.18677   0.91115   0.00000  Uiso   1.00
N548   N     0.14545   0.35332   0.98674   0.00000  Uiso   1.00
N549   N     0.09679   0.14316   0.63436   0.00000  Uiso   1.00
N550   N     0.78108   0.26352   0.85839   0.00000  Uiso   1.00
N551   N     0.11679   0.43007   0.93398   0.00000  Uiso   1.00
N552   N     0.06813   0.21990   0.58161   0.00000  Uiso   1.00
C553   C     0.22098   0.01982   0.65129   0.00000  Uiso   1.00
C554   C     0.23030   0.95492   0.64698   0.00000  Uiso   1.00
C555   C     0.19539   0.91632   0.61397   0.00000  Uiso   1.00
C556   C     0.21126   0.85868   0.61584   0.00000  Uiso   1.00
C557   C     0.21830   0.76069   0.60400   0.00000  Uiso   1.00
C558   C     0.27621   0.04744   0.62614   0.00000  Uiso   1.00
C559   C     0.27989   0.08663   0.57561   0.00000  Uiso   1.00
C560   C     0.33440   0.10688   0.55995   0.00000  Uiso   1.00
C561   C     0.41270   0.15256   0.51578   0.00000  Uiso   1.00
C562   C     0.21828   0.03402   0.72325   0.00000  Uiso   1.00
C563   C     0.17327   0.06194   0.75438   0.00000  Uiso   1.00
C564   C     0.17902   0.07090   0.82047   0.00000  Uiso   1.00
C565   C     0.16738   0.09574   0.92709   0.00000  Uiso   1.00
C566   C     0.31123   0.98612   0.71333   0.00000  Uiso   1.00
C567   C     0.27932   0.93662   0.68068   0.00000  Uiso   1.00
C568   C     0.29525   0.87903   0.68261   0.00000  Uiso   1.00
C569   C     0.26037   0.84034   0.64960   0.00000  Uiso   1.00
C570   C     0.32523   0.02913   0.65984   0.00000  Uiso   1.00
C571   C     0.37975   0.04934   0.64425   0.00000  Uiso   1.00
C572   C     0.38351   0.08854   0.59370   0.00000  Uiso   1.00
C573   C     0.26730   0.01571   0.75695   0.00000  Uiso   1.00
C574   C     0.27312   0.02464   0.82302   0.00000  Uiso   1.00
C575   C     0.22813   0.05257   0.85423   0.00000  Uiso   1.00
H576   H     0.18281   0.03408   0.62505   0.00000  Uiso   1.00
H577   H     0.15746   0.93050   0.58789   0.00000  Uiso   1.00
H578   H     0.24195   0.10079   0.54955   0.00000  Uiso   1.00
H579   H     0.13534   0.07609   0.72828   0.00000  Uiso   1.00
H580   H     0.15099   0.80759   0.56153   0.00000  Uiso   1.00
H581   H     0.32912   0.16667   0.48069   0.00000  Uiso   1.00
H582   H     0.10432   0.11461   0.85759   0.00000  Uiso   1.00
H583   H     0.34940   0.97187   0.73956   0.00000  Uiso   1.00
H584   H     0.33319   0.86488   0.70869   0.00000  Uiso   1.00
H585   H     0.41767   0.03517   0.67034   0.00000  Uiso   1.00
H586   H     0.31107   0.01047   0.84908   0.00000  Uiso   1.00
H587   H     0.29361   0.75433   0.65957   0.00000  Uiso   1.00
H588   H     0.47175   0.11341   0.57873   0.00000  Uiso   1.00
H589   H     0.24695   0.06134   0.95563   0.00000  Uiso   1.00
O590   O     0.20864   0.71170   0.58815   0.00000  Uiso   1.00
O591   O     0.44234   0.18281   0.48210   0.00000  Uiso   1.00
O592   O     0.14742   0.11449   0.97659   0.00000  Uiso   1.00
N593   N     0.18677   0.80974   0.58885   0.00000  Uiso   1.00
N594   N     0.35332   0.14545   0.51326   0.00000  Uiso   1.00
N595   N     0.14316   0.09679   0.86564   0.00000  Uiso   1.00
N596   N     0.26352   0.78108   0.64161   0.00000  Uiso   1.00
N597   N     0.43007   0.11679   0.56602   0.00000  Uiso   1.00
N598   N     0.21990   0.06813   0.91839   0.00000  Uiso   1.00
C599   C     0.77902   0.98018   0.65129   0.00000  Uiso   1.00
C600   C     0.76970   0.04508   0.64698   0.00000  Uiso   1.00
C601   C     0.80461   0.08368   0.61397   0.00000  Uiso   1.00
C602   C     0.78874   0.14132   0.61584   0.00000  Uiso   1.00
C603   C     0.78170   0.23931   0.60400   0.00000  Uiso   1.00
C604   C     0.72379   0.95256   0.62614   0.00000  Uiso   1.00
C605   C     0.72011   0.91337   0.57561   0.00000  Uiso   1.00
C606   C     0.66560   0.89312   0.55995   0.00000  Uiso   1.00
C607   C     0.58730   0.84744   0.51578   0.00000  Uiso   1.00
C608   C     0.78172   0.96598   0.72325   0.00000  Uiso   1.00
C609   C     0.82673   0.93806   0.75438   0.00000  Uiso   1.00
C610   C     0.82098   0.92910   0.82047   0.00000  Uiso   1.00
C611   C     0.83262   0.90426   0.92709   0.00000  Uiso   1.00
C612   C     0.68877   0.01388   0.71333   0.00000  Uiso   1.00
C613   C     0.72068   0.06338   0.68068   0.00000  Uiso   1.00
C614   C     0.70475   0.12097   0.68261   0.00000  Uiso   1.00
C615   C     0.73963   0.15966   0.64960   0.00000  Uiso   1.00
C616   C     0.67477   0.97087   0.65984   0.00000  Uiso   1.00
C617   C     0.62025   0.95066   0.64425   0.00000  Uiso   1.00
C618   C     0.61649   0.91146   0.59370   0.00000  Uiso   1.00
C619   C     0.73270   0.98429   0.75695   0.00000  Uiso   1.00
C620   C     0.72688   0.97536   0.82302   0.00000  Uiso   1.00
C621   C     0.77187   0.94743   0.85423   0.00000  Uiso   1.00
H622   H     0.81719   0.96592   0.62505   0.00000  Uiso   1.00
H623   H     0.84254   0.06950   0.58789   0.00000  Uiso   1.00
H624   H     0.75805   0.89921   0.54955   0.00000  Uiso   1.00
H625   H     0.86466   0.92391   0.72828   0.00000  Uiso   1.00
H626   H     0.84901   0.19241   0.56153   0.00000  Uiso   1.00
H627   H     0.67088   0.83333   0.48069   0.00000  Uiso   1.00
H628   H     0.89568   0.88539   0.85759   0.00000  Uiso   1.00
H629   H     0.65060   0.02813   0.73956   0.00000  Uiso   1.00
H630   H     0.66681   0.13512   0.70869   0.00000  Uiso   1.00
H631   H     0.58233   0.96483   0.67034   0.00000  Uiso   1.00
H632   H     0.68893   0.98953   0.84908   0.00000  Uiso   1.00
H633   H     0.70639   0.24567   0.65957   0.00000  Uiso   1.00
H634   H     0.52825   0.88659   0.57873   0.00000  Uiso   1.00
H635   H     0.75305   0.93866   0.95563   0.00000  Uiso   1.00
O636   O     0.79136   0.28830   0.58815   0.00000  Uiso   1.00
O637   O     0.55766   0.81719   0.48210   0.00000  Uiso   1.00
O638   O     0.85258   0.88551   0.97659   0.00000  Uiso   1.00
N639   N     0.81323   0.19026   0.58885   0.00000  Uiso   1.00
N640   N     0.64668   0.85455   0.51326   0.00000  Uiso   1.00
N641   N     0.85684   0.90321   0.86564   0.00000  Uiso   1.00
N642   N     0.73648   0.21892   0.64161   0.00000  Uiso   1.00
N643   N     0.56993   0.88321   0.56602   0.00000  Uiso   1.00
N644   N     0.78010   0.93187   0.91839   0.00000  Uiso   1.00
C645   C     0.51982   0.27902   0.65129   0.00000  Uiso   1.00
C646   C     0.45492   0.26970   0.64698   0.00000  Uiso   1.00
C647   C     0.41632   0.30461   0.61397   0.00000  Uiso   1.00
C648   C     0.35868   0.28874   0.61584   0.00000  Uiso   1.00
C649   C     0.26069   0.28170   0.60400   0.00000  Uiso   1.00
C650   C     0.54744   0.22379   0.62614   0.00000  Uiso   1.00
C651   C     0.58663   0.22011   0.57561   0.00000  Uiso   1.00
C652   C     0.60688   0.16560   0.55995   0.00000  Uiso   1.00
C653   C     0.65256   0.08730   0.51578   0.00000  Uiso   1.00
C654   C     0.53402   0.28172   0.72325   0.00000  Uiso   1.00
C655   C     0.56194   0.32673   0.75438   0.00000  Uiso   1.00
C656   C     0.57090   0.32098   0.82047   0.00000  Uiso   1.00
C657   C     0.59574   0.33262   0.92709   0.00000  Uiso   1.00
C658   C     0.48612   0.18877   0.71333   0.00000  Uiso   1.00
C659   C     0.43662   0.22068   0.68068   0.00000  Uiso   1.00
C660   C     0.37903   0.20475   0.68261   0.00000  Uiso   1.00
C661   C     0.34034   0.23963   0.64960   0.00000  Uiso   1.00
C662   C     0.52913   0.17477   0.65984   0.00000  Uiso   1.00
C663   C     0.54934   0.12025   0.64425   0.00000  Uiso   1.00
C664   C     0.58854   0.11649   0.59370   0.00000  Uiso   1.00
C665   C     0.51571   0.23270   0.75695   0.00000  Uiso   1.00
C666   C     0.52464   0.22688   0.82302   0.00000  Uiso   1.00
C667   C     0.55257   0.27187   0.85423   0.00000  Uiso   1.00
H668   H     0.53408   0.31719   0.62505   0.00000  Uiso   1.00
H669   H     0.43050   0.34254   0.58789   0.00000  Uiso   1.00
H670   H     0.60079   0.25805   0.54955   0.00000  Uiso   1.00
H671   H     0.57609   0.36466   0.72828   0.00000  Uiso   1.00
H672   H     0.30759   0.34901   0.56153   0.00000  Uiso   1.00
H673   H     0.66667   0.17088   0.48069   0.00000  Uiso   1.00
H674   H     0.61461   0.39568   0.85759   0.00000  Uiso   1.00
H675   H     0.47187   0.15060   0.73956   0.00000  Uiso   1.00
H676   H     0.36488   0.16681   0.70869   0.00000  Uiso   1.00
H677   H     0.53517   0.08233   0.67034   0.00000  Uiso   1.00
H678   H     0.51047   0.18893   0.84908   0.00000  Uiso   1.00
H679   H     0.25433   0.20639   0.65957   0.00000  Uiso   1.00
H680   H     0.61341   0.02825   0.57873   0.00000  Uiso   1.00
H681   H     0.56134   0.25305   0.95563   0.00000  Uiso   1.00
O682   O     0.21170   0.29136   0.58815   0.00000  Uiso   1.00
O683   O     0.68281   0.05766   0.48210   0.00000  Uiso   1.00
O684   O     0.61449   0.35258   0.97659   0.00000  Uiso   1.00
N685   N     0.30974   0.31323   0.58885   0.00000  Uiso   1.00
N686   N     0.64545   0.14668   0.51326   0.00000  Uiso   1.00
N687   N     0.59679   0.35684   0.86564   0.00000  Uiso   1.00
N688   N     0.28108   0.23648   0.64161   0.00000  Uiso   1.00
N689   N     0.61679   0.06993   0.56602   0.00000  Uiso   1.00
N690   N     0.56813   0.28010   0.91839   0.00000  Uiso   1.00
C691   C     0.48018   0.72098   0.65129   0.00000  Uiso   1.00
C692   C     0.54508   0.73030   0.64698   0.00000  Uiso   1.00
C693   C     0.58368   0.69539   0.61397   0.00000  Uiso   1.00
C694   C     0.64132   0.71126   0.61584   0.00000  Uiso   1.00
C695   C     0.73931   0.71830   0.60400   0.00000  Uiso   1.00
C696   C     0.45256   0.77621   0.62614   0.00000  Uiso   1.00
C697   C     0.41337   0.77989   0.57561   0.00000  Uiso   1.00
C698   C     0.39312   0.83440   0.55995   0.00000  Uiso   1.00
C699   C     0.34744   0.91270   0.51578   0.00000  Uiso   1.00
C700   C     0.46598   0.71828   0.72325   0.00000  Uiso   1.00
C701   C     0.43806   0.67327   0.75438   0.00000  Uiso   1.00
C702   C     0.42910   0.67902   0.82047   0.00000  Uiso   1.00
C703   C     0.40426   0.66738   0.92709   0.00000  Uiso   1.00
C704   C     0.51388   0.81123   0.71333   0.00000  Uiso   1.00
C705   C     0.56338   0.77932   0.68068   0.00000  Uiso   1.00
C706   C     0.62097   0.79525   0.68261   0.00000  Uiso   1.00
C707   C     0.65966   0.76037   0.64960   0.00000  Uiso   1.00
C708   C     0.47087   0.82523   0.65984   0.00000  Uiso   1.00
C709   C     0.45066   0.87975   0.64425   0.00000  Uiso   1.00
C710   C     0.41146   0.88351   0.59370   0.00000  Uiso   1.00
C711   C     0.48429   0.76730   0.75695   0.00000  Uiso   1.00
C712   C     0.47536   0.77312   0.82302   0.00000  Uiso   1.00
C713   C     0.44743   0.72813   0.85423   0.00000  Uiso   1.00
H714   H     0.46592   0.68281   0.62505   0.00000  Uiso   1.00
H715   H     0.56950   0.65746   0.58789   0.00000  Uiso   1.00
H716   H     0.39921   0.74195   0.54955   0.00000  Uiso   1.00
H717   H     0.42391   0.63534   0.72828   0.00000  Uiso   1.00
H718   H     0.69241   0.65099   0.56153   0.00000  Uiso   1.00
H719   H     0.33333   0.82912   0.48069   0.00000  Uiso   1.00
H720   H     0.38539   0.60432   0.85759   0.00000  Uiso   1.00
H721   H     0.52813   0.84940   0.73956   0.00000  Uiso   1.00
H722   H     0.63512   0.83319   0.70869   0.00000  Uiso   1.00
H723   H     0.46483   0.91767   0.67034   0.00000  Uiso   1.00
H724   H     0.48953   0.81107   0.84908   0.00000  Uiso   1.00
H725   H     0.74567   0.79361   0.65957   0.00000  Uiso   1.00
H726   H     0.38659   0.97175   0.57873   0.00000  Uiso   1.00
H727   H     0.43866   0.74695   0.95563   0.00000  Uiso   1.00
O728   O     0.78830   0.70864   0.58815   0.00000  Uiso   1.00
O729   O     0.31719   0.94234   0.48210   0.00000  Uiso   1.00
O730   O     0.38551   0.64742   0.97659   0.00000  Uiso   1.00
N731   N     0.69026   0.68677   0.58885   0.00000  Uiso   1.00
N732   N     0.35455   0.85332   0.51326   0.00000  Uiso   1.00
N733   N     0.40321   0.64316   0.86564   0.00000  Uiso   1.00
N734   N     0.71892   0.76352   0.64161   0.00000  Uiso   1.00
N735   N     0.38321   0.93007   0.56602   0.00000  Uiso   1.00
N736   N     0.43187   0.71990   0.91839   0.00000  Uiso   1.00
