data_job_05877
_audit_creation_date              2018-12-19
_audit_creation_method            'Materials Studio'
_symmetry_space_group_name_H-M    'P1'
_symmetry_Int_Tables_number       1
_symmetry_cell_setting            triclinic
loop_
_symmetry_equiv_pos_as_xyz
  x,y,z
_cell_length_a                    26.7037
_cell_length_b                    26.7037
_cell_length_c                    16.3866
_cell_angle_alpha                 90.0000
_cell_angle_beta                  90.0000
_cell_angle_gamma                 90.0000
loop_
_atom_site_label
_atom_site_type_symbol
_atom_site_fract_x
_atom_site_fract_y
_atom_site_fract_z
_atom_site_U_iso_or_equiv
_atom_site_adp_type
_atom_site_occupancy
C1     C     0.11957   0.80510   0.41692   0.00000  Uiso   1.00
C2     C     0.10159   0.75142   0.42917   0.00000  Uiso   1.00
C3     C     0.11231   0.71118   0.37849   0.00000  Uiso   1.00
C4     C     0.09233   0.66508   0.40023   0.00000  Uiso   1.00
C5     C     0.06890   0.58259   0.40859   0.00000  Uiso   1.00
C6     C     0.07253   0.83745   0.41482   0.00000  Uiso   1.00
C7     C     0.05881   0.86955   0.35208   0.00000  Uiso   1.00
C8     C     0.01436   0.89587   0.36175   0.00000  Uiso   1.00
C9     C     0.94583   0.94697   0.34787   0.00000  Uiso   1.00
C10    C     0.14720   0.81934   0.49498   0.00000  Uiso   1.00
C11    C     0.19627   0.83623   0.49963   0.00000  Uiso   1.00
C12    C     0.21469   0.84732   0.57679   0.00000  Uiso   1.00
C13    C     0.26210   0.87030   0.68735   0.00000  Uiso   1.00
C14    C     0.06502   0.79476   0.54565   0.00000  Uiso   1.00
C15    C     0.07197   0.74580   0.49909   0.00000  Uiso   1.00
C16    C     0.05196   0.69974   0.52092   0.00000  Uiso   1.00
C17    C     0.06265   0.65945   0.47028   0.00000  Uiso   1.00
C18    C     0.04290   0.83183   0.48474   0.00000  Uiso   1.00
C19    C     0.99847   0.85811   0.49451   0.00000  Uiso   1.00
C20    C     0.98468   0.89024   0.43180   0.00000  Uiso   1.00
C21    C     0.11758   0.81372   0.56490   0.00000  Uiso   1.00
C22    C     0.13592   0.82479   0.64206   0.00000  Uiso   1.00
C23    C     0.18501   0.84169   0.64683   0.00000  Uiso   1.00
H24    H     0.14263   0.80947   0.36248   0.00000  Uiso   1.00
H25    H     0.13523   0.71555   0.32438   0.00000  Uiso   1.00
H26    H     0.08175   0.87389   0.29798   0.00000  Uiso   1.00
H27    H     0.21918   0.84057   0.44551   0.00000  Uiso   1.00
H28    H     0.11395   0.60894   0.31295   0.00000  Uiso   1.00
H29    H     0.00118   0.94284   0.25731   0.00000  Uiso   1.00
H30    H     0.29099   0.87258   0.56840   0.00000  Uiso   1.00
H31    H     0.04196   0.79038   0.60009   0.00000  Uiso   1.00
H32    H     0.02904   0.69541   0.57503   0.00000  Uiso   1.00
H33    H     0.97555   0.85376   0.54863   0.00000  Uiso   1.00
H34    H     0.11298   0.82044   0.69616   0.00000  Uiso   1.00
H35    H     0.02776   0.59260   0.51639   0.00000  Uiso   1.00
H36    H     0.91499   0.92650   0.46075   0.00000  Uiso   1.00
H37    H     0.20479   0.85623   0.77183   0.00000  Uiso   1.00
O38    O     0.06416   0.53864   0.39388   0.00000  Uiso   1.00
O39    O     0.91622   0.97671   0.32089   0.00000  Uiso   1.00
O40    O     0.29643   0.88452   0.72903   0.00000  Uiso   1.00
N41    N     0.09545   0.61813   0.36428   0.00000  Uiso   1.00
N42    N     0.99001   0.93029   0.31225   0.00000  Uiso   1.00
N43    N     0.26095   0.86462   0.60309   0.00000  Uiso   1.00
N44    N     0.04907   0.60933   0.47375   0.00000  Uiso   1.00
N45    N     0.94363   0.92150   0.42172   0.00000  Uiso   1.00
N46    N     0.21457   0.85582   0.71256   0.00000  Uiso   1.00
C47    C     0.61957   0.30510   0.91692   0.00000  Uiso   1.00
C48    C     0.60159   0.25142   0.92917   0.00000  Uiso   1.00
C49    C     0.61231   0.21118   0.87849   0.00000  Uiso   1.00
C50    C     0.59233   0.16508   0.90023   0.00000  Uiso   1.00
C51    C     0.56890   0.08259   0.90859   0.00000  Uiso   1.00
C52    C     0.57253   0.33745   0.91482   0.00000  Uiso   1.00
C53    C     0.55881   0.36955   0.85208   0.00000  Uiso   1.00
C54    C     0.51436   0.39587   0.86175   0.00000  Uiso   1.00
C55    C     0.44583   0.44697   0.84787   0.00000  Uiso   1.00
C56    C     0.64720   0.31934   0.99498   0.00000  Uiso   1.00
C57    C     0.69627   0.33623   0.99963   0.00000  Uiso   1.00
C58    C     0.71469   0.34732   0.07679   0.00000  Uiso   1.00
C59    C     0.76210   0.37030   0.18735   0.00000  Uiso   1.00
C60    C     0.56502   0.29476   0.04565   0.00000  Uiso   1.00
C61    C     0.57197   0.24580   0.99909   0.00000  Uiso   1.00
C62    C     0.55196   0.19974   0.02092   0.00000  Uiso   1.00
C63    C     0.56265   0.15945   0.97028   0.00000  Uiso   1.00
C64    C     0.54290   0.33183   0.98474   0.00000  Uiso   1.00
C65    C     0.49847   0.35811   0.99451   0.00000  Uiso   1.00
C66    C     0.48468   0.39024   0.93180   0.00000  Uiso   1.00
C67    C     0.61758   0.31372   0.06490   0.00000  Uiso   1.00
C68    C     0.63592   0.32479   0.14206   0.00000  Uiso   1.00
C69    C     0.68501   0.34169   0.14683   0.00000  Uiso   1.00
H70    H     0.64263   0.30947   0.86248   0.00000  Uiso   1.00
H71    H     0.63523   0.21555   0.82438   0.00000  Uiso   1.00
H72    H     0.58175   0.37389   0.79798   0.00000  Uiso   1.00
H73    H     0.71918   0.34057   0.94551   0.00000  Uiso   1.00
H74    H     0.61395   0.10894   0.81295   0.00000  Uiso   1.00
H75    H     0.50118   0.44284   0.75731   0.00000  Uiso   1.00
H76    H     0.79099   0.37258   0.06840   0.00000  Uiso   1.00
H77    H     0.54196   0.29038   0.10009   0.00000  Uiso   1.00
H78    H     0.52904   0.19541   0.07503   0.00000  Uiso   1.00
H79    H     0.47555   0.35376   0.04863   0.00000  Uiso   1.00
H80    H     0.61298   0.32044   0.19616   0.00000  Uiso   1.00
H81    H     0.52776   0.09260   0.01639   0.00000  Uiso   1.00
H82    H     0.41499   0.42650   0.96075   0.00000  Uiso   1.00
H83    H     0.70479   0.35623   0.27183   0.00000  Uiso   1.00
O84    O     0.56416   0.03864   0.89388   0.00000  Uiso   1.00
O85    O     0.41622   0.47671   0.82089   0.00000  Uiso   1.00
O86    O     0.79643   0.38452   0.22903   0.00000  Uiso   1.00
N87    N     0.59545   0.11813   0.86428   0.00000  Uiso   1.00
N88    N     0.49001   0.43029   0.81225   0.00000  Uiso   1.00
N89    N     0.76095   0.36462   0.10309   0.00000  Uiso   1.00
N90    N     0.54907   0.10933   0.97375   0.00000  Uiso   1.00
N91    N     0.44363   0.42150   0.92172   0.00000  Uiso   1.00
N92    N     0.71457   0.35582   0.21256   0.00000  Uiso   1.00
C93    C     0.38043   0.69490   0.91692   0.00000  Uiso   1.00
C94    C     0.39841   0.74858   0.92917   0.00000  Uiso   1.00
C95    C     0.38769   0.78882   0.87849   0.00000  Uiso   1.00
C96    C     0.40767   0.83492   0.90023   0.00000  Uiso   1.00
C97    C     0.43110   0.91741   0.90859   0.00000  Uiso   1.00
C98    C     0.42747   0.66255   0.91482   0.00000  Uiso   1.00
C99    C     0.44119   0.63045   0.85208   0.00000  Uiso   1.00
C100   C     0.48564   0.60413   0.86175   0.00000  Uiso   1.00
C101   C     0.55417   0.55303   0.84787   0.00000  Uiso   1.00
C102   C     0.35280   0.68066   0.99498   0.00000  Uiso   1.00
C103   C     0.30373   0.66377   0.99963   0.00000  Uiso   1.00
C104   C     0.28531   0.65268   0.07679   0.00000  Uiso   1.00
C105   C     0.23790   0.62970   0.18735   0.00000  Uiso   1.00
C106   C     0.43498   0.70524   0.04565   0.00000  Uiso   1.00
C107   C     0.42803   0.75420   0.99909   0.00000  Uiso   1.00
C108   C     0.44804   0.80026   0.02092   0.00000  Uiso   1.00
C109   C     0.43735   0.84055   0.97028   0.00000  Uiso   1.00
C110   C     0.45710   0.66817   0.98474   0.00000  Uiso   1.00
C111   C     0.50153   0.64189   0.99451   0.00000  Uiso   1.00
C112   C     0.51532   0.60976   0.93180   0.00000  Uiso   1.00
C113   C     0.38242   0.68628   0.06490   0.00000  Uiso   1.00
C114   C     0.36408   0.67521   0.14206   0.00000  Uiso   1.00
C115   C     0.31499   0.65831   0.14683   0.00000  Uiso   1.00
H116   H     0.35737   0.69053   0.86248   0.00000  Uiso   1.00
H117   H     0.36477   0.78445   0.82438   0.00000  Uiso   1.00
H118   H     0.41825   0.62611   0.79798   0.00000  Uiso   1.00
H119   H     0.28082   0.65943   0.94551   0.00000  Uiso   1.00
H120   H     0.38605   0.89106   0.81295   0.00000  Uiso   1.00
H121   H     0.49882   0.55716   0.75731   0.00000  Uiso   1.00
H122   H     0.20901   0.62742   0.06840   0.00000  Uiso   1.00
H123   H     0.45804   0.70962   0.10009   0.00000  Uiso   1.00
H124   H     0.47096   0.80459   0.07503   0.00000  Uiso   1.00
H125   H     0.52445   0.64624   0.04863   0.00000  Uiso   1.00
H126   H     0.38702   0.67956   0.19616   0.00000  Uiso   1.00
H127   H     0.47224   0.90740   0.01639   0.00000  Uiso   1.00
H128   H     0.58501   0.57350   0.96075   0.00000  Uiso   1.00
H129   H     0.29521   0.64377   0.27183   0.00000  Uiso   1.00
O130   O     0.43584   0.96136   0.89388   0.00000  Uiso   1.00
O131   O     0.58378   0.52329   0.82089   0.00000  Uiso   1.00
O132   O     0.20357   0.61548   0.22903   0.00000  Uiso   1.00
N133   N     0.40455   0.88187   0.86428   0.00000  Uiso   1.00
N134   N     0.50999   0.56971   0.81225   0.00000  Uiso   1.00
N135   N     0.23905   0.63538   0.10309   0.00000  Uiso   1.00
N136   N     0.45093   0.89067   0.97375   0.00000  Uiso   1.00
N137   N     0.55637   0.57850   0.92172   0.00000  Uiso   1.00
N138   N     0.28543   0.64418   0.21256   0.00000  Uiso   1.00
C139   C     0.88043   0.19490   0.41692   0.00000  Uiso   1.00
C140   C     0.89841   0.24858   0.42917   0.00000  Uiso   1.00
C141   C     0.88769   0.28882   0.37849   0.00000  Uiso   1.00
C142   C     0.90767   0.33492   0.40023   0.00000  Uiso   1.00
C143   C     0.93110   0.41741   0.40859   0.00000  Uiso   1.00
C144   C     0.92747   0.16255   0.41482   0.00000  Uiso   1.00
C145   C     0.94119   0.13045   0.35208   0.00000  Uiso   1.00
C146   C     0.98564   0.10413   0.36175   0.00000  Uiso   1.00
C147   C     0.05417   0.05303   0.34787   0.00000  Uiso   1.00
C148   C     0.85280   0.18066   0.49498   0.00000  Uiso   1.00
C149   C     0.80373   0.16377   0.49963   0.00000  Uiso   1.00
C150   C     0.78531   0.15268   0.57679   0.00000  Uiso   1.00
C151   C     0.73790   0.12970   0.68735   0.00000  Uiso   1.00
C152   C     0.93498   0.20524   0.54565   0.00000  Uiso   1.00
C153   C     0.92803   0.25420   0.49909   0.00000  Uiso   1.00
C154   C     0.94804   0.30026   0.52092   0.00000  Uiso   1.00
C155   C     0.93735   0.34055   0.47028   0.00000  Uiso   1.00
C156   C     0.95710   0.16817   0.48474   0.00000  Uiso   1.00
C157   C     0.00153   0.14189   0.49451   0.00000  Uiso   1.00
C158   C     0.01532   0.10976   0.43180   0.00000  Uiso   1.00
C159   C     0.88242   0.18628   0.56490   0.00000  Uiso   1.00
C160   C     0.86408   0.17521   0.64206   0.00000  Uiso   1.00
C161   C     0.81499   0.15831   0.64683   0.00000  Uiso   1.00
H162   H     0.85737   0.19053   0.36248   0.00000  Uiso   1.00
H163   H     0.86477   0.28445   0.32438   0.00000  Uiso   1.00
H164   H     0.91825   0.12611   0.29798   0.00000  Uiso   1.00
H165   H     0.78082   0.15943   0.44551   0.00000  Uiso   1.00
H166   H     0.88605   0.39106   0.31295   0.00000  Uiso   1.00
H167   H     0.99882   0.05716   0.25731   0.00000  Uiso   1.00
H168   H     0.70901   0.12742   0.56840   0.00000  Uiso   1.00
H169   H     0.95804   0.20962   0.60009   0.00000  Uiso   1.00
H170   H     0.97096   0.30459   0.57503   0.00000  Uiso   1.00
H171   H     0.02445   0.14624   0.54863   0.00000  Uiso   1.00
H172   H     0.88702   0.17956   0.69616   0.00000  Uiso   1.00
H173   H     0.97224   0.40740   0.51639   0.00000  Uiso   1.00
H174   H     0.08501   0.07350   0.46075   0.00000  Uiso   1.00
H175   H     0.79521   0.14377   0.77183   0.00000  Uiso   1.00
O176   O     0.93584   0.46136   0.39388   0.00000  Uiso   1.00
O177   O     0.08378   0.02329   0.32089   0.00000  Uiso   1.00
O178   O     0.70357   0.11548   0.72903   0.00000  Uiso   1.00
N179   N     0.90455   0.38187   0.36428   0.00000  Uiso   1.00
N180   N     0.00999   0.06971   0.31225   0.00000  Uiso   1.00
N181   N     0.73905   0.13538   0.60309   0.00000  Uiso   1.00
N182   N     0.95093   0.39067   0.47375   0.00000  Uiso   1.00
N183   N     0.05637   0.07850   0.42172   0.00000  Uiso   1.00
N184   N     0.78543   0.14418   0.71256   0.00000  Uiso   1.00
C185   C     0.19490   0.61957   0.66692   0.00000  Uiso   1.00
C186   C     0.24858   0.60159   0.67917   0.00000  Uiso   1.00
C187   C     0.28882   0.61231   0.62849   0.00000  Uiso   1.00
C188   C     0.33492   0.59233   0.65023   0.00000  Uiso   1.00
C189   C     0.41741   0.56890   0.65859   0.00000  Uiso   1.00
C190   C     0.16255   0.57253   0.66482   0.00000  Uiso   1.00
C191   C     0.13045   0.55881   0.60208   0.00000  Uiso   1.00
C192   C     0.10413   0.51436   0.61175   0.00000  Uiso   1.00
C193   C     0.05303   0.44583   0.59787   0.00000  Uiso   1.00
C194   C     0.18066   0.64720   0.74498   0.00000  Uiso   1.00
C195   C     0.16377   0.69627   0.74963   0.00000  Uiso   1.00
C196   C     0.15268   0.71469   0.82679   0.00000  Uiso   1.00
C197   C     0.12970   0.76210   0.93735   0.00000  Uiso   1.00
C198   C     0.20524   0.56502   0.79565   0.00000  Uiso   1.00
C199   C     0.25420   0.57197   0.74909   0.00000  Uiso   1.00
C200   C     0.30026   0.55196   0.77092   0.00000  Uiso   1.00
C201   C     0.34055   0.56265   0.72028   0.00000  Uiso   1.00
C202   C     0.16817   0.54290   0.73474   0.00000  Uiso   1.00
C203   C     0.14189   0.49847   0.74451   0.00000  Uiso   1.00
C204   C     0.10976   0.48468   0.68180   0.00000  Uiso   1.00
C205   C     0.18628   0.61758   0.81490   0.00000  Uiso   1.00
C206   C     0.17521   0.63592   0.89206   0.00000  Uiso   1.00
C207   C     0.15831   0.68501   0.89683   0.00000  Uiso   1.00
H208   H     0.19053   0.64263   0.61248   0.00000  Uiso   1.00
H209   H     0.28445   0.63523   0.57438   0.00000  Uiso   1.00
H210   H     0.12611   0.58175   0.54798   0.00000  Uiso   1.00
H211   H     0.15943   0.71918   0.69551   0.00000  Uiso   1.00
H212   H     0.39106   0.61395   0.56295   0.00000  Uiso   1.00
H213   H     0.05716   0.50118   0.50731   0.00000  Uiso   1.00
H214   H     0.12742   0.79099   0.81840   0.00000  Uiso   1.00
H215   H     0.20962   0.54196   0.85009   0.00000  Uiso   1.00
H216   H     0.30459   0.52904   0.82503   0.00000  Uiso   1.00
H217   H     0.14624   0.47555   0.79863   0.00000  Uiso   1.00
H218   H     0.17956   0.61298   0.94616   0.00000  Uiso   1.00
H219   H     0.40740   0.52776   0.76639   0.00000  Uiso   1.00
H220   H     0.07350   0.41499   0.71075   0.00000  Uiso   1.00
H221   H     0.14377   0.70479   0.02183   0.00000  Uiso   1.00
O222   O     0.46136   0.56416   0.64388   0.00000  Uiso   1.00
O223   O     0.02329   0.41622   0.57089   0.00000  Uiso   1.00
O224   O     0.11548   0.79643   0.97903   0.00000  Uiso   1.00
N225   N     0.38187   0.59545   0.61428   0.00000  Uiso   1.00
N226   N     0.06971   0.49001   0.56225   0.00000  Uiso   1.00
N227   N     0.13538   0.76095   0.85309   0.00000  Uiso   1.00
N228   N     0.39067   0.54907   0.72375   0.00000  Uiso   1.00
N229   N     0.07850   0.44363   0.67172   0.00000  Uiso   1.00
N230   N     0.14418   0.71457   0.96256   0.00000  Uiso   1.00
C231   C     0.69490   0.11957   0.16692   0.00000  Uiso   1.00
C232   C     0.74858   0.10159   0.17917   0.00000  Uiso   1.00
C233   C     0.78882   0.11231   0.12849   0.00000  Uiso   1.00
C234   C     0.83492   0.09233   0.15023   0.00000  Uiso   1.00
C235   C     0.91741   0.06890   0.15859   0.00000  Uiso   1.00
C236   C     0.66255   0.07253   0.16482   0.00000  Uiso   1.00
C237   C     0.63045   0.05881   0.10208   0.00000  Uiso   1.00
C238   C     0.60413   0.01436   0.11175   0.00000  Uiso   1.00
C239   C     0.55303   0.94583   0.09787   0.00000  Uiso   1.00
C240   C     0.68066   0.14720   0.24498   0.00000  Uiso   1.00
C241   C     0.66377   0.19627   0.24963   0.00000  Uiso   1.00
C242   C     0.65268   0.21469   0.32679   0.00000  Uiso   1.00
C243   C     0.62970   0.26210   0.43735   0.00000  Uiso   1.00
C244   C     0.70524   0.06502   0.29565   0.00000  Uiso   1.00
C245   C     0.75420   0.07197   0.24909   0.00000  Uiso   1.00
C246   C     0.80026   0.05196   0.27092   0.00000  Uiso   1.00
C247   C     0.84055   0.06265   0.22028   0.00000  Uiso   1.00
C248   C     0.66817   0.04290   0.23474   0.00000  Uiso   1.00
C249   C     0.64189   0.99847   0.24451   0.00000  Uiso   1.00
C250   C     0.60976   0.98468   0.18180   0.00000  Uiso   1.00
C251   C     0.68628   0.11758   0.31490   0.00000  Uiso   1.00
C252   C     0.67521   0.13592   0.39206   0.00000  Uiso   1.00
C253   C     0.65831   0.18501   0.39683   0.00000  Uiso   1.00
H254   H     0.69053   0.14263   0.11248   0.00000  Uiso   1.00
H255   H     0.78445   0.13523   0.07438   0.00000  Uiso   1.00
H256   H     0.62611   0.08175   0.04798   0.00000  Uiso   1.00
H257   H     0.65943   0.21918   0.19551   0.00000  Uiso   1.00
H258   H     0.89106   0.11395   0.06295   0.00000  Uiso   1.00
H259   H     0.55716   0.00118   0.00731   0.00000  Uiso   1.00
H260   H     0.62742   0.29099   0.31840   0.00000  Uiso   1.00
H261   H     0.70962   0.04196   0.35009   0.00000  Uiso   1.00
H262   H     0.80459   0.02904   0.32503   0.00000  Uiso   1.00
H263   H     0.64624   0.97555   0.29863   0.00000  Uiso   1.00
H264   H     0.67956   0.11298   0.44616   0.00000  Uiso   1.00
H265   H     0.90740   0.02776   0.26639   0.00000  Uiso   1.00
H266   H     0.57350   0.91499   0.21075   0.00000  Uiso   1.00
H267   H     0.64377   0.20479   0.52183   0.00000  Uiso   1.00
O268   O     0.96136   0.06416   0.14388   0.00000  Uiso   1.00
O269   O     0.52329   0.91622   0.07089   0.00000  Uiso   1.00
O270   O     0.61548   0.29643   0.47903   0.00000  Uiso   1.00
N271   N     0.88187   0.09545   0.11428   0.00000  Uiso   1.00
N272   N     0.56971   0.99001   0.06225   0.00000  Uiso   1.00
N273   N     0.63538   0.26095   0.35309   0.00000  Uiso   1.00
N274   N     0.89067   0.04907   0.22375   0.00000  Uiso   1.00
N275   N     0.57850   0.94363   0.17172   0.00000  Uiso   1.00
N276   N     0.64418   0.21457   0.46256   0.00000  Uiso   1.00
C277   C     0.30510   0.88043   0.16692   0.00000  Uiso   1.00
C278   C     0.25142   0.89841   0.17917   0.00000  Uiso   1.00
C279   C     0.21118   0.88769   0.12849   0.00000  Uiso   1.00
C280   C     0.16508   0.90767   0.15023   0.00000  Uiso   1.00
C281   C     0.08259   0.93110   0.15859   0.00000  Uiso   1.00
C282   C     0.33745   0.92747   0.16482   0.00000  Uiso   1.00
C283   C     0.36955   0.94119   0.10208   0.00000  Uiso   1.00
C284   C     0.39587   0.98564   0.11175   0.00000  Uiso   1.00
C285   C     0.44697   0.05417   0.09787   0.00000  Uiso   1.00
C286   C     0.31934   0.85280   0.24498   0.00000  Uiso   1.00
C287   C     0.33623   0.80373   0.24963   0.00000  Uiso   1.00
C288   C     0.34732   0.78531   0.32679   0.00000  Uiso   1.00
C289   C     0.37030   0.73790   0.43735   0.00000  Uiso   1.00
C290   C     0.29476   0.93498   0.29565   0.00000  Uiso   1.00
C291   C     0.24580   0.92803   0.24909   0.00000  Uiso   1.00
C292   C     0.19974   0.94804   0.27092   0.00000  Uiso   1.00
C293   C     0.15945   0.93735   0.22028   0.00000  Uiso   1.00
C294   C     0.33183   0.95710   0.23474   0.00000  Uiso   1.00
C295   C     0.35811   0.00153   0.24451   0.00000  Uiso   1.00
C296   C     0.39024   0.01532   0.18180   0.00000  Uiso   1.00
C297   C     0.31372   0.88242   0.31490   0.00000  Uiso   1.00
C298   C     0.32479   0.86408   0.39206   0.00000  Uiso   1.00
C299   C     0.34169   0.81499   0.39683   0.00000  Uiso   1.00
H300   H     0.30947   0.85737   0.11248   0.00000  Uiso   1.00
H301   H     0.21555   0.86477   0.07438   0.00000  Uiso   1.00
H302   H     0.37389   0.91825   0.04798   0.00000  Uiso   1.00
H303   H     0.34057   0.78082   0.19551   0.00000  Uiso   1.00
H304   H     0.10894   0.88605   0.06295   0.00000  Uiso   1.00
H305   H     0.44284   0.99882   0.00731   0.00000  Uiso   1.00
H306   H     0.37258   0.70901   0.31840   0.00000  Uiso   1.00
H307   H     0.29038   0.95804   0.35009   0.00000  Uiso   1.00
H308   H     0.19541   0.97096   0.32503   0.00000  Uiso   1.00
H309   H     0.35376   0.02445   0.29863   0.00000  Uiso   1.00
H310   H     0.32044   0.88702   0.44616   0.00000  Uiso   1.00
H311   H     0.09260   0.97224   0.26639   0.00000  Uiso   1.00
H312   H     0.42650   0.08501   0.21075   0.00000  Uiso   1.00
H313   H     0.35623   0.79521   0.52183   0.00000  Uiso   1.00
O314   O     0.03864   0.93584   0.14388   0.00000  Uiso   1.00
O315   O     0.47671   0.08378   0.07089   0.00000  Uiso   1.00
O316   O     0.38452   0.70357   0.47903   0.00000  Uiso   1.00
N317   N     0.11813   0.90455   0.11428   0.00000  Uiso   1.00
N318   N     0.43029   0.00999   0.06225   0.00000  Uiso   1.00
N319   N     0.36462   0.73905   0.35309   0.00000  Uiso   1.00
N320   N     0.10933   0.95093   0.22375   0.00000  Uiso   1.00
N321   N     0.42150   0.05637   0.17172   0.00000  Uiso   1.00
N322   N     0.35582   0.78543   0.46256   0.00000  Uiso   1.00
C323   C     0.80510   0.38043   0.66692   0.00000  Uiso   1.00
C324   C     0.75142   0.39841   0.67917   0.00000  Uiso   1.00
C325   C     0.71118   0.38769   0.62849   0.00000  Uiso   1.00
C326   C     0.66508   0.40767   0.65023   0.00000  Uiso   1.00
C327   C     0.58259   0.43110   0.65859   0.00000  Uiso   1.00
C328   C     0.83745   0.42747   0.66482   0.00000  Uiso   1.00
C329   C     0.86955   0.44119   0.60208   0.00000  Uiso   1.00
C330   C     0.89587   0.48564   0.61175   0.00000  Uiso   1.00
C331   C     0.94697   0.55417   0.59787   0.00000  Uiso   1.00
C332   C     0.81934   0.35280   0.74498   0.00000  Uiso   1.00
C333   C     0.83623   0.30373   0.74963   0.00000  Uiso   1.00
C334   C     0.84732   0.28531   0.82679   0.00000  Uiso   1.00
C335   C     0.87030   0.23790   0.93735   0.00000  Uiso   1.00
C336   C     0.79476   0.43498   0.79565   0.00000  Uiso   1.00
C337   C     0.74580   0.42803   0.74909   0.00000  Uiso   1.00
C338   C     0.69974   0.44804   0.77092   0.00000  Uiso   1.00
C339   C     0.65945   0.43735   0.72028   0.00000  Uiso   1.00
C340   C     0.83183   0.45710   0.73474   0.00000  Uiso   1.00
C341   C     0.85811   0.50153   0.74451   0.00000  Uiso   1.00
C342   C     0.89024   0.51532   0.68180   0.00000  Uiso   1.00
C343   C     0.81372   0.38242   0.81490   0.00000  Uiso   1.00
C344   C     0.82479   0.36408   0.89206   0.00000  Uiso   1.00
C345   C     0.84169   0.31499   0.89683   0.00000  Uiso   1.00
H346   H     0.80947   0.35737   0.61248   0.00000  Uiso   1.00
H347   H     0.71555   0.36477   0.57438   0.00000  Uiso   1.00
H348   H     0.87389   0.41825   0.54798   0.00000  Uiso   1.00
H349   H     0.84057   0.28082   0.69551   0.00000  Uiso   1.00
H350   H     0.60894   0.38605   0.56295   0.00000  Uiso   1.00
H351   H     0.94284   0.49882   0.50731   0.00000  Uiso   1.00
H352   H     0.87258   0.20901   0.81840   0.00000  Uiso   1.00
H353   H     0.79038   0.45804   0.85009   0.00000  Uiso   1.00
H354   H     0.69541   0.47096   0.82503   0.00000  Uiso   1.00
H355   H     0.85376   0.52445   0.79863   0.00000  Uiso   1.00
H356   H     0.82044   0.38702   0.94616   0.00000  Uiso   1.00
H357   H     0.59260   0.47224   0.76639   0.00000  Uiso   1.00
H358   H     0.92650   0.58501   0.71075   0.00000  Uiso   1.00
H359   H     0.85623   0.29521   0.02183   0.00000  Uiso   1.00
O360   O     0.53864   0.43584   0.64388   0.00000  Uiso   1.00
O361   O     0.97671   0.58378   0.57089   0.00000  Uiso   1.00
O362   O     0.88452   0.20357   0.97903   0.00000  Uiso   1.00
N363   N     0.61813   0.40455   0.61428   0.00000  Uiso   1.00
N364   N     0.93029   0.50999   0.56225   0.00000  Uiso   1.00
N365   N     0.86462   0.23905   0.85309   0.00000  Uiso   1.00
N366   N     0.60933   0.45093   0.72375   0.00000  Uiso   1.00
N367   N     0.92150   0.55637   0.67172   0.00000  Uiso   1.00
N368   N     0.85582   0.28543   0.96256   0.00000  Uiso   1.00
C369   C     0.88043   0.69490   0.83308   0.00000  Uiso   1.00
C370   C     0.89841   0.74858   0.82083   0.00000  Uiso   1.00
C371   C     0.88769   0.78882   0.87151   0.00000  Uiso   1.00
C372   C     0.90767   0.83492   0.84977   0.00000  Uiso   1.00
C373   C     0.93110   0.91741   0.84141   0.00000  Uiso   1.00
C374   C     0.92747   0.66255   0.83518   0.00000  Uiso   1.00
C375   C     0.94119   0.63045   0.89792   0.00000  Uiso   1.00
C376   C     0.98564   0.60413   0.88825   0.00000  Uiso   1.00
C377   C     0.05417   0.55303   0.90213   0.00000  Uiso   1.00
C378   C     0.85280   0.68066   0.75502   0.00000  Uiso   1.00
C379   C     0.80373   0.66377   0.75037   0.00000  Uiso   1.00
C380   C     0.78531   0.65268   0.67321   0.00000  Uiso   1.00
C381   C     0.73790   0.62970   0.56265   0.00000  Uiso   1.00
C382   C     0.93498   0.70524   0.70435   0.00000  Uiso   1.00
C383   C     0.92803   0.75420   0.75091   0.00000  Uiso   1.00
C384   C     0.94804   0.80026   0.72908   0.00000  Uiso   1.00
C385   C     0.93735   0.84055   0.77972   0.00000  Uiso   1.00
C386   C     0.95710   0.66817   0.76526   0.00000  Uiso   1.00
C387   C     0.00153   0.64189   0.75549   0.00000  Uiso   1.00
C388   C     0.01532   0.60976   0.81820   0.00000  Uiso   1.00
C389   C     0.88242   0.68628   0.68510   0.00000  Uiso   1.00
C390   C     0.86408   0.67521   0.60794   0.00000  Uiso   1.00
C391   C     0.81499   0.65831   0.60317   0.00000  Uiso   1.00
H392   H     0.85737   0.69053   0.88752   0.00000  Uiso   1.00
H393   H     0.86477   0.78445   0.92562   0.00000  Uiso   1.00
H394   H     0.91825   0.62611   0.95202   0.00000  Uiso   1.00
H395   H     0.78082   0.65943   0.80449   0.00000  Uiso   1.00
H396   H     0.88605   0.89106   0.93705   0.00000  Uiso   1.00
H397   H     0.99882   0.55716   0.99269   0.00000  Uiso   1.00
H398   H     0.70901   0.62742   0.68160   0.00000  Uiso   1.00
H399   H     0.95804   0.70962   0.64991   0.00000  Uiso   1.00
H400   H     0.97096   0.80459   0.67497   0.00000  Uiso   1.00
H401   H     0.02445   0.64624   0.70137   0.00000  Uiso   1.00
H402   H     0.88702   0.67956   0.55384   0.00000  Uiso   1.00
H403   H     0.97224   0.90740   0.73361   0.00000  Uiso   1.00
H404   H     0.08501   0.57350   0.78925   0.00000  Uiso   1.00
H405   H     0.79521   0.64377   0.47817   0.00000  Uiso   1.00
O406   O     0.93584   0.96136   0.85612   0.00000  Uiso   1.00
O407   O     0.08378   0.52329   0.92911   0.00000  Uiso   1.00
O408   O     0.70357   0.61548   0.52097   0.00000  Uiso   1.00
N409   N     0.90455   0.88187   0.88572   0.00000  Uiso   1.00
N410   N     0.00999   0.56971   0.93775   0.00000  Uiso   1.00
N411   N     0.73905   0.63538   0.64691   0.00000  Uiso   1.00
N412   N     0.95093   0.89067   0.77625   0.00000  Uiso   1.00
N413   N     0.05637   0.57850   0.82828   0.00000  Uiso   1.00
N414   N     0.78543   0.64418   0.53744   0.00000  Uiso   1.00
C415   C     0.38043   0.19490   0.33308   0.00000  Uiso   1.00
C416   C     0.39841   0.24858   0.32083   0.00000  Uiso   1.00
C417   C     0.38769   0.28882   0.37151   0.00000  Uiso   1.00
C418   C     0.40767   0.33492   0.34977   0.00000  Uiso   1.00
C419   C     0.43110   0.41741   0.34141   0.00000  Uiso   1.00
C420   C     0.42747   0.16255   0.33518   0.00000  Uiso   1.00
C421   C     0.44119   0.13045   0.39792   0.00000  Uiso   1.00
C422   C     0.48564   0.10413   0.38825   0.00000  Uiso   1.00
C423   C     0.55417   0.05303   0.40213   0.00000  Uiso   1.00
C424   C     0.35280   0.18066   0.25502   0.00000  Uiso   1.00
C425   C     0.30373   0.16377   0.25037   0.00000  Uiso   1.00
C426   C     0.28531   0.15268   0.17321   0.00000  Uiso   1.00
C427   C     0.23790   0.12970   0.06265   0.00000  Uiso   1.00
C428   C     0.43498   0.20524   0.20435   0.00000  Uiso   1.00
C429   C     0.42803   0.25420   0.25091   0.00000  Uiso   1.00
C430   C     0.44804   0.30026   0.22908   0.00000  Uiso   1.00
C431   C     0.43735   0.34055   0.27972   0.00000  Uiso   1.00
C432   C     0.45710   0.16817   0.26526   0.00000  Uiso   1.00
C433   C     0.50153   0.14189   0.25549   0.00000  Uiso   1.00
C434   C     0.51532   0.10976   0.31820   0.00000  Uiso   1.00
C435   C     0.38242   0.18628   0.18510   0.00000  Uiso   1.00
C436   C     0.36408   0.17521   0.10794   0.00000  Uiso   1.00
C437   C     0.31499   0.15831   0.10317   0.00000  Uiso   1.00
H438   H     0.35737   0.19053   0.38752   0.00000  Uiso   1.00
H439   H     0.36477   0.28445   0.42562   0.00000  Uiso   1.00
H440   H     0.41825   0.12611   0.45202   0.00000  Uiso   1.00
H441   H     0.28082   0.15943   0.30449   0.00000  Uiso   1.00
H442   H     0.38605   0.39106   0.43705   0.00000  Uiso   1.00
H443   H     0.49882   0.05716   0.49269   0.00000  Uiso   1.00
H444   H     0.20901   0.12742   0.18160   0.00000  Uiso   1.00
H445   H     0.45804   0.20962   0.14991   0.00000  Uiso   1.00
H446   H     0.47096   0.30459   0.17497   0.00000  Uiso   1.00
H447   H     0.52445   0.14624   0.20137   0.00000  Uiso   1.00
H448   H     0.38702   0.17956   0.05384   0.00000  Uiso   1.00
H449   H     0.47224   0.40740   0.23361   0.00000  Uiso   1.00
H450   H     0.58501   0.07350   0.28925   0.00000  Uiso   1.00
H451   H     0.29521   0.14377   0.97817   0.00000  Uiso   1.00
O452   O     0.43584   0.46136   0.35612   0.00000  Uiso   1.00
O453   O     0.58378   0.02329   0.42911   0.00000  Uiso   1.00
O454   O     0.20357   0.11548   0.02097   0.00000  Uiso   1.00
N455   N     0.40455   0.38187   0.38572   0.00000  Uiso   1.00
N456   N     0.50999   0.06971   0.43775   0.00000  Uiso   1.00
N457   N     0.23905   0.13538   0.14691   0.00000  Uiso   1.00
N458   N     0.45093   0.39067   0.27625   0.00000  Uiso   1.00
N459   N     0.55637   0.07850   0.32828   0.00000  Uiso   1.00
N460   N     0.28543   0.14418   0.03744   0.00000  Uiso   1.00
C461   C     0.61957   0.80510   0.33308   0.00000  Uiso   1.00
C462   C     0.60159   0.75142   0.32083   0.00000  Uiso   1.00
C463   C     0.61231   0.71118   0.37151   0.00000  Uiso   1.00
C464   C     0.59233   0.66508   0.34977   0.00000  Uiso   1.00
C465   C     0.56890   0.58259   0.34141   0.00000  Uiso   1.00
C466   C     0.57253   0.83745   0.33518   0.00000  Uiso   1.00
C467   C     0.55881   0.86955   0.39792   0.00000  Uiso   1.00
C468   C     0.51436   0.89587   0.38825   0.00000  Uiso   1.00
C469   C     0.44583   0.94697   0.40213   0.00000  Uiso   1.00
C470   C     0.64720   0.81934   0.25502   0.00000  Uiso   1.00
C471   C     0.69627   0.83623   0.25037   0.00000  Uiso   1.00
C472   C     0.71469   0.84732   0.17321   0.00000  Uiso   1.00
C473   C     0.76210   0.87030   0.06265   0.00000  Uiso   1.00
C474   C     0.56502   0.79476   0.20435   0.00000  Uiso   1.00
C475   C     0.57197   0.74580   0.25091   0.00000  Uiso   1.00
C476   C     0.55196   0.69974   0.22908   0.00000  Uiso   1.00
C477   C     0.56265   0.65945   0.27972   0.00000  Uiso   1.00
C478   C     0.54290   0.83183   0.26526   0.00000  Uiso   1.00
C479   C     0.49847   0.85811   0.25549   0.00000  Uiso   1.00
C480   C     0.48468   0.89024   0.31820   0.00000  Uiso   1.00
C481   C     0.61758   0.81372   0.18510   0.00000  Uiso   1.00
C482   C     0.63592   0.82479   0.10794   0.00000  Uiso   1.00
C483   C     0.68501   0.84169   0.10317   0.00000  Uiso   1.00
H484   H     0.64263   0.80947   0.38752   0.00000  Uiso   1.00
H485   H     0.63523   0.71555   0.42562   0.00000  Uiso   1.00
H486   H     0.58175   0.87389   0.45202   0.00000  Uiso   1.00
H487   H     0.71918   0.84057   0.30449   0.00000  Uiso   1.00
H488   H     0.61395   0.60894   0.43705   0.00000  Uiso   1.00
H489   H     0.50118   0.94284   0.49269   0.00000  Uiso   1.00
H490   H     0.79099   0.87258   0.18160   0.00000  Uiso   1.00
H491   H     0.54196   0.79038   0.14991   0.00000  Uiso   1.00
H492   H     0.52904   0.69541   0.17497   0.00000  Uiso   1.00
H493   H     0.47555   0.85376   0.20137   0.00000  Uiso   1.00
H494   H     0.61298   0.82044   0.05384   0.00000  Uiso   1.00
H495   H     0.52776   0.59260   0.23361   0.00000  Uiso   1.00
H496   H     0.41499   0.92650   0.28925   0.00000  Uiso   1.00
H497   H     0.70479   0.85623   0.97817   0.00000  Uiso   1.00
O498   O     0.56416   0.53864   0.35612   0.00000  Uiso   1.00
O499   O     0.41622   0.97671   0.42911   0.00000  Uiso   1.00
O500   O     0.79643   0.88452   0.02097   0.00000  Uiso   1.00
N501   N     0.59545   0.61813   0.38572   0.00000  Uiso   1.00
N502   N     0.49001   0.93029   0.43775   0.00000  Uiso   1.00
N503   N     0.76095   0.86462   0.14691   0.00000  Uiso   1.00
N504   N     0.54907   0.60933   0.27625   0.00000  Uiso   1.00
N505   N     0.44363   0.92150   0.32828   0.00000  Uiso   1.00
N506   N     0.71457   0.85582   0.03744   0.00000  Uiso   1.00
C507   C     0.11957   0.30510   0.83308   0.00000  Uiso   1.00
C508   C     0.10159   0.25142   0.82083   0.00000  Uiso   1.00
C509   C     0.11231   0.21118   0.87151   0.00000  Uiso   1.00
C510   C     0.09233   0.16508   0.84977   0.00000  Uiso   1.00
C511   C     0.06890   0.08259   0.84141   0.00000  Uiso   1.00
C512   C     0.07253   0.33745   0.83518   0.00000  Uiso   1.00
C513   C     0.05881   0.36955   0.89792   0.00000  Uiso   1.00
C514   C     0.01436   0.39587   0.88825   0.00000  Uiso   1.00
C515   C     0.94583   0.44697   0.90213   0.00000  Uiso   1.00
C516   C     0.14720   0.31934   0.75502   0.00000  Uiso   1.00
C517   C     0.19627   0.33623   0.75037   0.00000  Uiso   1.00
C518   C     0.21469   0.34732   0.67321   0.00000  Uiso   1.00
C519   C     0.26210   0.37030   0.56265   0.00000  Uiso   1.00
C520   C     0.06502   0.29476   0.70435   0.00000  Uiso   1.00
C521   C     0.07197   0.24580   0.75091   0.00000  Uiso   1.00
C522   C     0.05196   0.19974   0.72908   0.00000  Uiso   1.00
C523   C     0.06265   0.15945   0.77972   0.00000  Uiso   1.00
C524   C     0.04290   0.33183   0.76526   0.00000  Uiso   1.00
C525   C     0.99847   0.35811   0.75549   0.00000  Uiso   1.00
C526   C     0.98468   0.39024   0.81820   0.00000  Uiso   1.00
C527   C     0.11758   0.31372   0.68510   0.00000  Uiso   1.00
C528   C     0.13592   0.32479   0.60794   0.00000  Uiso   1.00
C529   C     0.18501   0.34169   0.60317   0.00000  Uiso   1.00
H530   H     0.14263   0.30947   0.88752   0.00000  Uiso   1.00
H531   H     0.13523   0.21555   0.92562   0.00000  Uiso   1.00
H532   H     0.08175   0.37389   0.95202   0.00000  Uiso   1.00
H533   H     0.21918   0.34057   0.80449   0.00000  Uiso   1.00
H534   H     0.11395   0.10894   0.93705   0.00000  Uiso   1.00
H535   H     0.00118   0.44284   0.99269   0.00000  Uiso   1.00
H536   H     0.29099   0.37258   0.68160   0.00000  Uiso   1.00
H537   H     0.04196   0.29038   0.64991   0.00000  Uiso   1.00
H538   H     0.02904   0.19541   0.67497   0.00000  Uiso   1.00
H539   H     0.97555   0.35376   0.70137   0.00000  Uiso   1.00
H540   H     0.11298   0.32044   0.55384   0.00000  Uiso   1.00
H541   H     0.02776   0.09260   0.73361   0.00000  Uiso   1.00
H542   H     0.91499   0.42650   0.78925   0.00000  Uiso   1.00
H543   H     0.20479   0.35623   0.47817   0.00000  Uiso   1.00
O544   O     0.06416   0.03864   0.85612   0.00000  Uiso   1.00
O545   O     0.91622   0.47671   0.92911   0.00000  Uiso   1.00
O546   O     0.29643   0.38452   0.52097   0.00000  Uiso   1.00
N547   N     0.09545   0.11813   0.88572   0.00000  Uiso   1.00
N548   N     0.99001   0.43029   0.93775   0.00000  Uiso   1.00
N549   N     0.26095   0.36462   0.64691   0.00000  Uiso   1.00
N550   N     0.04907   0.10933   0.77625   0.00000  Uiso   1.00
N551   N     0.94363   0.42150   0.82828   0.00000  Uiso   1.00
N552   N     0.21457   0.35582   0.53744   0.00000  Uiso   1.00
C553   C     0.80510   0.88043   0.58308   0.00000  Uiso   1.00
C554   C     0.75142   0.89841   0.57083   0.00000  Uiso   1.00
C555   C     0.71118   0.88769   0.62151   0.00000  Uiso   1.00
C556   C     0.66508   0.90767   0.59977   0.00000  Uiso   1.00
C557   C     0.58259   0.93110   0.59141   0.00000  Uiso   1.00
C558   C     0.83745   0.92747   0.58518   0.00000  Uiso   1.00
C559   C     0.86955   0.94119   0.64792   0.00000  Uiso   1.00
C560   C     0.89587   0.98564   0.63825   0.00000  Uiso   1.00
C561   C     0.94697   0.05417   0.65213   0.00000  Uiso   1.00
C562   C     0.81934   0.85280   0.50502   0.00000  Uiso   1.00
C563   C     0.83623   0.80373   0.50037   0.00000  Uiso   1.00
C564   C     0.84732   0.78531   0.42321   0.00000  Uiso   1.00
C565   C     0.87030   0.73790   0.31265   0.00000  Uiso   1.00
C566   C     0.79476   0.93498   0.45435   0.00000  Uiso   1.00
C567   C     0.74580   0.92803   0.50091   0.00000  Uiso   1.00
C568   C     0.69974   0.94804   0.47908   0.00000  Uiso   1.00
C569   C     0.65945   0.93735   0.52972   0.00000  Uiso   1.00
C570   C     0.83183   0.95710   0.51526   0.00000  Uiso   1.00
C571   C     0.85811   0.00153   0.50549   0.00000  Uiso   1.00
C572   C     0.89024   0.01532   0.56820   0.00000  Uiso   1.00
C573   C     0.81372   0.88242   0.43510   0.00000  Uiso   1.00
C574   C     0.82479   0.86408   0.35794   0.00000  Uiso   1.00
C575   C     0.84169   0.81499   0.35317   0.00000  Uiso   1.00
H576   H     0.80947   0.85737   0.63752   0.00000  Uiso   1.00
H577   H     0.71555   0.86477   0.67562   0.00000  Uiso   1.00
H578   H     0.87389   0.91825   0.70202   0.00000  Uiso   1.00
H579   H     0.84057   0.78082   0.55449   0.00000  Uiso   1.00
H580   H     0.60894   0.88605   0.68705   0.00000  Uiso   1.00
H581   H     0.94284   0.99882   0.74269   0.00000  Uiso   1.00
H582   H     0.87258   0.70901   0.43160   0.00000  Uiso   1.00
H583   H     0.79038   0.95804   0.39991   0.00000  Uiso   1.00
H584   H     0.69541   0.97096   0.42497   0.00000  Uiso   1.00
H585   H     0.85376   0.02445   0.45137   0.00000  Uiso   1.00
H586   H     0.82044   0.88702   0.30384   0.00000  Uiso   1.00
H587   H     0.59260   0.97224   0.48361   0.00000  Uiso   1.00
H588   H     0.92650   0.08501   0.53925   0.00000  Uiso   1.00
H589   H     0.85623   0.79521   0.22817   0.00000  Uiso   1.00
O590   O     0.53864   0.93584   0.60612   0.00000  Uiso   1.00
O591   O     0.97671   0.08378   0.67911   0.00000  Uiso   1.00
O592   O     0.88452   0.70357   0.27097   0.00000  Uiso   1.00
N593   N     0.61813   0.90455   0.63572   0.00000  Uiso   1.00
N594   N     0.93029   0.00999   0.68775   0.00000  Uiso   1.00
N595   N     0.86462   0.73905   0.39691   0.00000  Uiso   1.00
N596   N     0.60933   0.95093   0.52625   0.00000  Uiso   1.00
N597   N     0.92150   0.05637   0.57828   0.00000  Uiso   1.00
N598   N     0.85582   0.78543   0.28744   0.00000  Uiso   1.00
C599   C     0.30510   0.38043   0.08308   0.00000  Uiso   1.00
C600   C     0.25142   0.39841   0.07083   0.00000  Uiso   1.00
C601   C     0.21118   0.38769   0.12151   0.00000  Uiso   1.00
C602   C     0.16508   0.40767   0.09977   0.00000  Uiso   1.00
C603   C     0.08259   0.43110   0.09141   0.00000  Uiso   1.00
C604   C     0.33745   0.42747   0.08518   0.00000  Uiso   1.00
C605   C     0.36955   0.44119   0.14792   0.00000  Uiso   1.00
C606   C     0.39587   0.48564   0.13825   0.00000  Uiso   1.00
C607   C     0.44697   0.55417   0.15213   0.00000  Uiso   1.00
C608   C     0.31934   0.35280   0.00502   0.00000  Uiso   1.00
C609   C     0.33623   0.30373   0.00037   0.00000  Uiso   1.00
C610   C     0.34732   0.28531   0.92321   0.00000  Uiso   1.00
C611   C     0.37030   0.23790   0.81265   0.00000  Uiso   1.00
C612   C     0.29476   0.43498   0.95435   0.00000  Uiso   1.00
C613   C     0.24580   0.42803   0.00091   0.00000  Uiso   1.00
C614   C     0.19974   0.44804   0.97908   0.00000  Uiso   1.00
C615   C     0.15945   0.43735   0.02972   0.00000  Uiso   1.00
C616   C     0.33183   0.45710   0.01526   0.00000  Uiso   1.00
C617   C     0.35811   0.50153   0.00549   0.00000  Uiso   1.00
C618   C     0.39024   0.51532   0.06820   0.00000  Uiso   1.00
C619   C     0.31372   0.38242   0.93510   0.00000  Uiso   1.00
C620   C     0.32479   0.36408   0.85794   0.00000  Uiso   1.00
C621   C     0.34169   0.31499   0.85317   0.00000  Uiso   1.00
H622   H     0.30947   0.35737   0.13752   0.00000  Uiso   1.00
H623   H     0.21555   0.36477   0.17562   0.00000  Uiso   1.00
H624   H     0.37389   0.41825   0.20202   0.00000  Uiso   1.00
H625   H     0.34057   0.28082   0.05449   0.00000  Uiso   1.00
H626   H     0.10894   0.38605   0.18705   0.00000  Uiso   1.00
H627   H     0.44284   0.49882   0.24269   0.00000  Uiso   1.00
H628   H     0.37258   0.20901   0.93160   0.00000  Uiso   1.00
H629   H     0.29038   0.45804   0.89991   0.00000  Uiso   1.00
H630   H     0.19541   0.47096   0.92497   0.00000  Uiso   1.00
H631   H     0.35376   0.52445   0.95137   0.00000  Uiso   1.00
H632   H     0.32044   0.38702   0.80384   0.00000  Uiso   1.00
H633   H     0.09260   0.47224   0.98361   0.00000  Uiso   1.00
H634   H     0.42650   0.58501   0.03925   0.00000  Uiso   1.00
H635   H     0.35623   0.29521   0.72817   0.00000  Uiso   1.00
O636   O     0.03864   0.43584   0.10612   0.00000  Uiso   1.00
O637   O     0.47671   0.58378   0.17911   0.00000  Uiso   1.00
O638   O     0.38452   0.20357   0.77097   0.00000  Uiso   1.00
N639   N     0.11813   0.40455   0.13572   0.00000  Uiso   1.00
N640   N     0.43029   0.50999   0.18775   0.00000  Uiso   1.00
N641   N     0.36462   0.23905   0.89691   0.00000  Uiso   1.00
N642   N     0.10933   0.45093   0.02625   0.00000  Uiso   1.00
N643   N     0.42150   0.55637   0.07828   0.00000  Uiso   1.00
N644   N     0.35582   0.28543   0.78744   0.00000  Uiso   1.00
C645   C     0.69490   0.61957   0.08308   0.00000  Uiso   1.00
C646   C     0.74858   0.60159   0.07083   0.00000  Uiso   1.00
C647   C     0.78882   0.61231   0.12151   0.00000  Uiso   1.00
C648   C     0.83492   0.59233   0.09977   0.00000  Uiso   1.00
C649   C     0.91741   0.56890   0.09141   0.00000  Uiso   1.00
C650   C     0.66255   0.57253   0.08518   0.00000  Uiso   1.00
C651   C     0.63045   0.55881   0.14792   0.00000  Uiso   1.00
C652   C     0.60413   0.51436   0.13825   0.00000  Uiso   1.00
C653   C     0.55303   0.44583   0.15213   0.00000  Uiso   1.00
C654   C     0.68066   0.64720   0.00502   0.00000  Uiso   1.00
C655   C     0.66377   0.69627   0.00037   0.00000  Uiso   1.00
C656   C     0.65268   0.71469   0.92321   0.00000  Uiso   1.00
C657   C     0.62970   0.76210   0.81265   0.00000  Uiso   1.00
C658   C     0.70524   0.56502   0.95435   0.00000  Uiso   1.00
C659   C     0.75420   0.57197   0.00091   0.00000  Uiso   1.00
C660   C     0.80026   0.55196   0.97908   0.00000  Uiso   1.00
C661   C     0.84055   0.56265   0.02972   0.00000  Uiso   1.00
C662   C     0.66817   0.54290   0.01526   0.00000  Uiso   1.00
C663   C     0.64189   0.49847   0.00549   0.00000  Uiso   1.00
C664   C     0.60976   0.48468   0.06820   0.00000  Uiso   1.00
C665   C     0.68628   0.61758   0.93510   0.00000  Uiso   1.00
C666   C     0.67521   0.63592   0.85794   0.00000  Uiso   1.00
C667   C     0.65831   0.68501   0.85317   0.00000  Uiso   1.00
H668   H     0.69053   0.64263   0.13752   0.00000  Uiso   1.00
H669   H     0.78445   0.63523   0.17562   0.00000  Uiso   1.00
H670   H     0.62611   0.58175   0.20202   0.00000  Uiso   1.00
H671   H     0.65943   0.71918   0.05449   0.00000  Uiso   1.00
H672   H     0.89106   0.61395   0.18705   0.00000  Uiso   1.00
H673   H     0.55716   0.50118   0.24269   0.00000  Uiso   1.00
H674   H     0.62742   0.79099   0.93160   0.00000  Uiso   1.00
H675   H     0.70962   0.54196   0.89991   0.00000  Uiso   1.00
H676   H     0.80459   0.52904   0.92497   0.00000  Uiso   1.00
H677   H     0.64624   0.47555   0.95137   0.00000  Uiso   1.00
H678   H     0.67956   0.61298   0.80384   0.00000  Uiso   1.00
H679   H     0.90740   0.52776   0.98361   0.00000  Uiso   1.00
H680   H     0.57350   0.41499   0.03925   0.00000  Uiso   1.00
H681   H     0.64377   0.70479   0.72817   0.00000  Uiso   1.00
O682   O     0.96136   0.56416   0.10612   0.00000  Uiso   1.00
O683   O     0.52329   0.41622   0.17911   0.00000  Uiso   1.00
O684   O     0.61548   0.79643   0.77097   0.00000  Uiso   1.00
N685   N     0.88187   0.59545   0.13572   0.00000  Uiso   1.00
N686   N     0.56971   0.49001   0.18775   0.00000  Uiso   1.00
N687   N     0.63538   0.76095   0.89691   0.00000  Uiso   1.00
N688   N     0.89067   0.54907   0.02625   0.00000  Uiso   1.00
N689   N     0.57850   0.44363   0.07828   0.00000  Uiso   1.00
N690   N     0.64418   0.71457   0.78744   0.00000  Uiso   1.00
C691   C     0.19490   0.11957   0.58308   0.00000  Uiso   1.00
C692   C     0.24858   0.10159   0.57083   0.00000  Uiso   1.00
C693   C     0.28882   0.11231   0.62151   0.00000  Uiso   1.00
C694   C     0.33492   0.09233   0.59977   0.00000  Uiso   1.00
C695   C     0.41741   0.06890   0.59141   0.00000  Uiso   1.00
C696   C     0.16255   0.07253   0.58518   0.00000  Uiso   1.00
C697   C     0.13045   0.05881   0.64792   0.00000  Uiso   1.00
C698   C     0.10413   0.01436   0.63825   0.00000  Uiso   1.00
C699   C     0.05303   0.94583   0.65213   0.00000  Uiso   1.00
C700   C     0.18066   0.14720   0.50502   0.00000  Uiso   1.00
C701   C     0.16377   0.19627   0.50037   0.00000  Uiso   1.00
C702   C     0.15268   0.21469   0.42321   0.00000  Uiso   1.00
C703   C     0.12970   0.26210   0.31265   0.00000  Uiso   1.00
C704   C     0.20524   0.06502   0.45435   0.00000  Uiso   1.00
C705   C     0.25420   0.07197   0.50091   0.00000  Uiso   1.00
C706   C     0.30026   0.05196   0.47908   0.00000  Uiso   1.00
C707   C     0.34055   0.06265   0.52972   0.00000  Uiso   1.00
C708   C     0.16817   0.04290   0.51526   0.00000  Uiso   1.00
C709   C     0.14189   0.99847   0.50549   0.00000  Uiso   1.00
C710   C     0.10976   0.98468   0.56820   0.00000  Uiso   1.00
C711   C     0.18628   0.11758   0.43510   0.00000  Uiso   1.00
C712   C     0.17521   0.13592   0.35794   0.00000  Uiso   1.00
C713   C     0.15831   0.18501   0.35317   0.00000  Uiso   1.00
H714   H     0.19053   0.14263   0.63752   0.00000  Uiso   1.00
H715   H     0.28445   0.13523   0.67562   0.00000  Uiso   1.00
H716   H     0.12611   0.08175   0.70202   0.00000  Uiso   1.00
H717   H     0.15943   0.21918   0.55449   0.00000  Uiso   1.00
H718   H     0.39106   0.11395   0.68705   0.00000  Uiso   1.00
H719   H     0.05716   0.00118   0.74269   0.00000  Uiso   1.00
H720   H     0.12742   0.29099   0.43160   0.00000  Uiso   1.00
H721   H     0.20962   0.04196   0.39991   0.00000  Uiso   1.00
H722   H     0.30459   0.02904   0.42497   0.00000  Uiso   1.00
H723   H     0.14624   0.97555   0.45137   0.00000  Uiso   1.00
H724   H     0.17956   0.11298   0.30384   0.00000  Uiso   1.00
H725   H     0.40740   0.02776   0.48361   0.00000  Uiso   1.00
H726   H     0.07350   0.91499   0.53925   0.00000  Uiso   1.00
H727   H     0.14377   0.20479   0.22817   0.00000  Uiso   1.00
O728   O     0.46136   0.06416   0.60612   0.00000  Uiso   1.00
O729   O     0.02329   0.91622   0.67911   0.00000  Uiso   1.00
O730   O     0.11548   0.29643   0.27097   0.00000  Uiso   1.00
N731   N     0.38187   0.09545   0.63572   0.00000  Uiso   1.00
N732   N     0.06971   0.99001   0.68775   0.00000  Uiso   1.00
N733   N     0.13538   0.26095   0.39691   0.00000  Uiso   1.00
N734   N     0.39067   0.04907   0.52625   0.00000  Uiso   1.00
N735   N     0.07850   0.94363   0.57828   0.00000  Uiso   1.00
N736   N     0.14418   0.21457   0.28744   0.00000  Uiso   1.00
