data_job_04129
_audit_creation_date              2018-12-19
_audit_creation_method            'Materials Studio'
_symmetry_space_group_name_H-M    'P1'
_symmetry_Int_Tables_number       1
_symmetry_cell_setting            triclinic
loop_
_symmetry_equiv_pos_as_xyz
  x,y,z
_cell_length_a                    26.6168
_cell_length_b                    26.6168
_cell_length_c                    14.8635
_cell_angle_alpha                 90.0000
_cell_angle_beta                  90.0000
_cell_angle_gamma                 90.0000
loop_
_atom_site_label
_atom_site_type_symbol
_atom_site_fract_x
_atom_site_fract_y
_atom_site_fract_z
_atom_site_U_iso_or_equiv
_atom_site_adp_type
_atom_site_occupancy
C1     C     0.29505   0.11182   0.70049   0.00000  Uiso   1.00
C2     C     0.26231   0.08538   0.77012   0.00000  Uiso   1.00
C3     C     0.21080   0.07810   0.76394   0.00000  Uiso   1.00
C4     C     0.18774   0.05305   0.83471   0.00000  Uiso   1.00
C5     C     0.13272   0.01463   0.93156   0.00000  Uiso   1.00
C6     C     0.32169   0.15417   0.75046   0.00000  Uiso   1.00
C7     C     0.32011   0.20472   0.72774   0.00000  Uiso   1.00
C8     C     0.34704   0.23758   0.78195   0.00000  Uiso   1.00
C9     C     0.38424   0.30595   0.84824   0.00000  Uiso   1.00
C10    C     0.33585   0.07430   0.67454   0.00000  Uiso   1.00
C11    C     0.34617   0.05770   0.58798   0.00000  Uiso   1.00
C12    C     0.38503   0.02331   0.57827   0.00000  Uiso   1.00
C13    C     0.44420   0.96767   0.52668   0.00000  Uiso   1.00
C14    C     0.34569   0.08029   0.83715   0.00000  Uiso   1.00
C15    C     0.28982   0.06826   0.84435   0.00000  Uiso   1.00
C16    C     0.26683   0.04321   0.91514   0.00000  Uiso   1.00
C17    C     0.21530   0.03589   0.90907   0.00000  Uiso   1.00
C18    C     0.34920   0.13705   0.82469   0.00000  Uiso   1.00
C19    C     0.37614   0.16984   0.87894   0.00000  Uiso   1.00
C20    C     0.37460   0.22042   0.85631   0.00000  Uiso   1.00
C21    C     0.36335   0.05717   0.74877   0.00000  Uiso   1.00
C22    C     0.40220   0.02281   0.73919   0.00000  Uiso   1.00
C23    C     0.41258   0.00616   0.65263   0.00000  Uiso   1.00
H24    H     0.27363   0.12516   0.64270   0.00000  Uiso   1.00
H25    H     0.18953   0.09137   0.70649   0.00000  Uiso   1.00
H26    H     0.29882   0.21796   0.67029   0.00000  Uiso   1.00
H27    H     0.32488   0.07096   0.53056   0.00000  Uiso   1.00
H28    H     0.10841   0.04636   0.80996   0.00000  Uiso   1.00
H29    H     0.33887   0.31330   0.73361   0.00000  Uiso   1.00
H30    H     0.39382   0.00332   0.43895   0.00000  Uiso   1.00
H31    H     0.36711   0.06695   0.89494   0.00000  Uiso   1.00
H32    H     0.28813   0.02996   0.97258   0.00000  Uiso   1.00
H33    H     0.39743   0.15657   0.93638   0.00000  Uiso   1.00
H34    H     0.42348   0.00956   0.79664   0.00000  Uiso   1.00
H35    H     0.18844   0.99653   0.02593   0.00000  Uiso   1.00
H36    H     0.41891   0.26347   0.94958   0.00000  Uiso   1.00
H37    H     0.47385   0.95349   0.65493   0.00000  Uiso   1.00
O38    O     0.09478   0.99818   0.96448   0.00000  Uiso   1.00
O39    O     0.39715   0.34839   0.86430   0.00000  Uiso   1.00
O40    O     0.46923   0.94170   0.47772   0.00000  Uiso   1.00
N41    N     0.13808   0.03970   0.85013   0.00000  Uiso   1.00
N42    N     0.35355   0.28928   0.77876   0.00000  Uiso   1.00
N43    N     0.40493   0.99948   0.50327   0.00000  Uiso   1.00
N44    N     0.18115   0.01289   0.96634   0.00000  Uiso   1.00
N45    N     0.39661   0.26246   0.89497   0.00000  Uiso   1.00
N46    N     0.44799   0.97266   0.61948   0.00000  Uiso   1.00
C47    C     0.79505   0.61182   0.20049   0.00000  Uiso   1.00
C48    C     0.76231   0.58538   0.27012   0.00000  Uiso   1.00
C49    C     0.71080   0.57810   0.26394   0.00000  Uiso   1.00
C50    C     0.68774   0.55305   0.33471   0.00000  Uiso   1.00
C51    C     0.63272   0.51463   0.43156   0.00000  Uiso   1.00
C52    C     0.82169   0.65417   0.25046   0.00000  Uiso   1.00
C53    C     0.82011   0.70472   0.22774   0.00000  Uiso   1.00
C54    C     0.84704   0.73758   0.28195   0.00000  Uiso   1.00
C55    C     0.88424   0.80595   0.34824   0.00000  Uiso   1.00
C56    C     0.83585   0.57430   0.17454   0.00000  Uiso   1.00
C57    C     0.84617   0.55770   0.08798   0.00000  Uiso   1.00
C58    C     0.88503   0.52331   0.07827   0.00000  Uiso   1.00
C59    C     0.94420   0.46767   0.02668   0.00000  Uiso   1.00
C60    C     0.84569   0.58029   0.33715   0.00000  Uiso   1.00
C61    C     0.78982   0.56826   0.34435   0.00000  Uiso   1.00
C62    C     0.76683   0.54321   0.41514   0.00000  Uiso   1.00
C63    C     0.71530   0.53589   0.40907   0.00000  Uiso   1.00
C64    C     0.84920   0.63705   0.32469   0.00000  Uiso   1.00
C65    C     0.87614   0.66984   0.37894   0.00000  Uiso   1.00
C66    C     0.87460   0.72042   0.35631   0.00000  Uiso   1.00
C67    C     0.86335   0.55717   0.24877   0.00000  Uiso   1.00
C68    C     0.90220   0.52281   0.23919   0.00000  Uiso   1.00
C69    C     0.91258   0.50616   0.15263   0.00000  Uiso   1.00
H70    H     0.77363   0.62516   0.14270   0.00000  Uiso   1.00
H71    H     0.68953   0.59137   0.20649   0.00000  Uiso   1.00
H72    H     0.79882   0.71796   0.17029   0.00000  Uiso   1.00
H73    H     0.82488   0.57096   0.03056   0.00000  Uiso   1.00
H74    H     0.60841   0.54636   0.30996   0.00000  Uiso   1.00
H75    H     0.83887   0.81330   0.23361   0.00000  Uiso   1.00
H76    H     0.89382   0.50332   0.93895   0.00000  Uiso   1.00
H77    H     0.86711   0.56695   0.39494   0.00000  Uiso   1.00
H78    H     0.78813   0.52996   0.47258   0.00000  Uiso   1.00
H79    H     0.89743   0.65657   0.43638   0.00000  Uiso   1.00
H80    H     0.92348   0.50956   0.29664   0.00000  Uiso   1.00
H81    H     0.68844   0.49653   0.52593   0.00000  Uiso   1.00
H82    H     0.91891   0.76347   0.44958   0.00000  Uiso   1.00
H83    H     0.97385   0.45349   0.15493   0.00000  Uiso   1.00
O84    O     0.59478   0.49818   0.46448   0.00000  Uiso   1.00
O85    O     0.89715   0.84839   0.36430   0.00000  Uiso   1.00
O86    O     0.96923   0.44170   0.97772   0.00000  Uiso   1.00
N87    N     0.63808   0.53970   0.35013   0.00000  Uiso   1.00
N88    N     0.85355   0.78928   0.27876   0.00000  Uiso   1.00
N89    N     0.90493   0.49948   0.00327   0.00000  Uiso   1.00
N90    N     0.68115   0.51289   0.46634   0.00000  Uiso   1.00
N91    N     0.89661   0.76246   0.39497   0.00000  Uiso   1.00
N92    N     0.94799   0.47266   0.11948   0.00000  Uiso   1.00
C93    C     0.20495   0.38818   0.20049   0.00000  Uiso   1.00
C94    C     0.23769   0.41462   0.27012   0.00000  Uiso   1.00
C95    C     0.28920   0.42190   0.26394   0.00000  Uiso   1.00
C96    C     0.31226   0.44695   0.33471   0.00000  Uiso   1.00
C97    C     0.36728   0.48537   0.43156   0.00000  Uiso   1.00
C98    C     0.17831   0.34583   0.25046   0.00000  Uiso   1.00
C99    C     0.17989   0.29528   0.22774   0.00000  Uiso   1.00
C100   C     0.15296   0.26242   0.28195   0.00000  Uiso   1.00
C101   C     0.11576   0.19405   0.34824   0.00000  Uiso   1.00
C102   C     0.16415   0.42570   0.17454   0.00000  Uiso   1.00
C103   C     0.15383   0.44230   0.08798   0.00000  Uiso   1.00
C104   C     0.11497   0.47669   0.07827   0.00000  Uiso   1.00
C105   C     0.05580   0.53233   0.02668   0.00000  Uiso   1.00
C106   C     0.15431   0.41971   0.33715   0.00000  Uiso   1.00
C107   C     0.21018   0.43174   0.34435   0.00000  Uiso   1.00
C108   C     0.23317   0.45679   0.41514   0.00000  Uiso   1.00
C109   C     0.28470   0.46411   0.40907   0.00000  Uiso   1.00
C110   C     0.15080   0.36295   0.32469   0.00000  Uiso   1.00
C111   C     0.12386   0.33016   0.37894   0.00000  Uiso   1.00
C112   C     0.12540   0.27958   0.35631   0.00000  Uiso   1.00
C113   C     0.13665   0.44283   0.24877   0.00000  Uiso   1.00
C114   C     0.09780   0.47719   0.23919   0.00000  Uiso   1.00
C115   C     0.08742   0.49384   0.15263   0.00000  Uiso   1.00
H116   H     0.22637   0.37484   0.14270   0.00000  Uiso   1.00
H117   H     0.31047   0.40863   0.20649   0.00000  Uiso   1.00
H118   H     0.20118   0.28204   0.17029   0.00000  Uiso   1.00
H119   H     0.17512   0.42904   0.03056   0.00000  Uiso   1.00
H120   H     0.39159   0.45364   0.30996   0.00000  Uiso   1.00
H121   H     0.16113   0.18670   0.23361   0.00000  Uiso   1.00
H122   H     0.10618   0.49668   0.93895   0.00000  Uiso   1.00
H123   H     0.13289   0.43305   0.39494   0.00000  Uiso   1.00
H124   H     0.21187   0.47004   0.47258   0.00000  Uiso   1.00
H125   H     0.10257   0.34343   0.43638   0.00000  Uiso   1.00
H126   H     0.07652   0.49044   0.29664   0.00000  Uiso   1.00
H127   H     0.31156   0.50347   0.52593   0.00000  Uiso   1.00
H128   H     0.08109   0.23653   0.44958   0.00000  Uiso   1.00
H129   H     0.02615   0.54651   0.15493   0.00000  Uiso   1.00
O130   O     0.40522   0.50182   0.46448   0.00000  Uiso   1.00
O131   O     0.10285   0.15161   0.36430   0.00000  Uiso   1.00
O132   O     0.03077   0.55830   0.97772   0.00000  Uiso   1.00
N133   N     0.36192   0.46030   0.35013   0.00000  Uiso   1.00
N134   N     0.14645   0.21072   0.27876   0.00000  Uiso   1.00
N135   N     0.09507   0.50052   0.00327   0.00000  Uiso   1.00
N136   N     0.31885   0.48711   0.46634   0.00000  Uiso   1.00
N137   N     0.10339   0.23754   0.39497   0.00000  Uiso   1.00
N138   N     0.05201   0.52734   0.11948   0.00000  Uiso   1.00
C139   C     0.70495   0.88818   0.70049   0.00000  Uiso   1.00
C140   C     0.73769   0.91462   0.77012   0.00000  Uiso   1.00
C141   C     0.78920   0.92190   0.76394   0.00000  Uiso   1.00
C142   C     0.81226   0.94695   0.83471   0.00000  Uiso   1.00
C143   C     0.86728   0.98537   0.93156   0.00000  Uiso   1.00
C144   C     0.67831   0.84583   0.75046   0.00000  Uiso   1.00
C145   C     0.67989   0.79528   0.72774   0.00000  Uiso   1.00
C146   C     0.65296   0.76242   0.78195   0.00000  Uiso   1.00
C147   C     0.61576   0.69405   0.84824   0.00000  Uiso   1.00
C148   C     0.66415   0.92570   0.67454   0.00000  Uiso   1.00
C149   C     0.65383   0.94230   0.58798   0.00000  Uiso   1.00
C150   C     0.61497   0.97669   0.57827   0.00000  Uiso   1.00
C151   C     0.55580   0.03233   0.52668   0.00000  Uiso   1.00
C152   C     0.65431   0.91971   0.83715   0.00000  Uiso   1.00
C153   C     0.71018   0.93174   0.84435   0.00000  Uiso   1.00
C154   C     0.73317   0.95679   0.91514   0.00000  Uiso   1.00
C155   C     0.78470   0.96411   0.90907   0.00000  Uiso   1.00
C156   C     0.65080   0.86295   0.82469   0.00000  Uiso   1.00
C157   C     0.62386   0.83016   0.87894   0.00000  Uiso   1.00
C158   C     0.62540   0.77958   0.85631   0.00000  Uiso   1.00
C159   C     0.63665   0.94283   0.74877   0.00000  Uiso   1.00
C160   C     0.59780   0.97719   0.73919   0.00000  Uiso   1.00
C161   C     0.58742   0.99384   0.65263   0.00000  Uiso   1.00
H162   H     0.72637   0.87484   0.64270   0.00000  Uiso   1.00
H163   H     0.81047   0.90863   0.70649   0.00000  Uiso   1.00
H164   H     0.70118   0.78204   0.67029   0.00000  Uiso   1.00
H165   H     0.67512   0.92904   0.53056   0.00000  Uiso   1.00
H166   H     0.89159   0.95364   0.80996   0.00000  Uiso   1.00
H167   H     0.66113   0.68670   0.73361   0.00000  Uiso   1.00
H168   H     0.60618   0.99668   0.43895   0.00000  Uiso   1.00
H169   H     0.63289   0.93305   0.89494   0.00000  Uiso   1.00
H170   H     0.71187   0.97004   0.97258   0.00000  Uiso   1.00
H171   H     0.60257   0.84343   0.93638   0.00000  Uiso   1.00
H172   H     0.57652   0.99044   0.79664   0.00000  Uiso   1.00
H173   H     0.81156   0.00347   0.02593   0.00000  Uiso   1.00
H174   H     0.58109   0.73653   0.94958   0.00000  Uiso   1.00
H175   H     0.52615   0.04651   0.65493   0.00000  Uiso   1.00
O176   O     0.90522   0.00182   0.96448   0.00000  Uiso   1.00
O177   O     0.60285   0.65161   0.86430   0.00000  Uiso   1.00
O178   O     0.53077   0.05830   0.47772   0.00000  Uiso   1.00
N179   N     0.86192   0.96030   0.85013   0.00000  Uiso   1.00
N180   N     0.64645   0.71072   0.77876   0.00000  Uiso   1.00
N181   N     0.59507   0.00052   0.50327   0.00000  Uiso   1.00
N182   N     0.81885   0.98711   0.96634   0.00000  Uiso   1.00
N183   N     0.60339   0.73754   0.89497   0.00000  Uiso   1.00
N184   N     0.55201   0.02734   0.61948   0.00000  Uiso   1.00
C185   C     0.88818   0.79505   0.95049   0.00000  Uiso   1.00
C186   C     0.91462   0.76231   0.02012   0.00000  Uiso   1.00
C187   C     0.92190   0.71080   0.01394   0.00000  Uiso   1.00
C188   C     0.94695   0.68774   0.08471   0.00000  Uiso   1.00
C189   C     0.98537   0.63272   0.18156   0.00000  Uiso   1.00
C190   C     0.84583   0.82169   0.00046   0.00000  Uiso   1.00
C191   C     0.79528   0.82011   0.97774   0.00000  Uiso   1.00
C192   C     0.76242   0.84704   0.03195   0.00000  Uiso   1.00
C193   C     0.69405   0.88424   0.09824   0.00000  Uiso   1.00
C194   C     0.92570   0.83585   0.92454   0.00000  Uiso   1.00
C195   C     0.94230   0.84617   0.83798   0.00000  Uiso   1.00
C196   C     0.97669   0.88503   0.82827   0.00000  Uiso   1.00
C197   C     0.03233   0.94420   0.77668   0.00000  Uiso   1.00
C198   C     0.91971   0.84569   0.08715   0.00000  Uiso   1.00
C199   C     0.93174   0.78982   0.09435   0.00000  Uiso   1.00
C200   C     0.95679   0.76683   0.16514   0.00000  Uiso   1.00
C201   C     0.96411   0.71530   0.15907   0.00000  Uiso   1.00
C202   C     0.86295   0.84920   0.07469   0.00000  Uiso   1.00
C203   C     0.83016   0.87614   0.12894   0.00000  Uiso   1.00
C204   C     0.77958   0.87460   0.10631   0.00000  Uiso   1.00
C205   C     0.94283   0.86335   0.99877   0.00000  Uiso   1.00
C206   C     0.97719   0.90220   0.98919   0.00000  Uiso   1.00
C207   C     0.99384   0.91258   0.90263   0.00000  Uiso   1.00
H208   H     0.87484   0.77363   0.89270   0.00000  Uiso   1.00
H209   H     0.90863   0.68953   0.95649   0.00000  Uiso   1.00
H210   H     0.78204   0.79882   0.92029   0.00000  Uiso   1.00
H211   H     0.92904   0.82488   0.78056   0.00000  Uiso   1.00
H212   H     0.95364   0.60841   0.05996   0.00000  Uiso   1.00
H213   H     0.68670   0.83887   0.98361   0.00000  Uiso   1.00
H214   H     0.99668   0.89382   0.68895   0.00000  Uiso   1.00
H215   H     0.93305   0.86711   0.14494   0.00000  Uiso   1.00
H216   H     0.97004   0.78813   0.22258   0.00000  Uiso   1.00
H217   H     0.84343   0.89743   0.18638   0.00000  Uiso   1.00
H218   H     0.99044   0.92348   0.04664   0.00000  Uiso   1.00
H219   H     0.00347   0.68844   0.27593   0.00000  Uiso   1.00
H220   H     0.73653   0.91891   0.19958   0.00000  Uiso   1.00
H221   H     0.04651   0.97385   0.90493   0.00000  Uiso   1.00
O222   O     0.00182   0.59478   0.21448   0.00000  Uiso   1.00
O223   O     0.65161   0.89715   0.11430   0.00000  Uiso   1.00
O224   O     0.05830   0.96923   0.72772   0.00000  Uiso   1.00
N225   N     0.96030   0.63808   0.10013   0.00000  Uiso   1.00
N226   N     0.71072   0.85355   0.02876   0.00000  Uiso   1.00
N227   N     0.00052   0.90493   0.75327   0.00000  Uiso   1.00
N228   N     0.98711   0.68115   0.21634   0.00000  Uiso   1.00
N229   N     0.73754   0.89661   0.14497   0.00000  Uiso   1.00
N230   N     0.02734   0.94799   0.86948   0.00000  Uiso   1.00
C231   C     0.38818   0.29505   0.45049   0.00000  Uiso   1.00
C232   C     0.41462   0.26231   0.52012   0.00000  Uiso   1.00
C233   C     0.42190   0.21080   0.51394   0.00000  Uiso   1.00
C234   C     0.44695   0.18774   0.58471   0.00000  Uiso   1.00
C235   C     0.48537   0.13272   0.68156   0.00000  Uiso   1.00
C236   C     0.34583   0.32169   0.50046   0.00000  Uiso   1.00
C237   C     0.29528   0.32011   0.47774   0.00000  Uiso   1.00
C238   C     0.26242   0.34704   0.53195   0.00000  Uiso   1.00
C239   C     0.19405   0.38424   0.59824   0.00000  Uiso   1.00
C240   C     0.42570   0.33585   0.42454   0.00000  Uiso   1.00
C241   C     0.44230   0.34617   0.33798   0.00000  Uiso   1.00
C242   C     0.47669   0.38503   0.32827   0.00000  Uiso   1.00
C243   C     0.53233   0.44420   0.27668   0.00000  Uiso   1.00
C244   C     0.41971   0.34569   0.58715   0.00000  Uiso   1.00
C245   C     0.43174   0.28982   0.59435   0.00000  Uiso   1.00
C246   C     0.45679   0.26683   0.66514   0.00000  Uiso   1.00
C247   C     0.46411   0.21530   0.65907   0.00000  Uiso   1.00
C248   C     0.36295   0.34920   0.57469   0.00000  Uiso   1.00
C249   C     0.33016   0.37614   0.62894   0.00000  Uiso   1.00
C250   C     0.27958   0.37460   0.60631   0.00000  Uiso   1.00
C251   C     0.44283   0.36335   0.49877   0.00000  Uiso   1.00
C252   C     0.47719   0.40220   0.48919   0.00000  Uiso   1.00
C253   C     0.49384   0.41258   0.40263   0.00000  Uiso   1.00
H254   H     0.37484   0.27363   0.39270   0.00000  Uiso   1.00
H255   H     0.40863   0.18953   0.45649   0.00000  Uiso   1.00
H256   H     0.28204   0.29882   0.42029   0.00000  Uiso   1.00
H257   H     0.42904   0.32488   0.28056   0.00000  Uiso   1.00
H258   H     0.45364   0.10841   0.55996   0.00000  Uiso   1.00
H259   H     0.18670   0.33887   0.48361   0.00000  Uiso   1.00
H260   H     0.49668   0.39382   0.18895   0.00000  Uiso   1.00
H261   H     0.43305   0.36711   0.64494   0.00000  Uiso   1.00
H262   H     0.47004   0.28813   0.72258   0.00000  Uiso   1.00
H263   H     0.34343   0.39743   0.68638   0.00000  Uiso   1.00
H264   H     0.49044   0.42348   0.54664   0.00000  Uiso   1.00
H265   H     0.50347   0.18844   0.77593   0.00000  Uiso   1.00
H266   H     0.23653   0.41891   0.69958   0.00000  Uiso   1.00
H267   H     0.54651   0.47385   0.40493   0.00000  Uiso   1.00
O268   O     0.50182   0.09478   0.71448   0.00000  Uiso   1.00
O269   O     0.15161   0.39715   0.61430   0.00000  Uiso   1.00
O270   O     0.55830   0.46923   0.22772   0.00000  Uiso   1.00
N271   N     0.46030   0.13808   0.60013   0.00000  Uiso   1.00
N272   N     0.21072   0.35355   0.52876   0.00000  Uiso   1.00
N273   N     0.50052   0.40493   0.25327   0.00000  Uiso   1.00
N274   N     0.48711   0.18115   0.71634   0.00000  Uiso   1.00
N275   N     0.23754   0.39661   0.64497   0.00000  Uiso   1.00
N276   N     0.52734   0.44799   0.36948   0.00000  Uiso   1.00
C277   C     0.61182   0.70495   0.45049   0.00000  Uiso   1.00
C278   C     0.58538   0.73769   0.52012   0.00000  Uiso   1.00
C279   C     0.57810   0.78920   0.51394   0.00000  Uiso   1.00
C280   C     0.55305   0.81226   0.58471   0.00000  Uiso   1.00
C281   C     0.51463   0.86728   0.68156   0.00000  Uiso   1.00
C282   C     0.65417   0.67831   0.50046   0.00000  Uiso   1.00
C283   C     0.70472   0.67989   0.47774   0.00000  Uiso   1.00
C284   C     0.73758   0.65296   0.53195   0.00000  Uiso   1.00
C285   C     0.80595   0.61576   0.59824   0.00000  Uiso   1.00
C286   C     0.57430   0.66415   0.42454   0.00000  Uiso   1.00
C287   C     0.55770   0.65383   0.33798   0.00000  Uiso   1.00
C288   C     0.52331   0.61497   0.32827   0.00000  Uiso   1.00
C289   C     0.46767   0.55580   0.27668   0.00000  Uiso   1.00
C290   C     0.58029   0.65431   0.58715   0.00000  Uiso   1.00
C291   C     0.56826   0.71018   0.59435   0.00000  Uiso   1.00
C292   C     0.54321   0.73317   0.66514   0.00000  Uiso   1.00
C293   C     0.53589   0.78470   0.65907   0.00000  Uiso   1.00
C294   C     0.63705   0.65080   0.57469   0.00000  Uiso   1.00
C295   C     0.66984   0.62386   0.62894   0.00000  Uiso   1.00
C296   C     0.72042   0.62540   0.60631   0.00000  Uiso   1.00
C297   C     0.55717   0.63665   0.49877   0.00000  Uiso   1.00
C298   C     0.52281   0.59780   0.48919   0.00000  Uiso   1.00
C299   C     0.50616   0.58742   0.40263   0.00000  Uiso   1.00
H300   H     0.62516   0.72637   0.39270   0.00000  Uiso   1.00
H301   H     0.59137   0.81047   0.45649   0.00000  Uiso   1.00
H302   H     0.71796   0.70118   0.42029   0.00000  Uiso   1.00
H303   H     0.57096   0.67512   0.28056   0.00000  Uiso   1.00
H304   H     0.54636   0.89159   0.55996   0.00000  Uiso   1.00
H305   H     0.81330   0.66113   0.48361   0.00000  Uiso   1.00
H306   H     0.50332   0.60618   0.18895   0.00000  Uiso   1.00
H307   H     0.56695   0.63289   0.64494   0.00000  Uiso   1.00
H308   H     0.52996   0.71187   0.72258   0.00000  Uiso   1.00
H309   H     0.65657   0.60257   0.68638   0.00000  Uiso   1.00
H310   H     0.50956   0.57652   0.54664   0.00000  Uiso   1.00
H311   H     0.49653   0.81156   0.77593   0.00000  Uiso   1.00
H312   H     0.76347   0.58109   0.69958   0.00000  Uiso   1.00
H313   H     0.45349   0.52615   0.40493   0.00000  Uiso   1.00
O314   O     0.49818   0.90522   0.71448   0.00000  Uiso   1.00
O315   O     0.84839   0.60285   0.61430   0.00000  Uiso   1.00
O316   O     0.44170   0.53077   0.22772   0.00000  Uiso   1.00
N317   N     0.53970   0.86192   0.60013   0.00000  Uiso   1.00
N318   N     0.78928   0.64645   0.52876   0.00000  Uiso   1.00
N319   N     0.49948   0.59507   0.25327   0.00000  Uiso   1.00
N320   N     0.51289   0.81885   0.71634   0.00000  Uiso   1.00
N321   N     0.76246   0.60339   0.64497   0.00000  Uiso   1.00
N322   N     0.47266   0.55201   0.36948   0.00000  Uiso   1.00
C323   C     0.11182   0.20495   0.95049   0.00000  Uiso   1.00
C324   C     0.08538   0.23769   0.02012   0.00000  Uiso   1.00
C325   C     0.07810   0.28920   0.01394   0.00000  Uiso   1.00
C326   C     0.05305   0.31226   0.08471   0.00000  Uiso   1.00
C327   C     0.01463   0.36728   0.18156   0.00000  Uiso   1.00
C328   C     0.15417   0.17831   0.00046   0.00000  Uiso   1.00
C329   C     0.20472   0.17989   0.97774   0.00000  Uiso   1.00
C330   C     0.23758   0.15296   0.03195   0.00000  Uiso   1.00
C331   C     0.30595   0.11576   0.09824   0.00000  Uiso   1.00
C332   C     0.07430   0.16415   0.92454   0.00000  Uiso   1.00
C333   C     0.05770   0.15383   0.83798   0.00000  Uiso   1.00
C334   C     0.02331   0.11497   0.82827   0.00000  Uiso   1.00
C335   C     0.96767   0.05580   0.77668   0.00000  Uiso   1.00
C336   C     0.08029   0.15431   0.08715   0.00000  Uiso   1.00
C337   C     0.06826   0.21018   0.09435   0.00000  Uiso   1.00
C338   C     0.04321   0.23317   0.16514   0.00000  Uiso   1.00
C339   C     0.03589   0.28470   0.15907   0.00000  Uiso   1.00
C340   C     0.13705   0.15080   0.07469   0.00000  Uiso   1.00
C341   C     0.16984   0.12386   0.12894   0.00000  Uiso   1.00
C342   C     0.22042   0.12540   0.10631   0.00000  Uiso   1.00
C343   C     0.05717   0.13665   0.99877   0.00000  Uiso   1.00
C344   C     0.02281   0.09780   0.98919   0.00000  Uiso   1.00
C345   C     0.00616   0.08742   0.90263   0.00000  Uiso   1.00
H346   H     0.12516   0.22637   0.89270   0.00000  Uiso   1.00
H347   H     0.09137   0.31047   0.95649   0.00000  Uiso   1.00
H348   H     0.21796   0.20118   0.92029   0.00000  Uiso   1.00
H349   H     0.07096   0.17512   0.78056   0.00000  Uiso   1.00
H350   H     0.04636   0.39159   0.05996   0.00000  Uiso   1.00
H351   H     0.31330   0.16113   0.98361   0.00000  Uiso   1.00
H352   H     0.00332   0.10618   0.68895   0.00000  Uiso   1.00
H353   H     0.06695   0.13289   0.14494   0.00000  Uiso   1.00
H354   H     0.02996   0.21187   0.22258   0.00000  Uiso   1.00
H355   H     0.15657   0.10257   0.18638   0.00000  Uiso   1.00
H356   H     0.00956   0.07652   0.04664   0.00000  Uiso   1.00
H357   H     0.99653   0.31156   0.27593   0.00000  Uiso   1.00
H358   H     0.26347   0.08109   0.19958   0.00000  Uiso   1.00
H359   H     0.95349   0.02615   0.90493   0.00000  Uiso   1.00
O360   O     0.99818   0.40522   0.21448   0.00000  Uiso   1.00
O361   O     0.34839   0.10285   0.11430   0.00000  Uiso   1.00
O362   O     0.94170   0.03077   0.72772   0.00000  Uiso   1.00
N363   N     0.03970   0.36192   0.10013   0.00000  Uiso   1.00
N364   N     0.28928   0.14645   0.02876   0.00000  Uiso   1.00
N365   N     0.99948   0.09507   0.75327   0.00000  Uiso   1.00
N366   N     0.01289   0.31885   0.21634   0.00000  Uiso   1.00
N367   N     0.26246   0.10339   0.14497   0.00000  Uiso   1.00
N368   N     0.97266   0.05201   0.86948   0.00000  Uiso   1.00
C369   C     0.29505   0.88818   0.20049   0.00000  Uiso   1.00
C370   C     0.26231   0.91462   0.27012   0.00000  Uiso   1.00
C371   C     0.21080   0.92190   0.26394   0.00000  Uiso   1.00
C372   C     0.18774   0.94695   0.33471   0.00000  Uiso   1.00
C373   C     0.13272   0.98537   0.43156   0.00000  Uiso   1.00
C374   C     0.32169   0.84583   0.25046   0.00000  Uiso   1.00
C375   C     0.32011   0.79528   0.22774   0.00000  Uiso   1.00
C376   C     0.34704   0.76242   0.28195   0.00000  Uiso   1.00
C377   C     0.38424   0.69405   0.34824   0.00000  Uiso   1.00
C378   C     0.33585   0.92570   0.17454   0.00000  Uiso   1.00
C379   C     0.34617   0.94230   0.08798   0.00000  Uiso   1.00
C380   C     0.38503   0.97669   0.07827   0.00000  Uiso   1.00
C381   C     0.44420   0.03233   0.02668   0.00000  Uiso   1.00
C382   C     0.34569   0.91971   0.33715   0.00000  Uiso   1.00
C383   C     0.28982   0.93174   0.34435   0.00000  Uiso   1.00
C384   C     0.26683   0.95679   0.41514   0.00000  Uiso   1.00
C385   C     0.21530   0.96411   0.40907   0.00000  Uiso   1.00
C386   C     0.34920   0.86295   0.32469   0.00000  Uiso   1.00
C387   C     0.37614   0.83016   0.37894   0.00000  Uiso   1.00
C388   C     0.37460   0.77958   0.35631   0.00000  Uiso   1.00
C389   C     0.36335   0.94283   0.24877   0.00000  Uiso   1.00
C390   C     0.40220   0.97719   0.23919   0.00000  Uiso   1.00
C391   C     0.41258   0.99384   0.15263   0.00000  Uiso   1.00
H392   H     0.27363   0.87484   0.14270   0.00000  Uiso   1.00
H393   H     0.18953   0.90863   0.20649   0.00000  Uiso   1.00
H394   H     0.29882   0.78204   0.17029   0.00000  Uiso   1.00
H395   H     0.32488   0.92904   0.03056   0.00000  Uiso   1.00
H396   H     0.10841   0.95364   0.30996   0.00000  Uiso   1.00
H397   H     0.33887   0.68670   0.23361   0.00000  Uiso   1.00
H398   H     0.39382   0.99668   0.93895   0.00000  Uiso   1.00
H399   H     0.36711   0.93305   0.39494   0.00000  Uiso   1.00
H400   H     0.28813   0.97004   0.47258   0.00000  Uiso   1.00
H401   H     0.39743   0.84343   0.43638   0.00000  Uiso   1.00
H402   H     0.42348   0.99044   0.29664   0.00000  Uiso   1.00
H403   H     0.18844   0.00347   0.52593   0.00000  Uiso   1.00
H404   H     0.41891   0.73653   0.44958   0.00000  Uiso   1.00
H405   H     0.47385   0.04651   0.15493   0.00000  Uiso   1.00
O406   O     0.09478   0.00182   0.46448   0.00000  Uiso   1.00
O407   O     0.39715   0.65161   0.36430   0.00000  Uiso   1.00
O408   O     0.46923   0.05830   0.97772   0.00000  Uiso   1.00
N409   N     0.13808   0.96030   0.35013   0.00000  Uiso   1.00
N410   N     0.35355   0.71072   0.27876   0.00000  Uiso   1.00
N411   N     0.40493   0.00052   0.00327   0.00000  Uiso   1.00
N412   N     0.18115   0.98711   0.46634   0.00000  Uiso   1.00
N413   N     0.39661   0.73754   0.39497   0.00000  Uiso   1.00
N414   N     0.44799   0.02734   0.11948   0.00000  Uiso   1.00
C415   C     0.79505   0.38818   0.70049   0.00000  Uiso   1.00
C416   C     0.76231   0.41462   0.77012   0.00000  Uiso   1.00
C417   C     0.71080   0.42190   0.76394   0.00000  Uiso   1.00
C418   C     0.68774   0.44695   0.83471   0.00000  Uiso   1.00
C419   C     0.63272   0.48537   0.93156   0.00000  Uiso   1.00
C420   C     0.82169   0.34583   0.75046   0.00000  Uiso   1.00
C421   C     0.82011   0.29528   0.72774   0.00000  Uiso   1.00
C422   C     0.84704   0.26242   0.78195   0.00000  Uiso   1.00
C423   C     0.88424   0.19405   0.84824   0.00000  Uiso   1.00
C424   C     0.83585   0.42570   0.67454   0.00000  Uiso   1.00
C425   C     0.84617   0.44230   0.58798   0.00000  Uiso   1.00
C426   C     0.88503   0.47669   0.57827   0.00000  Uiso   1.00
C427   C     0.94420   0.53233   0.52668   0.00000  Uiso   1.00
C428   C     0.84569   0.41971   0.83715   0.00000  Uiso   1.00
C429   C     0.78982   0.43174   0.84435   0.00000  Uiso   1.00
C430   C     0.76683   0.45679   0.91514   0.00000  Uiso   1.00
C431   C     0.71530   0.46411   0.90907   0.00000  Uiso   1.00
C432   C     0.84920   0.36295   0.82469   0.00000  Uiso   1.00
C433   C     0.87614   0.33016   0.87894   0.00000  Uiso   1.00
C434   C     0.87460   0.27958   0.85631   0.00000  Uiso   1.00
C435   C     0.86335   0.44283   0.74877   0.00000  Uiso   1.00
C436   C     0.90220   0.47719   0.73919   0.00000  Uiso   1.00
C437   C     0.91258   0.49384   0.65263   0.00000  Uiso   1.00
H438   H     0.77363   0.37484   0.64270   0.00000  Uiso   1.00
H439   H     0.68953   0.40863   0.70649   0.00000  Uiso   1.00
H440   H     0.79882   0.28204   0.67029   0.00000  Uiso   1.00
H441   H     0.82488   0.42904   0.53056   0.00000  Uiso   1.00
H442   H     0.60841   0.45364   0.80996   0.00000  Uiso   1.00
H443   H     0.83887   0.18670   0.73361   0.00000  Uiso   1.00
H444   H     0.89382   0.49668   0.43895   0.00000  Uiso   1.00
H445   H     0.86711   0.43305   0.89494   0.00000  Uiso   1.00
H446   H     0.78813   0.47004   0.97258   0.00000  Uiso   1.00
H447   H     0.89743   0.34343   0.93638   0.00000  Uiso   1.00
H448   H     0.92348   0.49044   0.79664   0.00000  Uiso   1.00
H449   H     0.68844   0.50347   0.02593   0.00000  Uiso   1.00
H450   H     0.91891   0.23653   0.94958   0.00000  Uiso   1.00
H451   H     0.97385   0.54651   0.65493   0.00000  Uiso   1.00
O452   O     0.59478   0.50182   0.96448   0.00000  Uiso   1.00
O453   O     0.89715   0.15161   0.86430   0.00000  Uiso   1.00
O454   O     0.96923   0.55830   0.47772   0.00000  Uiso   1.00
N455   N     0.63808   0.46030   0.85013   0.00000  Uiso   1.00
N456   N     0.85355   0.21072   0.77876   0.00000  Uiso   1.00
N457   N     0.90493   0.50052   0.50327   0.00000  Uiso   1.00
N458   N     0.68115   0.48711   0.96634   0.00000  Uiso   1.00
N459   N     0.89661   0.23754   0.89497   0.00000  Uiso   1.00
N460   N     0.94799   0.52734   0.61948   0.00000  Uiso   1.00
C461   C     0.20495   0.61182   0.70049   0.00000  Uiso   1.00
C462   C     0.23769   0.58538   0.77012   0.00000  Uiso   1.00
C463   C     0.28920   0.57810   0.76394   0.00000  Uiso   1.00
C464   C     0.31226   0.55305   0.83471   0.00000  Uiso   1.00
C465   C     0.36728   0.51463   0.93156   0.00000  Uiso   1.00
C466   C     0.17831   0.65417   0.75046   0.00000  Uiso   1.00
C467   C     0.17989   0.70472   0.72774   0.00000  Uiso   1.00
C468   C     0.15296   0.73758   0.78195   0.00000  Uiso   1.00
C469   C     0.11576   0.80595   0.84824   0.00000  Uiso   1.00
C470   C     0.16415   0.57430   0.67454   0.00000  Uiso   1.00
C471   C     0.15383   0.55770   0.58798   0.00000  Uiso   1.00
C472   C     0.11497   0.52331   0.57827   0.00000  Uiso   1.00
C473   C     0.05580   0.46767   0.52668   0.00000  Uiso   1.00
C474   C     0.15431   0.58029   0.83715   0.00000  Uiso   1.00
C475   C     0.21018   0.56826   0.84435   0.00000  Uiso   1.00
C476   C     0.23317   0.54321   0.91514   0.00000  Uiso   1.00
C477   C     0.28470   0.53589   0.90907   0.00000  Uiso   1.00
C478   C     0.15080   0.63705   0.82469   0.00000  Uiso   1.00
C479   C     0.12386   0.66984   0.87894   0.00000  Uiso   1.00
C480   C     0.12540   0.72042   0.85631   0.00000  Uiso   1.00
C481   C     0.13665   0.55717   0.74877   0.00000  Uiso   1.00
C482   C     0.09780   0.52281   0.73919   0.00000  Uiso   1.00
C483   C     0.08742   0.50616   0.65263   0.00000  Uiso   1.00
H484   H     0.22637   0.62516   0.64270   0.00000  Uiso   1.00
H485   H     0.31047   0.59137   0.70649   0.00000  Uiso   1.00
H486   H     0.20118   0.71796   0.67029   0.00000  Uiso   1.00
H487   H     0.17512   0.57096   0.53056   0.00000  Uiso   1.00
H488   H     0.39159   0.54636   0.80996   0.00000  Uiso   1.00
H489   H     0.16113   0.81330   0.73361   0.00000  Uiso   1.00
H490   H     0.10618   0.50332   0.43895   0.00000  Uiso   1.00
H491   H     0.13289   0.56695   0.89494   0.00000  Uiso   1.00
H492   H     0.21187   0.52996   0.97258   0.00000  Uiso   1.00
H493   H     0.10257   0.65657   0.93638   0.00000  Uiso   1.00
H494   H     0.07652   0.50956   0.79664   0.00000  Uiso   1.00
H495   H     0.31156   0.49653   0.02593   0.00000  Uiso   1.00
H496   H     0.08109   0.76347   0.94958   0.00000  Uiso   1.00
H497   H     0.02615   0.45349   0.65493   0.00000  Uiso   1.00
O498   O     0.40522   0.49818   0.96448   0.00000  Uiso   1.00
O499   O     0.10285   0.84839   0.86430   0.00000  Uiso   1.00
O500   O     0.03077   0.44170   0.47772   0.00000  Uiso   1.00
N501   N     0.36192   0.53970   0.85013   0.00000  Uiso   1.00
N502   N     0.14645   0.78928   0.77876   0.00000  Uiso   1.00
N503   N     0.09507   0.49948   0.50327   0.00000  Uiso   1.00
N504   N     0.31885   0.51289   0.96634   0.00000  Uiso   1.00
N505   N     0.10339   0.76246   0.89497   0.00000  Uiso   1.00
N506   N     0.05201   0.47266   0.61948   0.00000  Uiso   1.00
C507   C     0.70495   0.11182   0.20049   0.00000  Uiso   1.00
C508   C     0.73769   0.08538   0.27012   0.00000  Uiso   1.00
C509   C     0.78920   0.07810   0.26394   0.00000  Uiso   1.00
C510   C     0.81226   0.05305   0.33471   0.00000  Uiso   1.00
C511   C     0.86728   0.01463   0.43156   0.00000  Uiso   1.00
C512   C     0.67831   0.15417   0.25046   0.00000  Uiso   1.00
C513   C     0.67989   0.20472   0.22774   0.00000  Uiso   1.00
C514   C     0.65296   0.23758   0.28195   0.00000  Uiso   1.00
C515   C     0.61576   0.30595   0.34824   0.00000  Uiso   1.00
C516   C     0.66415   0.07430   0.17454   0.00000  Uiso   1.00
C517   C     0.65383   0.05770   0.08798   0.00000  Uiso   1.00
C518   C     0.61497   0.02331   0.07827   0.00000  Uiso   1.00
C519   C     0.55580   0.96767   0.02668   0.00000  Uiso   1.00
C520   C     0.65431   0.08029   0.33715   0.00000  Uiso   1.00
C521   C     0.71018   0.06826   0.34435   0.00000  Uiso   1.00
C522   C     0.73317   0.04321   0.41514   0.00000  Uiso   1.00
C523   C     0.78470   0.03589   0.40907   0.00000  Uiso   1.00
C524   C     0.65080   0.13705   0.32469   0.00000  Uiso   1.00
C525   C     0.62386   0.16984   0.37894   0.00000  Uiso   1.00
C526   C     0.62540   0.22042   0.35631   0.00000  Uiso   1.00
C527   C     0.63665   0.05717   0.24877   0.00000  Uiso   1.00
C528   C     0.59780   0.02281   0.23919   0.00000  Uiso   1.00
C529   C     0.58742   0.00616   0.15263   0.00000  Uiso   1.00
H530   H     0.72637   0.12516   0.14270   0.00000  Uiso   1.00
H531   H     0.81047   0.09137   0.20649   0.00000  Uiso   1.00
H532   H     0.70118   0.21796   0.17029   0.00000  Uiso   1.00
H533   H     0.67512   0.07096   0.03056   0.00000  Uiso   1.00
H534   H     0.89159   0.04636   0.30996   0.00000  Uiso   1.00
H535   H     0.66113   0.31330   0.23361   0.00000  Uiso   1.00
H536   H     0.60618   0.00332   0.93895   0.00000  Uiso   1.00
H537   H     0.63289   0.06695   0.39494   0.00000  Uiso   1.00
H538   H     0.71187   0.02996   0.47258   0.00000  Uiso   1.00
H539   H     0.60257   0.15657   0.43638   0.00000  Uiso   1.00
H540   H     0.57652   0.00956   0.29664   0.00000  Uiso   1.00
H541   H     0.81156   0.99653   0.52593   0.00000  Uiso   1.00
H542   H     0.58109   0.26347   0.44958   0.00000  Uiso   1.00
H543   H     0.52615   0.95349   0.15493   0.00000  Uiso   1.00
O544   O     0.90522   0.99818   0.46448   0.00000  Uiso   1.00
O545   O     0.60285   0.34839   0.36430   0.00000  Uiso   1.00
O546   O     0.53077   0.94170   0.97772   0.00000  Uiso   1.00
N547   N     0.86192   0.03970   0.35013   0.00000  Uiso   1.00
N548   N     0.64645   0.28928   0.27876   0.00000  Uiso   1.00
N549   N     0.59507   0.99948   0.00327   0.00000  Uiso   1.00
N550   N     0.81885   0.01289   0.46634   0.00000  Uiso   1.00
N551   N     0.60339   0.26246   0.39497   0.00000  Uiso   1.00
N552   N     0.55201   0.97266   0.11948   0.00000  Uiso   1.00
C553   C     0.88818   0.20495   0.45049   0.00000  Uiso   1.00
C554   C     0.91462   0.23769   0.52012   0.00000  Uiso   1.00
C555   C     0.92190   0.28920   0.51394   0.00000  Uiso   1.00
C556   C     0.94695   0.31226   0.58471   0.00000  Uiso   1.00
C557   C     0.98537   0.36728   0.68156   0.00000  Uiso   1.00
C558   C     0.84583   0.17831   0.50046   0.00000  Uiso   1.00
C559   C     0.79528   0.17989   0.47774   0.00000  Uiso   1.00
C560   C     0.76242   0.15296   0.53195   0.00000  Uiso   1.00
C561   C     0.69405   0.11576   0.59824   0.00000  Uiso   1.00
C562   C     0.92570   0.16415   0.42454   0.00000  Uiso   1.00
C563   C     0.94230   0.15383   0.33798   0.00000  Uiso   1.00
C564   C     0.97669   0.11497   0.32827   0.00000  Uiso   1.00
C565   C     0.03233   0.05580   0.27668   0.00000  Uiso   1.00
C566   C     0.91971   0.15431   0.58715   0.00000  Uiso   1.00
C567   C     0.93174   0.21018   0.59435   0.00000  Uiso   1.00
C568   C     0.95679   0.23317   0.66514   0.00000  Uiso   1.00
C569   C     0.96411   0.28470   0.65907   0.00000  Uiso   1.00
C570   C     0.86295   0.15080   0.57469   0.00000  Uiso   1.00
C571   C     0.83016   0.12386   0.62894   0.00000  Uiso   1.00
C572   C     0.77958   0.12540   0.60631   0.00000  Uiso   1.00
C573   C     0.94283   0.13665   0.49877   0.00000  Uiso   1.00
C574   C     0.97719   0.09780   0.48919   0.00000  Uiso   1.00
C575   C     0.99384   0.08742   0.40263   0.00000  Uiso   1.00
H576   H     0.87484   0.22637   0.39270   0.00000  Uiso   1.00
H577   H     0.90863   0.31047   0.45649   0.00000  Uiso   1.00
H578   H     0.78204   0.20118   0.42029   0.00000  Uiso   1.00
H579   H     0.92904   0.17512   0.28056   0.00000  Uiso   1.00
H580   H     0.95364   0.39159   0.55996   0.00000  Uiso   1.00
H581   H     0.68670   0.16113   0.48361   0.00000  Uiso   1.00
H582   H     0.99668   0.10618   0.18895   0.00000  Uiso   1.00
H583   H     0.93305   0.13289   0.64494   0.00000  Uiso   1.00
H584   H     0.97004   0.21187   0.72258   0.00000  Uiso   1.00
H585   H     0.84343   0.10257   0.68638   0.00000  Uiso   1.00
H586   H     0.99044   0.07652   0.54664   0.00000  Uiso   1.00
H587   H     0.00347   0.31156   0.77593   0.00000  Uiso   1.00
H588   H     0.73653   0.08109   0.69958   0.00000  Uiso   1.00
H589   H     0.04651   0.02615   0.40493   0.00000  Uiso   1.00
O590   O     0.00182   0.40522   0.71448   0.00000  Uiso   1.00
O591   O     0.65161   0.10285   0.61430   0.00000  Uiso   1.00
O592   O     0.05830   0.03077   0.22772   0.00000  Uiso   1.00
N593   N     0.96030   0.36192   0.60013   0.00000  Uiso   1.00
N594   N     0.71072   0.14645   0.52876   0.00000  Uiso   1.00
N595   N     0.00052   0.09507   0.25327   0.00000  Uiso   1.00
N596   N     0.98711   0.31885   0.71634   0.00000  Uiso   1.00
N597   N     0.73754   0.10339   0.64497   0.00000  Uiso   1.00
N598   N     0.02734   0.05201   0.36948   0.00000  Uiso   1.00
C599   C     0.38818   0.70495   0.95049   0.00000  Uiso   1.00
C600   C     0.41462   0.73769   0.02012   0.00000  Uiso   1.00
C601   C     0.42190   0.78920   0.01394   0.00000  Uiso   1.00
C602   C     0.44695   0.81226   0.08471   0.00000  Uiso   1.00
C603   C     0.48537   0.86728   0.18156   0.00000  Uiso   1.00
C604   C     0.34583   0.67831   0.00046   0.00000  Uiso   1.00
C605   C     0.29528   0.67989   0.97774   0.00000  Uiso   1.00
C606   C     0.26242   0.65296   0.03195   0.00000  Uiso   1.00
C607   C     0.19405   0.61576   0.09824   0.00000  Uiso   1.00
C608   C     0.42570   0.66415   0.92454   0.00000  Uiso   1.00
C609   C     0.44230   0.65383   0.83798   0.00000  Uiso   1.00
C610   C     0.47669   0.61497   0.82827   0.00000  Uiso   1.00
C611   C     0.53233   0.55580   0.77668   0.00000  Uiso   1.00
C612   C     0.41971   0.65431   0.08715   0.00000  Uiso   1.00
C613   C     0.43174   0.71018   0.09435   0.00000  Uiso   1.00
C614   C     0.45679   0.73317   0.16514   0.00000  Uiso   1.00
C615   C     0.46411   0.78470   0.15907   0.00000  Uiso   1.00
C616   C     0.36295   0.65080   0.07469   0.00000  Uiso   1.00
C617   C     0.33016   0.62386   0.12894   0.00000  Uiso   1.00
C618   C     0.27958   0.62540   0.10631   0.00000  Uiso   1.00
C619   C     0.44283   0.63665   0.99877   0.00000  Uiso   1.00
C620   C     0.47719   0.59780   0.98919   0.00000  Uiso   1.00
C621   C     0.49384   0.58742   0.90263   0.00000  Uiso   1.00
H622   H     0.37484   0.72637   0.89270   0.00000  Uiso   1.00
H623   H     0.40863   0.81047   0.95649   0.00000  Uiso   1.00
H624   H     0.28204   0.70118   0.92029   0.00000  Uiso   1.00
H625   H     0.42904   0.67512   0.78056   0.00000  Uiso   1.00
H626   H     0.45364   0.89159   0.05996   0.00000  Uiso   1.00
H627   H     0.18670   0.66113   0.98361   0.00000  Uiso   1.00
H628   H     0.49668   0.60618   0.68895   0.00000  Uiso   1.00
H629   H     0.43305   0.63289   0.14494   0.00000  Uiso   1.00
H630   H     0.47004   0.71187   0.22258   0.00000  Uiso   1.00
H631   H     0.34343   0.60257   0.18638   0.00000  Uiso   1.00
H632   H     0.49044   0.57652   0.04664   0.00000  Uiso   1.00
H633   H     0.50347   0.81156   0.27593   0.00000  Uiso   1.00
H634   H     0.23653   0.58109   0.19958   0.00000  Uiso   1.00
H635   H     0.54651   0.52615   0.90493   0.00000  Uiso   1.00
O636   O     0.50182   0.90522   0.21448   0.00000  Uiso   1.00
O637   O     0.15161   0.60285   0.11430   0.00000  Uiso   1.00
O638   O     0.55830   0.53077   0.72772   0.00000  Uiso   1.00
N639   N     0.46030   0.86192   0.10013   0.00000  Uiso   1.00
N640   N     0.21072   0.64645   0.02876   0.00000  Uiso   1.00
N641   N     0.50052   0.59507   0.75327   0.00000  Uiso   1.00
N642   N     0.48711   0.81885   0.21634   0.00000  Uiso   1.00
N643   N     0.23754   0.60339   0.14497   0.00000  Uiso   1.00
N644   N     0.52734   0.55201   0.86948   0.00000  Uiso   1.00
C645   C     0.61182   0.29505   0.95049   0.00000  Uiso   1.00
C646   C     0.58538   0.26231   0.02012   0.00000  Uiso   1.00
C647   C     0.57810   0.21080   0.01394   0.00000  Uiso   1.00
C648   C     0.55305   0.18774   0.08471   0.00000  Uiso   1.00
C649   C     0.51463   0.13272   0.18156   0.00000  Uiso   1.00
C650   C     0.65417   0.32169   0.00046   0.00000  Uiso   1.00
C651   C     0.70472   0.32011   0.97774   0.00000  Uiso   1.00
C652   C     0.73758   0.34704   0.03195   0.00000  Uiso   1.00
C653   C     0.80595   0.38424   0.09824   0.00000  Uiso   1.00
C654   C     0.57430   0.33585   0.92454   0.00000  Uiso   1.00
C655   C     0.55770   0.34617   0.83798   0.00000  Uiso   1.00
C656   C     0.52331   0.38503   0.82827   0.00000  Uiso   1.00
C657   C     0.46767   0.44420   0.77668   0.00000  Uiso   1.00
C658   C     0.58029   0.34569   0.08715   0.00000  Uiso   1.00
C659   C     0.56826   0.28982   0.09435   0.00000  Uiso   1.00
C660   C     0.54321   0.26683   0.16514   0.00000  Uiso   1.00
C661   C     0.53589   0.21530   0.15907   0.00000  Uiso   1.00
C662   C     0.63705   0.34920   0.07469   0.00000  Uiso   1.00
C663   C     0.66984   0.37614   0.12894   0.00000  Uiso   1.00
C664   C     0.72042   0.37460   0.10631   0.00000  Uiso   1.00
C665   C     0.55717   0.36335   0.99877   0.00000  Uiso   1.00
C666   C     0.52281   0.40220   0.98919   0.00000  Uiso   1.00
C667   C     0.50616   0.41258   0.90263   0.00000  Uiso   1.00
H668   H     0.62516   0.27363   0.89270   0.00000  Uiso   1.00
H669   H     0.59137   0.18953   0.95649   0.00000  Uiso   1.00
H670   H     0.71796   0.29882   0.92029   0.00000  Uiso   1.00
H671   H     0.57096   0.32488   0.78056   0.00000  Uiso   1.00
H672   H     0.54636   0.10841   0.05996   0.00000  Uiso   1.00
H673   H     0.81330   0.33887   0.98361   0.00000  Uiso   1.00
H674   H     0.50332   0.39382   0.68895   0.00000  Uiso   1.00
H675   H     0.56695   0.36711   0.14494   0.00000  Uiso   1.00
H676   H     0.52996   0.28813   0.22258   0.00000  Uiso   1.00
H677   H     0.65657   0.39743   0.18638   0.00000  Uiso   1.00
H678   H     0.50956   0.42348   0.04664   0.00000  Uiso   1.00
H679   H     0.49653   0.18844   0.27593   0.00000  Uiso   1.00
H680   H     0.76347   0.41891   0.19958   0.00000  Uiso   1.00
H681   H     0.45349   0.47385   0.90493   0.00000  Uiso   1.00
O682   O     0.49818   0.09478   0.21448   0.00000  Uiso   1.00
O683   O     0.84839   0.39715   0.11430   0.00000  Uiso   1.00
O684   O     0.44170   0.46923   0.72772   0.00000  Uiso   1.00
N685   N     0.53970   0.13808   0.10013   0.00000  Uiso   1.00
N686   N     0.78928   0.35355   0.02876   0.00000  Uiso   1.00
N687   N     0.49948   0.40493   0.75327   0.00000  Uiso   1.00
N688   N     0.51289   0.18115   0.21634   0.00000  Uiso   1.00
N689   N     0.76246   0.39661   0.14497   0.00000  Uiso   1.00
N690   N     0.47266   0.44799   0.86948   0.00000  Uiso   1.00
C691   C     0.11182   0.79505   0.45049   0.00000  Uiso   1.00
C692   C     0.08538   0.76231   0.52012   0.00000  Uiso   1.00
C693   C     0.07810   0.71080   0.51394   0.00000  Uiso   1.00
C694   C     0.05305   0.68774   0.58471   0.00000  Uiso   1.00
C695   C     0.01463   0.63272   0.68156   0.00000  Uiso   1.00
C696   C     0.15417   0.82169   0.50046   0.00000  Uiso   1.00
C697   C     0.20472   0.82011   0.47774   0.00000  Uiso   1.00
C698   C     0.23758   0.84704   0.53195   0.00000  Uiso   1.00
C699   C     0.30595   0.88424   0.59824   0.00000  Uiso   1.00
C700   C     0.07430   0.83585   0.42454   0.00000  Uiso   1.00
C701   C     0.05770   0.84617   0.33798   0.00000  Uiso   1.00
C702   C     0.02331   0.88503   0.32827   0.00000  Uiso   1.00
C703   C     0.96767   0.94420   0.27668   0.00000  Uiso   1.00
C704   C     0.08029   0.84569   0.58715   0.00000  Uiso   1.00
C705   C     0.06826   0.78982   0.59435   0.00000  Uiso   1.00
C706   C     0.04321   0.76683   0.66514   0.00000  Uiso   1.00
C707   C     0.03589   0.71530   0.65907   0.00000  Uiso   1.00
C708   C     0.13705   0.84920   0.57469   0.00000  Uiso   1.00
C709   C     0.16984   0.87614   0.62894   0.00000  Uiso   1.00
C710   C     0.22042   0.87460   0.60631   0.00000  Uiso   1.00
C711   C     0.05717   0.86335   0.49877   0.00000  Uiso   1.00
C712   C     0.02281   0.90220   0.48919   0.00000  Uiso   1.00
C713   C     0.00616   0.91258   0.40263   0.00000  Uiso   1.00
H714   H     0.12516   0.77363   0.39270   0.00000  Uiso   1.00
H715   H     0.09137   0.68953   0.45649   0.00000  Uiso   1.00
H716   H     0.21796   0.79882   0.42029   0.00000  Uiso   1.00
H717   H     0.07096   0.82488   0.28056   0.00000  Uiso   1.00
H718   H     0.04636   0.60841   0.55996   0.00000  Uiso   1.00
H719   H     0.31330   0.83887   0.48361   0.00000  Uiso   1.00
H720   H     0.00332   0.89382   0.18895   0.00000  Uiso   1.00
H721   H     0.06695   0.86711   0.64494   0.00000  Uiso   1.00
H722   H     0.02996   0.78813   0.72258   0.00000  Uiso   1.00
H723   H     0.15657   0.89743   0.68638   0.00000  Uiso   1.00
H724   H     0.00956   0.92348   0.54664   0.00000  Uiso   1.00
H725   H     0.99653   0.68844   0.77593   0.00000  Uiso   1.00
H726   H     0.26347   0.91891   0.69958   0.00000  Uiso   1.00
H727   H     0.95349   0.97385   0.40493   0.00000  Uiso   1.00
O728   O     0.99818   0.59478   0.71448   0.00000  Uiso   1.00
O729   O     0.34839   0.89715   0.61430   0.00000  Uiso   1.00
O730   O     0.94170   0.96923   0.22772   0.00000  Uiso   1.00
N731   N     0.03970   0.63808   0.60013   0.00000  Uiso   1.00
N732   N     0.28928   0.85355   0.52876   0.00000  Uiso   1.00
N733   N     0.99948   0.90493   0.25327   0.00000  Uiso   1.00
N734   N     0.01289   0.68115   0.71634   0.00000  Uiso   1.00
N735   N     0.26246   0.89661   0.64497   0.00000  Uiso   1.00
N736   N     0.97266   0.94799   0.36948   0.00000  Uiso   1.00
