data_job_02312
_audit_creation_date              2018-12-19
_audit_creation_method            'Materials Studio'
_symmetry_space_group_name_H-M    'P1'
_symmetry_Int_Tables_number       1
_symmetry_cell_setting            triclinic
loop_
_symmetry_equiv_pos_as_xyz
  x,y,z
_cell_length_a                    24.0509
_cell_length_b                    24.0509
_cell_length_c                    16.6899
_cell_angle_alpha                 90.0000
_cell_angle_beta                  90.0000
_cell_angle_gamma                 90.0000
loop_
_atom_site_label
_atom_site_type_symbol
_atom_site_fract_x
_atom_site_fract_y
_atom_site_fract_z
_atom_site_U_iso_or_equiv
_atom_site_adp_type
_atom_site_occupancy
C1     C     0.40924   0.91837   0.50679   0.00000  Uiso   1.00
C2     C     0.36192   0.90943   0.44735   0.00000  Uiso   1.00
C3     C     0.33714   0.95037   0.40088   0.00000  Uiso   1.00
C4     C     0.29449   0.93376   0.35020   0.00000  Uiso   1.00
C5     C     0.22361   0.92834   0.25854   0.00000  Uiso   1.00
C6     C     0.38832   0.89639   0.58702   0.00000  Uiso   1.00
C7     C     0.38575   0.92637   0.65798   0.00000  Uiso   1.00
C8     C     0.36533   0.89878   0.72487   0.00000  Uiso   1.00
C9     C     0.33549   0.87310   0.85007   0.00000  Uiso   1.00
C10    C     0.45575   0.87919   0.48095   0.00000  Uiso   1.00
C11    C     0.50987   0.89470   0.46274   0.00000  Uiso   1.00
C12    C     0.54622   0.85263   0.44034   0.00000  Uiso   1.00
C13    C     0.62107   0.80024   0.40084   0.00000  Uiso   1.00
C14    C     0.37755   0.81609   0.49941   0.00000  Uiso   1.00
C15    C     0.34471   0.85388   0.44335   0.00000  Uiso   1.00
C16    C     0.30208   0.83720   0.39271   0.00000  Uiso   1.00
C17    C     0.27724   0.87811   0.34618   0.00000  Uiso   1.00
C18    C     0.37111   0.84084   0.58301   0.00000  Uiso   1.00
C19    C     0.35069   0.81320   0.64981   0.00000  Uiso   1.00
C20    C     0.34808   0.84312   0.72086   0.00000  Uiso   1.00
C21    C     0.43854   0.82364   0.47693   0.00000  Uiso   1.00
C22    C     0.47481   0.78154   0.45457   0.00000  Uiso   1.00
C23    C     0.52898   0.79697   0.43632   0.00000  Uiso   1.00
H24    H     0.42264   0.96162   0.50992   0.00000  Uiso   1.00
H25    H     0.35047   0.99336   0.40401   0.00000  Uiso   1.00
H26    H     0.39908   0.96936   0.66107   0.00000  Uiso   1.00
H27    H     0.52318   0.93769   0.46585   0.00000  Uiso   1.00
H28    H     0.26286   0.00404   0.28484   0.00000  Uiso   1.00
H29    H     0.36537   0.95343   0.82688   0.00000  Uiso   1.00
H30    H     0.62706   0.88667   0.41522   0.00000  Uiso   1.00
H31    H     0.36415   0.77283   0.49629   0.00000  Uiso   1.00
H32    H     0.28877   0.79421   0.38962   0.00000  Uiso   1.00
H33    H     0.33738   0.77021   0.64669   0.00000  Uiso   1.00
H34    H     0.46148   0.73855   0.45147   0.00000  Uiso   1.00
H35    H     0.21277   0.84241   0.27317   0.00000  Uiso   1.00
H36    H     0.31529   0.79180   0.81521   0.00000  Uiso   1.00
H37    H     0.57698   0.72503   0.40355   0.00000  Uiso   1.00
O38    O     0.18927   0.94070   0.20911   0.00000  Uiso   1.00
O39    O     0.32378   0.87429   0.92024   0.00000  Uiso   1.00
O40    O     0.66710   0.78670   0.38015   0.00000  Uiso   1.00
N41    N     0.26142   0.96307   0.29672   0.00000  Uiso   1.00
N42    N     0.35726   0.91575   0.80349   0.00000  Uiso   1.00
N43    N     0.60192   0.85333   0.41865   0.00000  Uiso   1.00
N44    N     0.23447   0.87609   0.29044   0.00000  Uiso   1.00
N45    N     0.33031   0.82878   0.79721   0.00000  Uiso   1.00
N46    N     0.57497   0.76635   0.41236   0.00000  Uiso   1.00
C47    C     0.90924   0.41837   0.00679   0.00000  Uiso   1.00
C48    C     0.86192   0.40943   0.94735   0.00000  Uiso   1.00
C49    C     0.83714   0.45037   0.90088   0.00000  Uiso   1.00
C50    C     0.79449   0.43376   0.85020   0.00000  Uiso   1.00
C51    C     0.72361   0.42834   0.75854   0.00000  Uiso   1.00
C52    C     0.88832   0.39639   0.08702   0.00000  Uiso   1.00
C53    C     0.88575   0.42637   0.15798   0.00000  Uiso   1.00
C54    C     0.86533   0.39878   0.22487   0.00000  Uiso   1.00
C55    C     0.83549   0.37310   0.35007   0.00000  Uiso   1.00
C56    C     0.95575   0.37919   0.98095   0.00000  Uiso   1.00
C57    C     0.00987   0.39470   0.96274   0.00000  Uiso   1.00
C58    C     0.04622   0.35263   0.94034   0.00000  Uiso   1.00
C59    C     0.12107   0.30024   0.90084   0.00000  Uiso   1.00
C60    C     0.87755   0.31609   0.99941   0.00000  Uiso   1.00
C61    C     0.84471   0.35388   0.94335   0.00000  Uiso   1.00
C62    C     0.80208   0.33720   0.89271   0.00000  Uiso   1.00
C63    C     0.77724   0.37811   0.84618   0.00000  Uiso   1.00
C64    C     0.87111   0.34084   0.08301   0.00000  Uiso   1.00
C65    C     0.85069   0.31320   0.14981   0.00000  Uiso   1.00
C66    C     0.84808   0.34312   0.22086   0.00000  Uiso   1.00
C67    C     0.93854   0.32364   0.97693   0.00000  Uiso   1.00
C68    C     0.97481   0.28154   0.95457   0.00000  Uiso   1.00
C69    C     0.02898   0.29697   0.93632   0.00000  Uiso   1.00
H70    H     0.92264   0.46162   0.00992   0.00000  Uiso   1.00
H71    H     0.85047   0.49336   0.90401   0.00000  Uiso   1.00
H72    H     0.89908   0.46936   0.16107   0.00000  Uiso   1.00
H73    H     0.02318   0.43769   0.96585   0.00000  Uiso   1.00
H74    H     0.76286   0.50404   0.78484   0.00000  Uiso   1.00
H75    H     0.86537   0.45343   0.32688   0.00000  Uiso   1.00
H76    H     0.12706   0.38667   0.91522   0.00000  Uiso   1.00
H77    H     0.86415   0.27283   0.99629   0.00000  Uiso   1.00
H78    H     0.78877   0.29421   0.88962   0.00000  Uiso   1.00
H79    H     0.83738   0.27021   0.14669   0.00000  Uiso   1.00
H80    H     0.96148   0.23855   0.95147   0.00000  Uiso   1.00
H81    H     0.71277   0.34241   0.77317   0.00000  Uiso   1.00
H82    H     0.81529   0.29180   0.31521   0.00000  Uiso   1.00
H83    H     0.07698   0.22503   0.90355   0.00000  Uiso   1.00
O84    O     0.68927   0.44070   0.70911   0.00000  Uiso   1.00
O85    O     0.82378   0.37429   0.42024   0.00000  Uiso   1.00
O86    O     0.16710   0.28670   0.88015   0.00000  Uiso   1.00
N87    N     0.76142   0.46307   0.79672   0.00000  Uiso   1.00
N88    N     0.85726   0.41575   0.30349   0.00000  Uiso   1.00
N89    N     0.10192   0.35333   0.91865   0.00000  Uiso   1.00
N90    N     0.73447   0.37609   0.79044   0.00000  Uiso   1.00
N91    N     0.83031   0.32878   0.29721   0.00000  Uiso   1.00
N92    N     0.07497   0.26635   0.91236   0.00000  Uiso   1.00
C93    C     0.09076   0.58163   0.00679   0.00000  Uiso   1.00
C94    C     0.13808   0.59057   0.94735   0.00000  Uiso   1.00
C95    C     0.16286   0.54963   0.90088   0.00000  Uiso   1.00
C96    C     0.20551   0.56624   0.85020   0.00000  Uiso   1.00
C97    C     0.27639   0.57166   0.75854   0.00000  Uiso   1.00
C98    C     0.11168   0.60361   0.08702   0.00000  Uiso   1.00
C99    C     0.11425   0.57363   0.15798   0.00000  Uiso   1.00
C100   C     0.13467   0.60122   0.22487   0.00000  Uiso   1.00
C101   C     0.16451   0.62690   0.35007   0.00000  Uiso   1.00
C102   C     0.04425   0.62081   0.98095   0.00000  Uiso   1.00
C103   C     0.99013   0.60530   0.96274   0.00000  Uiso   1.00
C104   C     0.95378   0.64737   0.94034   0.00000  Uiso   1.00
C105   C     0.87893   0.69976   0.90084   0.00000  Uiso   1.00
C106   C     0.12245   0.68391   0.99941   0.00000  Uiso   1.00
C107   C     0.15529   0.64612   0.94335   0.00000  Uiso   1.00
C108   C     0.19792   0.66280   0.89271   0.00000  Uiso   1.00
C109   C     0.22276   0.62189   0.84618   0.00000  Uiso   1.00
C110   C     0.12889   0.65916   0.08301   0.00000  Uiso   1.00
C111   C     0.14931   0.68680   0.14981   0.00000  Uiso   1.00
C112   C     0.15192   0.65688   0.22086   0.00000  Uiso   1.00
C113   C     0.06146   0.67636   0.97693   0.00000  Uiso   1.00
C114   C     0.02519   0.71846   0.95457   0.00000  Uiso   1.00
C115   C     0.97102   0.70303   0.93632   0.00000  Uiso   1.00
H116   H     0.07736   0.53838   0.00992   0.00000  Uiso   1.00
H117   H     0.14953   0.50664   0.90401   0.00000  Uiso   1.00
H118   H     0.10092   0.53064   0.16107   0.00000  Uiso   1.00
H119   H     0.97682   0.56231   0.96585   0.00000  Uiso   1.00
H120   H     0.23714   0.49596   0.78484   0.00000  Uiso   1.00
H121   H     0.13463   0.54657   0.32688   0.00000  Uiso   1.00
H122   H     0.87294   0.61333   0.91522   0.00000  Uiso   1.00
H123   H     0.13585   0.72717   0.99629   0.00000  Uiso   1.00
H124   H     0.21123   0.70579   0.88962   0.00000  Uiso   1.00
H125   H     0.16262   0.72979   0.14669   0.00000  Uiso   1.00
H126   H     0.03852   0.76145   0.95147   0.00000  Uiso   1.00
H127   H     0.28723   0.65759   0.77317   0.00000  Uiso   1.00
H128   H     0.18471   0.70820   0.31521   0.00000  Uiso   1.00
H129   H     0.92302   0.77497   0.90355   0.00000  Uiso   1.00
O130   O     0.31073   0.55930   0.70911   0.00000  Uiso   1.00
O131   O     0.17622   0.62571   0.42024   0.00000  Uiso   1.00
O132   O     0.83290   0.71330   0.88015   0.00000  Uiso   1.00
N133   N     0.23858   0.53693   0.79672   0.00000  Uiso   1.00
N134   N     0.14274   0.58425   0.30349   0.00000  Uiso   1.00
N135   N     0.89808   0.64667   0.91865   0.00000  Uiso   1.00
N136   N     0.26553   0.62391   0.79044   0.00000  Uiso   1.00
N137   N     0.16969   0.67122   0.29721   0.00000  Uiso   1.00
N138   N     0.92503   0.73365   0.91236   0.00000  Uiso   1.00
C139   C     0.59076   0.08163   0.50679   0.00000  Uiso   1.00
C140   C     0.63808   0.09057   0.44735   0.00000  Uiso   1.00
C141   C     0.66286   0.04963   0.40088   0.00000  Uiso   1.00
C142   C     0.70551   0.06624   0.35020   0.00000  Uiso   1.00
C143   C     0.77639   0.07166   0.25854   0.00000  Uiso   1.00
C144   C     0.61168   0.10361   0.58702   0.00000  Uiso   1.00
C145   C     0.61425   0.07363   0.65798   0.00000  Uiso   1.00
C146   C     0.63467   0.10122   0.72487   0.00000  Uiso   1.00
C147   C     0.66451   0.12690   0.85007   0.00000  Uiso   1.00
C148   C     0.54425   0.12081   0.48095   0.00000  Uiso   1.00
C149   C     0.49013   0.10530   0.46274   0.00000  Uiso   1.00
C150   C     0.45378   0.14737   0.44034   0.00000  Uiso   1.00
C151   C     0.37893   0.19976   0.40084   0.00000  Uiso   1.00
C152   C     0.62245   0.18391   0.49941   0.00000  Uiso   1.00
C153   C     0.65529   0.14612   0.44335   0.00000  Uiso   1.00
C154   C     0.69792   0.16280   0.39271   0.00000  Uiso   1.00
C155   C     0.72276   0.12189   0.34618   0.00000  Uiso   1.00
C156   C     0.62889   0.15916   0.58301   0.00000  Uiso   1.00
C157   C     0.64931   0.18680   0.64981   0.00000  Uiso   1.00
C158   C     0.65192   0.15688   0.72086   0.00000  Uiso   1.00
C159   C     0.56146   0.17636   0.47693   0.00000  Uiso   1.00
C160   C     0.52519   0.21846   0.45457   0.00000  Uiso   1.00
C161   C     0.47102   0.20303   0.43632   0.00000  Uiso   1.00
H162   H     0.57736   0.03838   0.50992   0.00000  Uiso   1.00
H163   H     0.64953   0.00664   0.40401   0.00000  Uiso   1.00
H164   H     0.60092   0.03064   0.66107   0.00000  Uiso   1.00
H165   H     0.47682   0.06231   0.46585   0.00000  Uiso   1.00
H166   H     0.73714   0.99596   0.28484   0.00000  Uiso   1.00
H167   H     0.63463   0.04657   0.82688   0.00000  Uiso   1.00
H168   H     0.37294   0.11333   0.41522   0.00000  Uiso   1.00
H169   H     0.63585   0.22717   0.49629   0.00000  Uiso   1.00
H170   H     0.71123   0.20579   0.38962   0.00000  Uiso   1.00
H171   H     0.66262   0.22979   0.64669   0.00000  Uiso   1.00
H172   H     0.53852   0.26145   0.45147   0.00000  Uiso   1.00
H173   H     0.78723   0.15759   0.27317   0.00000  Uiso   1.00
H174   H     0.68471   0.20820   0.81521   0.00000  Uiso   1.00
H175   H     0.42302   0.27497   0.40355   0.00000  Uiso   1.00
O176   O     0.81073   0.05930   0.20911   0.00000  Uiso   1.00
O177   O     0.67622   0.12571   0.92024   0.00000  Uiso   1.00
O178   O     0.33290   0.21330   0.38015   0.00000  Uiso   1.00
N179   N     0.73858   0.03693   0.29672   0.00000  Uiso   1.00
N180   N     0.64274   0.08425   0.80349   0.00000  Uiso   1.00
N181   N     0.39808   0.14667   0.41865   0.00000  Uiso   1.00
N182   N     0.76553   0.12391   0.29044   0.00000  Uiso   1.00
N183   N     0.66969   0.17122   0.79721   0.00000  Uiso   1.00
N184   N     0.42503   0.23365   0.41236   0.00000  Uiso   1.00
C185   C     0.08163   0.90924   0.75679   0.00000  Uiso   1.00
C186   C     0.09057   0.86192   0.69735   0.00000  Uiso   1.00
C187   C     0.04963   0.83714   0.65088   0.00000  Uiso   1.00
C188   C     0.06624   0.79449   0.60020   0.00000  Uiso   1.00
C189   C     0.07166   0.72361   0.50854   0.00000  Uiso   1.00
C190   C     0.10361   0.88832   0.83702   0.00000  Uiso   1.00
C191   C     0.07363   0.88575   0.90798   0.00000  Uiso   1.00
C192   C     0.10122   0.86533   0.97487   0.00000  Uiso   1.00
C193   C     0.12690   0.83549   0.10007   0.00000  Uiso   1.00
C194   C     0.12081   0.95575   0.73095   0.00000  Uiso   1.00
C195   C     0.10530   0.00987   0.71274   0.00000  Uiso   1.00
C196   C     0.14737   0.04622   0.69034   0.00000  Uiso   1.00
C197   C     0.19976   0.12107   0.65084   0.00000  Uiso   1.00
C198   C     0.18391   0.87755   0.74941   0.00000  Uiso   1.00
C199   C     0.14612   0.84471   0.69335   0.00000  Uiso   1.00
C200   C     0.16280   0.80208   0.64271   0.00000  Uiso   1.00
C201   C     0.12189   0.77724   0.59618   0.00000  Uiso   1.00
C202   C     0.15916   0.87111   0.83301   0.00000  Uiso   1.00
C203   C     0.18680   0.85069   0.89981   0.00000  Uiso   1.00
C204   C     0.15688   0.84808   0.97086   0.00000  Uiso   1.00
C205   C     0.17636   0.93854   0.72693   0.00000  Uiso   1.00
C206   C     0.21846   0.97481   0.70457   0.00000  Uiso   1.00
C207   C     0.20303   0.02898   0.68632   0.00000  Uiso   1.00
H208   H     0.03838   0.92264   0.75992   0.00000  Uiso   1.00
H209   H     0.00664   0.85047   0.65401   0.00000  Uiso   1.00
H210   H     0.03064   0.89908   0.91107   0.00000  Uiso   1.00
H211   H     0.06231   0.02318   0.71585   0.00000  Uiso   1.00
H212   H     0.99596   0.76286   0.53484   0.00000  Uiso   1.00
H213   H     0.04657   0.86537   0.07688   0.00000  Uiso   1.00
H214   H     0.11333   0.12706   0.66522   0.00000  Uiso   1.00
H215   H     0.22717   0.86415   0.74629   0.00000  Uiso   1.00
H216   H     0.20579   0.78877   0.63962   0.00000  Uiso   1.00
H217   H     0.22979   0.83738   0.89669   0.00000  Uiso   1.00
H218   H     0.26145   0.96148   0.70147   0.00000  Uiso   1.00
H219   H     0.15759   0.71277   0.52317   0.00000  Uiso   1.00
H220   H     0.20820   0.81529   0.06521   0.00000  Uiso   1.00
H221   H     0.27497   0.07698   0.65355   0.00000  Uiso   1.00
O222   O     0.05930   0.68927   0.45911   0.00000  Uiso   1.00
O223   O     0.12571   0.82378   0.17024   0.00000  Uiso   1.00
O224   O     0.21330   0.16710   0.63015   0.00000  Uiso   1.00
N225   N     0.03693   0.76142   0.54672   0.00000  Uiso   1.00
N226   N     0.08425   0.85726   0.05349   0.00000  Uiso   1.00
N227   N     0.14667   0.10192   0.66865   0.00000  Uiso   1.00
N228   N     0.12391   0.73447   0.54044   0.00000  Uiso   1.00
N229   N     0.17122   0.83031   0.04721   0.00000  Uiso   1.00
N230   N     0.23365   0.07497   0.66236   0.00000  Uiso   1.00
C231   C     0.58163   0.40924   0.25679   0.00000  Uiso   1.00
C232   C     0.59057   0.36192   0.19735   0.00000  Uiso   1.00
C233   C     0.54963   0.33714   0.15088   0.00000  Uiso   1.00
C234   C     0.56624   0.29449   0.10020   0.00000  Uiso   1.00
C235   C     0.57166   0.22361   0.00854   0.00000  Uiso   1.00
C236   C     0.60361   0.38832   0.33702   0.00000  Uiso   1.00
C237   C     0.57363   0.38575   0.40798   0.00000  Uiso   1.00
C238   C     0.60122   0.36533   0.47487   0.00000  Uiso   1.00
C239   C     0.62690   0.33549   0.60007   0.00000  Uiso   1.00
C240   C     0.62081   0.45575   0.23095   0.00000  Uiso   1.00
C241   C     0.60530   0.50987   0.21274   0.00000  Uiso   1.00
C242   C     0.64737   0.54622   0.19034   0.00000  Uiso   1.00
C243   C     0.69976   0.62107   0.15084   0.00000  Uiso   1.00
C244   C     0.68391   0.37755   0.24941   0.00000  Uiso   1.00
C245   C     0.64612   0.34471   0.19335   0.00000  Uiso   1.00
C246   C     0.66280   0.30208   0.14271   0.00000  Uiso   1.00
C247   C     0.62189   0.27724   0.09618   0.00000  Uiso   1.00
C248   C     0.65916   0.37111   0.33301   0.00000  Uiso   1.00
C249   C     0.68680   0.35069   0.39981   0.00000  Uiso   1.00
C250   C     0.65688   0.34808   0.47086   0.00000  Uiso   1.00
C251   C     0.67636   0.43854   0.22693   0.00000  Uiso   1.00
C252   C     0.71846   0.47481   0.20457   0.00000  Uiso   1.00
C253   C     0.70303   0.52898   0.18632   0.00000  Uiso   1.00
H254   H     0.53838   0.42264   0.25992   0.00000  Uiso   1.00
H255   H     0.50664   0.35047   0.15401   0.00000  Uiso   1.00
H256   H     0.53064   0.39908   0.41107   0.00000  Uiso   1.00
H257   H     0.56231   0.52318   0.21585   0.00000  Uiso   1.00
H258   H     0.49596   0.26286   0.03484   0.00000  Uiso   1.00
H259   H     0.54657   0.36537   0.57688   0.00000  Uiso   1.00
H260   H     0.61333   0.62706   0.16522   0.00000  Uiso   1.00
H261   H     0.72717   0.36415   0.24629   0.00000  Uiso   1.00
H262   H     0.70579   0.28877   0.13962   0.00000  Uiso   1.00
H263   H     0.72979   0.33738   0.39669   0.00000  Uiso   1.00
H264   H     0.76145   0.46148   0.20147   0.00000  Uiso   1.00
H265   H     0.65759   0.21277   0.02317   0.00000  Uiso   1.00
H266   H     0.70820   0.31529   0.56521   0.00000  Uiso   1.00
H267   H     0.77497   0.57698   0.15355   0.00000  Uiso   1.00
O268   O     0.55930   0.18927   0.95911   0.00000  Uiso   1.00
O269   O     0.62571   0.32378   0.67024   0.00000  Uiso   1.00
O270   O     0.71330   0.66710   0.13015   0.00000  Uiso   1.00
N271   N     0.53693   0.26142   0.04672   0.00000  Uiso   1.00
N272   N     0.58425   0.35726   0.55349   0.00000  Uiso   1.00
N273   N     0.64667   0.60192   0.16865   0.00000  Uiso   1.00
N274   N     0.62391   0.23447   0.04044   0.00000  Uiso   1.00
N275   N     0.67122   0.33031   0.54721   0.00000  Uiso   1.00
N276   N     0.73365   0.57497   0.16236   0.00000  Uiso   1.00
C277   C     0.41837   0.59076   0.25679   0.00000  Uiso   1.00
C278   C     0.40943   0.63808   0.19735   0.00000  Uiso   1.00
C279   C     0.45037   0.66286   0.15088   0.00000  Uiso   1.00
C280   C     0.43376   0.70551   0.10020   0.00000  Uiso   1.00
C281   C     0.42834   0.77639   0.00854   0.00000  Uiso   1.00
C282   C     0.39639   0.61168   0.33702   0.00000  Uiso   1.00
C283   C     0.42637   0.61425   0.40798   0.00000  Uiso   1.00
C284   C     0.39878   0.63467   0.47487   0.00000  Uiso   1.00
C285   C     0.37310   0.66451   0.60007   0.00000  Uiso   1.00
C286   C     0.37919   0.54425   0.23095   0.00000  Uiso   1.00
C287   C     0.39470   0.49013   0.21274   0.00000  Uiso   1.00
C288   C     0.35263   0.45378   0.19034   0.00000  Uiso   1.00
C289   C     0.30024   0.37893   0.15084   0.00000  Uiso   1.00
C290   C     0.31609   0.62245   0.24941   0.00000  Uiso   1.00
C291   C     0.35388   0.65529   0.19335   0.00000  Uiso   1.00
C292   C     0.33720   0.69792   0.14271   0.00000  Uiso   1.00
C293   C     0.37811   0.72276   0.09618   0.00000  Uiso   1.00
C294   C     0.34084   0.62889   0.33301   0.00000  Uiso   1.00
C295   C     0.31320   0.64931   0.39981   0.00000  Uiso   1.00
C296   C     0.34312   0.65192   0.47086   0.00000  Uiso   1.00
C297   C     0.32364   0.56146   0.22693   0.00000  Uiso   1.00
C298   C     0.28154   0.52519   0.20457   0.00000  Uiso   1.00
C299   C     0.29697   0.47102   0.18632   0.00000  Uiso   1.00
H300   H     0.46162   0.57736   0.25992   0.00000  Uiso   1.00
H301   H     0.49336   0.64953   0.15401   0.00000  Uiso   1.00
H302   H     0.46936   0.60092   0.41107   0.00000  Uiso   1.00
H303   H     0.43769   0.47682   0.21585   0.00000  Uiso   1.00
H304   H     0.50404   0.73714   0.03484   0.00000  Uiso   1.00
H305   H     0.45343   0.63463   0.57688   0.00000  Uiso   1.00
H306   H     0.38667   0.37294   0.16522   0.00000  Uiso   1.00
H307   H     0.27283   0.63585   0.24629   0.00000  Uiso   1.00
H308   H     0.29421   0.71123   0.13962   0.00000  Uiso   1.00
H309   H     0.27021   0.66262   0.39669   0.00000  Uiso   1.00
H310   H     0.23855   0.53852   0.20147   0.00000  Uiso   1.00
H311   H     0.34241   0.78723   0.02317   0.00000  Uiso   1.00
H312   H     0.29180   0.68471   0.56521   0.00000  Uiso   1.00
H313   H     0.22503   0.42302   0.15355   0.00000  Uiso   1.00
O314   O     0.44070   0.81073   0.95911   0.00000  Uiso   1.00
O315   O     0.37429   0.67622   0.67024   0.00000  Uiso   1.00
O316   O     0.28670   0.33290   0.13015   0.00000  Uiso   1.00
N317   N     0.46307   0.73858   0.04672   0.00000  Uiso   1.00
N318   N     0.41575   0.64274   0.55349   0.00000  Uiso   1.00
N319   N     0.35333   0.39808   0.16865   0.00000  Uiso   1.00
N320   N     0.37609   0.76553   0.04044   0.00000  Uiso   1.00
N321   N     0.32878   0.66969   0.54721   0.00000  Uiso   1.00
N322   N     0.26635   0.42503   0.16236   0.00000  Uiso   1.00
C323   C     0.91837   0.09076   0.75679   0.00000  Uiso   1.00
C324   C     0.90943   0.13808   0.69735   0.00000  Uiso   1.00
C325   C     0.95037   0.16286   0.65088   0.00000  Uiso   1.00
C326   C     0.93376   0.20551   0.60020   0.00000  Uiso   1.00
C327   C     0.92834   0.27639   0.50854   0.00000  Uiso   1.00
C328   C     0.89639   0.11168   0.83702   0.00000  Uiso   1.00
C329   C     0.92637   0.11425   0.90798   0.00000  Uiso   1.00
C330   C     0.89878   0.13467   0.97487   0.00000  Uiso   1.00
C331   C     0.87310   0.16451   0.10007   0.00000  Uiso   1.00
C332   C     0.87919   0.04425   0.73095   0.00000  Uiso   1.00
C333   C     0.89470   0.99013   0.71274   0.00000  Uiso   1.00
C334   C     0.85263   0.95378   0.69034   0.00000  Uiso   1.00
C335   C     0.80024   0.87893   0.65084   0.00000  Uiso   1.00
C336   C     0.81609   0.12245   0.74941   0.00000  Uiso   1.00
C337   C     0.85388   0.15529   0.69335   0.00000  Uiso   1.00
C338   C     0.83720   0.19792   0.64271   0.00000  Uiso   1.00
C339   C     0.87811   0.22276   0.59618   0.00000  Uiso   1.00
C340   C     0.84084   0.12889   0.83301   0.00000  Uiso   1.00
C341   C     0.81320   0.14931   0.89981   0.00000  Uiso   1.00
C342   C     0.84312   0.15192   0.97086   0.00000  Uiso   1.00
C343   C     0.82364   0.06146   0.72693   0.00000  Uiso   1.00
C344   C     0.78154   0.02519   0.70457   0.00000  Uiso   1.00
C345   C     0.79697   0.97102   0.68632   0.00000  Uiso   1.00
H346   H     0.96162   0.07736   0.75992   0.00000  Uiso   1.00
H347   H     0.99336   0.14953   0.65401   0.00000  Uiso   1.00
H348   H     0.96936   0.10092   0.91107   0.00000  Uiso   1.00
H349   H     0.93769   0.97682   0.71585   0.00000  Uiso   1.00
H350   H     0.00404   0.23714   0.53484   0.00000  Uiso   1.00
H351   H     0.95343   0.13463   0.07688   0.00000  Uiso   1.00
H352   H     0.88667   0.87294   0.66522   0.00000  Uiso   1.00
H353   H     0.77283   0.13585   0.74629   0.00000  Uiso   1.00
H354   H     0.79421   0.21123   0.63962   0.00000  Uiso   1.00
H355   H     0.77021   0.16262   0.89669   0.00000  Uiso   1.00
H356   H     0.73855   0.03852   0.70147   0.00000  Uiso   1.00
H357   H     0.84241   0.28723   0.52317   0.00000  Uiso   1.00
H358   H     0.79180   0.18471   0.06521   0.00000  Uiso   1.00
H359   H     0.72503   0.92302   0.65355   0.00000  Uiso   1.00
O360   O     0.94070   0.31073   0.45911   0.00000  Uiso   1.00
O361   O     0.87429   0.17622   0.17024   0.00000  Uiso   1.00
O362   O     0.78670   0.83290   0.63015   0.00000  Uiso   1.00
N363   N     0.96307   0.23858   0.54672   0.00000  Uiso   1.00
N364   N     0.91575   0.14274   0.05349   0.00000  Uiso   1.00
N365   N     0.85333   0.89808   0.66865   0.00000  Uiso   1.00
N366   N     0.87609   0.26553   0.54044   0.00000  Uiso   1.00
N367   N     0.82878   0.16969   0.04721   0.00000  Uiso   1.00
N368   N     0.76635   0.92503   0.66236   0.00000  Uiso   1.00
C369   C     0.59076   0.58163   0.74321   0.00000  Uiso   1.00
C370   C     0.63808   0.59057   0.80265   0.00000  Uiso   1.00
C371   C     0.66286   0.54963   0.84912   0.00000  Uiso   1.00
C372   C     0.70551   0.56624   0.89980   0.00000  Uiso   1.00
C373   C     0.77639   0.57166   0.99146   0.00000  Uiso   1.00
C374   C     0.61168   0.60361   0.66298   0.00000  Uiso   1.00
C375   C     0.61425   0.57363   0.59202   0.00000  Uiso   1.00
C376   C     0.63467   0.60122   0.52513   0.00000  Uiso   1.00
C377   C     0.66451   0.62690   0.39993   0.00000  Uiso   1.00
C378   C     0.54425   0.62081   0.76905   0.00000  Uiso   1.00
C379   C     0.49013   0.60530   0.78726   0.00000  Uiso   1.00
C380   C     0.45378   0.64737   0.80966   0.00000  Uiso   1.00
C381   C     0.37893   0.69976   0.84916   0.00000  Uiso   1.00
C382   C     0.62245   0.68391   0.75059   0.00000  Uiso   1.00
C383   C     0.65529   0.64612   0.80665   0.00000  Uiso   1.00
C384   C     0.69792   0.66280   0.85729   0.00000  Uiso   1.00
C385   C     0.72276   0.62189   0.90382   0.00000  Uiso   1.00
C386   C     0.62889   0.65916   0.66699   0.00000  Uiso   1.00
C387   C     0.64931   0.68680   0.60019   0.00000  Uiso   1.00
C388   C     0.65192   0.65688   0.52914   0.00000  Uiso   1.00
C389   C     0.56146   0.67636   0.77307   0.00000  Uiso   1.00
C390   C     0.52519   0.71846   0.79543   0.00000  Uiso   1.00
C391   C     0.47102   0.70303   0.81368   0.00000  Uiso   1.00
H392   H     0.57736   0.53838   0.74008   0.00000  Uiso   1.00
H393   H     0.64953   0.50664   0.84599   0.00000  Uiso   1.00
H394   H     0.60092   0.53064   0.58893   0.00000  Uiso   1.00
H395   H     0.47682   0.56231   0.78415   0.00000  Uiso   1.00
H396   H     0.73714   0.49596   0.96516   0.00000  Uiso   1.00
H397   H     0.63463   0.54657   0.42312   0.00000  Uiso   1.00
H398   H     0.37294   0.61333   0.83478   0.00000  Uiso   1.00
H399   H     0.63585   0.72717   0.75371   0.00000  Uiso   1.00
H400   H     0.71123   0.70579   0.86038   0.00000  Uiso   1.00
H401   H     0.66262   0.72979   0.60331   0.00000  Uiso   1.00
H402   H     0.53852   0.76145   0.79853   0.00000  Uiso   1.00
H403   H     0.78723   0.65759   0.97683   0.00000  Uiso   1.00
H404   H     0.68471   0.70820   0.43479   0.00000  Uiso   1.00
H405   H     0.42302   0.77497   0.84645   0.00000  Uiso   1.00
O406   O     0.81073   0.55930   0.04089   0.00000  Uiso   1.00
O407   O     0.67622   0.62571   0.32976   0.00000  Uiso   1.00
O408   O     0.33290   0.71330   0.86985   0.00000  Uiso   1.00
N409   N     0.73858   0.53693   0.95328   0.00000  Uiso   1.00
N410   N     0.64274   0.58425   0.44651   0.00000  Uiso   1.00
N411   N     0.39808   0.64667   0.83135   0.00000  Uiso   1.00
N412   N     0.76553   0.62391   0.95956   0.00000  Uiso   1.00
N413   N     0.66969   0.67122   0.45279   0.00000  Uiso   1.00
N414   N     0.42503   0.73365   0.83764   0.00000  Uiso   1.00
C415   C     0.09076   0.08163   0.24321   0.00000  Uiso   1.00
C416   C     0.13808   0.09057   0.30265   0.00000  Uiso   1.00
C417   C     0.16286   0.04963   0.34912   0.00000  Uiso   1.00
C418   C     0.20551   0.06624   0.39980   0.00000  Uiso   1.00
C419   C     0.27639   0.07166   0.49146   0.00000  Uiso   1.00
C420   C     0.11168   0.10361   0.16298   0.00000  Uiso   1.00
C421   C     0.11425   0.07363   0.09202   0.00000  Uiso   1.00
C422   C     0.13467   0.10122   0.02513   0.00000  Uiso   1.00
C423   C     0.16451   0.12690   0.89993   0.00000  Uiso   1.00
C424   C     0.04425   0.12081   0.26905   0.00000  Uiso   1.00
C425   C     0.99013   0.10530   0.28726   0.00000  Uiso   1.00
C426   C     0.95378   0.14737   0.30966   0.00000  Uiso   1.00
C427   C     0.87893   0.19976   0.34916   0.00000  Uiso   1.00
C428   C     0.12245   0.18391   0.25059   0.00000  Uiso   1.00
C429   C     0.15529   0.14612   0.30665   0.00000  Uiso   1.00
C430   C     0.19792   0.16280   0.35729   0.00000  Uiso   1.00
C431   C     0.22276   0.12189   0.40382   0.00000  Uiso   1.00
C432   C     0.12889   0.15916   0.16699   0.00000  Uiso   1.00
C433   C     0.14931   0.18680   0.10019   0.00000  Uiso   1.00
C434   C     0.15192   0.15688   0.02914   0.00000  Uiso   1.00
C435   C     0.06146   0.17636   0.27307   0.00000  Uiso   1.00
C436   C     0.02519   0.21846   0.29543   0.00000  Uiso   1.00
C437   C     0.97102   0.20303   0.31368   0.00000  Uiso   1.00
H438   H     0.07736   0.03838   0.24008   0.00000  Uiso   1.00
H439   H     0.14953   0.00664   0.34599   0.00000  Uiso   1.00
H440   H     0.10092   0.03064   0.08893   0.00000  Uiso   1.00
H441   H     0.97682   0.06231   0.28415   0.00000  Uiso   1.00
H442   H     0.23714   0.99596   0.46516   0.00000  Uiso   1.00
H443   H     0.13463   0.04657   0.92312   0.00000  Uiso   1.00
H444   H     0.87294   0.11333   0.33478   0.00000  Uiso   1.00
H445   H     0.13585   0.22717   0.25371   0.00000  Uiso   1.00
H446   H     0.21123   0.20579   0.36038   0.00000  Uiso   1.00
H447   H     0.16262   0.22979   0.10331   0.00000  Uiso   1.00
H448   H     0.03852   0.26145   0.29853   0.00000  Uiso   1.00
H449   H     0.28723   0.15759   0.47683   0.00000  Uiso   1.00
H450   H     0.18471   0.20820   0.93479   0.00000  Uiso   1.00
H451   H     0.92302   0.27497   0.34645   0.00000  Uiso   1.00
O452   O     0.31073   0.05930   0.54089   0.00000  Uiso   1.00
O453   O     0.17622   0.12571   0.82976   0.00000  Uiso   1.00
O454   O     0.83290   0.21330   0.36985   0.00000  Uiso   1.00
N455   N     0.23858   0.03693   0.45328   0.00000  Uiso   1.00
N456   N     0.14274   0.08425   0.94651   0.00000  Uiso   1.00
N457   N     0.89808   0.14667   0.33135   0.00000  Uiso   1.00
N458   N     0.26553   0.12391   0.45956   0.00000  Uiso   1.00
N459   N     0.16969   0.17122   0.95279   0.00000  Uiso   1.00
N460   N     0.92503   0.23365   0.33764   0.00000  Uiso   1.00
C461   C     0.90924   0.91837   0.24321   0.00000  Uiso   1.00
C462   C     0.86192   0.90943   0.30265   0.00000  Uiso   1.00
C463   C     0.83714   0.95037   0.34912   0.00000  Uiso   1.00
C464   C     0.79449   0.93376   0.39980   0.00000  Uiso   1.00
C465   C     0.72361   0.92834   0.49146   0.00000  Uiso   1.00
C466   C     0.88832   0.89639   0.16298   0.00000  Uiso   1.00
C467   C     0.88575   0.92637   0.09202   0.00000  Uiso   1.00
C468   C     0.86533   0.89878   0.02513   0.00000  Uiso   1.00
C469   C     0.83549   0.87310   0.89993   0.00000  Uiso   1.00
C470   C     0.95575   0.87919   0.26905   0.00000  Uiso   1.00
C471   C     0.00987   0.89470   0.28726   0.00000  Uiso   1.00
C472   C     0.04622   0.85263   0.30966   0.00000  Uiso   1.00
C473   C     0.12107   0.80024   0.34916   0.00000  Uiso   1.00
C474   C     0.87755   0.81609   0.25059   0.00000  Uiso   1.00
C475   C     0.84471   0.85388   0.30665   0.00000  Uiso   1.00
C476   C     0.80208   0.83720   0.35729   0.00000  Uiso   1.00
C477   C     0.77724   0.87811   0.40382   0.00000  Uiso   1.00
C478   C     0.87111   0.84084   0.16699   0.00000  Uiso   1.00
C479   C     0.85069   0.81320   0.10019   0.00000  Uiso   1.00
C480   C     0.84808   0.84312   0.02914   0.00000  Uiso   1.00
C481   C     0.93854   0.82364   0.27307   0.00000  Uiso   1.00
C482   C     0.97481   0.78154   0.29543   0.00000  Uiso   1.00
C483   C     0.02898   0.79697   0.31368   0.00000  Uiso   1.00
H484   H     0.92264   0.96162   0.24008   0.00000  Uiso   1.00
H485   H     0.85047   0.99336   0.34599   0.00000  Uiso   1.00
H486   H     0.89908   0.96936   0.08893   0.00000  Uiso   1.00
H487   H     0.02318   0.93769   0.28415   0.00000  Uiso   1.00
H488   H     0.76286   0.00404   0.46516   0.00000  Uiso   1.00
H489   H     0.86537   0.95343   0.92312   0.00000  Uiso   1.00
H490   H     0.12706   0.88667   0.33478   0.00000  Uiso   1.00
H491   H     0.86415   0.77283   0.25371   0.00000  Uiso   1.00
H492   H     0.78877   0.79421   0.36038   0.00000  Uiso   1.00
H493   H     0.83738   0.77021   0.10331   0.00000  Uiso   1.00
H494   H     0.96148   0.73855   0.29853   0.00000  Uiso   1.00
H495   H     0.71277   0.84241   0.47683   0.00000  Uiso   1.00
H496   H     0.81529   0.79180   0.93479   0.00000  Uiso   1.00
H497   H     0.07698   0.72503   0.34645   0.00000  Uiso   1.00
O498   O     0.68927   0.94070   0.54089   0.00000  Uiso   1.00
O499   O     0.82378   0.87429   0.82976   0.00000  Uiso   1.00
O500   O     0.16710   0.78670   0.36985   0.00000  Uiso   1.00
N501   N     0.76142   0.96307   0.45328   0.00000  Uiso   1.00
N502   N     0.85726   0.91575   0.94651   0.00000  Uiso   1.00
N503   N     0.10192   0.85333   0.33135   0.00000  Uiso   1.00
N504   N     0.73447   0.87609   0.45956   0.00000  Uiso   1.00
N505   N     0.83031   0.82878   0.95279   0.00000  Uiso   1.00
N506   N     0.07497   0.76635   0.33764   0.00000  Uiso   1.00
C507   C     0.40924   0.41837   0.74321   0.00000  Uiso   1.00
C508   C     0.36192   0.40943   0.80265   0.00000  Uiso   1.00
C509   C     0.33714   0.45037   0.84912   0.00000  Uiso   1.00
C510   C     0.29449   0.43376   0.89980   0.00000  Uiso   1.00
C511   C     0.22361   0.42834   0.99146   0.00000  Uiso   1.00
C512   C     0.38832   0.39639   0.66298   0.00000  Uiso   1.00
C513   C     0.38575   0.42637   0.59202   0.00000  Uiso   1.00
C514   C     0.36533   0.39878   0.52513   0.00000  Uiso   1.00
C515   C     0.33549   0.37310   0.39993   0.00000  Uiso   1.00
C516   C     0.45575   0.37919   0.76905   0.00000  Uiso   1.00
C517   C     0.50987   0.39470   0.78726   0.00000  Uiso   1.00
C518   C     0.54622   0.35263   0.80966   0.00000  Uiso   1.00
C519   C     0.62107   0.30024   0.84916   0.00000  Uiso   1.00
C520   C     0.37755   0.31609   0.75059   0.00000  Uiso   1.00
C521   C     0.34471   0.35388   0.80665   0.00000  Uiso   1.00
C522   C     0.30208   0.33720   0.85729   0.00000  Uiso   1.00
C523   C     0.27724   0.37811   0.90382   0.00000  Uiso   1.00
C524   C     0.37111   0.34084   0.66699   0.00000  Uiso   1.00
C525   C     0.35069   0.31320   0.60019   0.00000  Uiso   1.00
C526   C     0.34808   0.34312   0.52914   0.00000  Uiso   1.00
C527   C     0.43854   0.32364   0.77307   0.00000  Uiso   1.00
C528   C     0.47481   0.28154   0.79543   0.00000  Uiso   1.00
C529   C     0.52898   0.29697   0.81368   0.00000  Uiso   1.00
H530   H     0.42264   0.46162   0.74008   0.00000  Uiso   1.00
H531   H     0.35047   0.49336   0.84599   0.00000  Uiso   1.00
H532   H     0.39908   0.46936   0.58893   0.00000  Uiso   1.00
H533   H     0.52318   0.43769   0.78415   0.00000  Uiso   1.00
H534   H     0.26286   0.50404   0.96516   0.00000  Uiso   1.00
H535   H     0.36537   0.45343   0.42312   0.00000  Uiso   1.00
H536   H     0.62706   0.38667   0.83478   0.00000  Uiso   1.00
H537   H     0.36415   0.27283   0.75371   0.00000  Uiso   1.00
H538   H     0.28877   0.29421   0.86038   0.00000  Uiso   1.00
H539   H     0.33738   0.27021   0.60331   0.00000  Uiso   1.00
H540   H     0.46148   0.23855   0.79853   0.00000  Uiso   1.00
H541   H     0.21277   0.34241   0.97683   0.00000  Uiso   1.00
H542   H     0.31529   0.29180   0.43479   0.00000  Uiso   1.00
H543   H     0.57698   0.22503   0.84645   0.00000  Uiso   1.00
O544   O     0.18927   0.44070   0.04089   0.00000  Uiso   1.00
O545   O     0.32378   0.37429   0.32976   0.00000  Uiso   1.00
O546   O     0.66710   0.28670   0.86985   0.00000  Uiso   1.00
N547   N     0.26142   0.46307   0.95328   0.00000  Uiso   1.00
N548   N     0.35726   0.41575   0.44651   0.00000  Uiso   1.00
N549   N     0.60192   0.35333   0.83135   0.00000  Uiso   1.00
N550   N     0.23447   0.37609   0.95956   0.00000  Uiso   1.00
N551   N     0.33031   0.32878   0.45279   0.00000  Uiso   1.00
N552   N     0.57497   0.26635   0.83764   0.00000  Uiso   1.00
C553   C     0.91837   0.59076   0.49321   0.00000  Uiso   1.00
C554   C     0.90943   0.63808   0.55265   0.00000  Uiso   1.00
C555   C     0.95037   0.66286   0.59912   0.00000  Uiso   1.00
C556   C     0.93376   0.70551   0.64980   0.00000  Uiso   1.00
C557   C     0.92834   0.77639   0.74146   0.00000  Uiso   1.00
C558   C     0.89639   0.61168   0.41298   0.00000  Uiso   1.00
C559   C     0.92637   0.61425   0.34202   0.00000  Uiso   1.00
C560   C     0.89878   0.63467   0.27513   0.00000  Uiso   1.00
C561   C     0.87310   0.66451   0.14993   0.00000  Uiso   1.00
C562   C     0.87919   0.54425   0.51905   0.00000  Uiso   1.00
C563   C     0.89470   0.49013   0.53726   0.00000  Uiso   1.00
C564   C     0.85263   0.45378   0.55966   0.00000  Uiso   1.00
C565   C     0.80024   0.37893   0.59916   0.00000  Uiso   1.00
C566   C     0.81609   0.62245   0.50059   0.00000  Uiso   1.00
C567   C     0.85388   0.65529   0.55665   0.00000  Uiso   1.00
C568   C     0.83720   0.69792   0.60729   0.00000  Uiso   1.00
C569   C     0.87811   0.72276   0.65382   0.00000  Uiso   1.00
C570   C     0.84084   0.62889   0.41699   0.00000  Uiso   1.00
C571   C     0.81320   0.64931   0.35019   0.00000  Uiso   1.00
C572   C     0.84312   0.65192   0.27914   0.00000  Uiso   1.00
C573   C     0.82364   0.56146   0.52307   0.00000  Uiso   1.00
C574   C     0.78154   0.52519   0.54543   0.00000  Uiso   1.00
C575   C     0.79697   0.47102   0.56368   0.00000  Uiso   1.00
H576   H     0.96162   0.57736   0.49008   0.00000  Uiso   1.00
H577   H     0.99336   0.64953   0.59599   0.00000  Uiso   1.00
H578   H     0.96936   0.60092   0.33893   0.00000  Uiso   1.00
H579   H     0.93769   0.47682   0.53415   0.00000  Uiso   1.00
H580   H     0.00404   0.73714   0.71516   0.00000  Uiso   1.00
H581   H     0.95343   0.63463   0.17312   0.00000  Uiso   1.00
H582   H     0.88667   0.37294   0.58478   0.00000  Uiso   1.00
H583   H     0.77283   0.63585   0.50371   0.00000  Uiso   1.00
H584   H     0.79421   0.71123   0.61038   0.00000  Uiso   1.00
H585   H     0.77021   0.66262   0.35331   0.00000  Uiso   1.00
H586   H     0.73855   0.53852   0.54853   0.00000  Uiso   1.00
H587   H     0.84241   0.78723   0.72683   0.00000  Uiso   1.00
H588   H     0.79180   0.68471   0.18479   0.00000  Uiso   1.00
H589   H     0.72503   0.42302   0.59645   0.00000  Uiso   1.00
O590   O     0.94070   0.81073   0.79089   0.00000  Uiso   1.00
O591   O     0.87429   0.67622   0.07976   0.00000  Uiso   1.00
O592   O     0.78670   0.33290   0.61985   0.00000  Uiso   1.00
N593   N     0.96307   0.73858   0.70328   0.00000  Uiso   1.00
N594   N     0.91575   0.64274   0.19651   0.00000  Uiso   1.00
N595   N     0.85333   0.39808   0.58135   0.00000  Uiso   1.00
N596   N     0.87609   0.76553   0.70956   0.00000  Uiso   1.00
N597   N     0.82878   0.66969   0.20279   0.00000  Uiso   1.00
N598   N     0.76635   0.42503   0.58764   0.00000  Uiso   1.00
C599   C     0.41837   0.09076   0.99321   0.00000  Uiso   1.00
C600   C     0.40943   0.13808   0.05265   0.00000  Uiso   1.00
C601   C     0.45037   0.16286   0.09912   0.00000  Uiso   1.00
C602   C     0.43376   0.20551   0.14980   0.00000  Uiso   1.00
C603   C     0.42834   0.27639   0.24146   0.00000  Uiso   1.00
C604   C     0.39639   0.11168   0.91298   0.00000  Uiso   1.00
C605   C     0.42637   0.11425   0.84202   0.00000  Uiso   1.00
C606   C     0.39878   0.13467   0.77513   0.00000  Uiso   1.00
C607   C     0.37310   0.16451   0.64993   0.00000  Uiso   1.00
C608   C     0.37919   0.04425   0.01905   0.00000  Uiso   1.00
C609   C     0.39470   0.99013   0.03726   0.00000  Uiso   1.00
C610   C     0.35263   0.95378   0.05966   0.00000  Uiso   1.00
C611   C     0.30024   0.87893   0.09916   0.00000  Uiso   1.00
C612   C     0.31609   0.12245   0.00059   0.00000  Uiso   1.00
C613   C     0.35388   0.15529   0.05665   0.00000  Uiso   1.00
C614   C     0.33720   0.19792   0.10729   0.00000  Uiso   1.00
C615   C     0.37811   0.22276   0.15382   0.00000  Uiso   1.00
C616   C     0.34084   0.12889   0.91699   0.00000  Uiso   1.00
C617   C     0.31320   0.14931   0.85019   0.00000  Uiso   1.00
C618   C     0.34312   0.15192   0.77914   0.00000  Uiso   1.00
C619   C     0.32364   0.06146   0.02307   0.00000  Uiso   1.00
C620   C     0.28154   0.02519   0.04543   0.00000  Uiso   1.00
C621   C     0.29697   0.97102   0.06368   0.00000  Uiso   1.00
H622   H     0.46162   0.07736   0.99008   0.00000  Uiso   1.00
H623   H     0.49336   0.14953   0.09599   0.00000  Uiso   1.00
H624   H     0.46936   0.10092   0.83893   0.00000  Uiso   1.00
H625   H     0.43769   0.97682   0.03415   0.00000  Uiso   1.00
H626   H     0.50404   0.23714   0.21516   0.00000  Uiso   1.00
H627   H     0.45343   0.13463   0.67312   0.00000  Uiso   1.00
H628   H     0.38667   0.87294   0.08478   0.00000  Uiso   1.00
H629   H     0.27283   0.13585   0.00371   0.00000  Uiso   1.00
H630   H     0.29421   0.21123   0.11038   0.00000  Uiso   1.00
H631   H     0.27021   0.16262   0.85331   0.00000  Uiso   1.00
H632   H     0.23855   0.03852   0.04853   0.00000  Uiso   1.00
H633   H     0.34241   0.28723   0.22683   0.00000  Uiso   1.00
H634   H     0.29180   0.18471   0.68479   0.00000  Uiso   1.00
H635   H     0.22503   0.92302   0.09645   0.00000  Uiso   1.00
O636   O     0.44070   0.31073   0.29089   0.00000  Uiso   1.00
O637   O     0.37429   0.17622   0.57976   0.00000  Uiso   1.00
O638   O     0.28670   0.83290   0.11985   0.00000  Uiso   1.00
N639   N     0.46307   0.23858   0.20328   0.00000  Uiso   1.00
N640   N     0.41575   0.14274   0.69651   0.00000  Uiso   1.00
N641   N     0.35333   0.89808   0.08135   0.00000  Uiso   1.00
N642   N     0.37609   0.26553   0.20956   0.00000  Uiso   1.00
N643   N     0.32878   0.16969   0.70279   0.00000  Uiso   1.00
N644   N     0.26635   0.92503   0.08764   0.00000  Uiso   1.00
C645   C     0.58163   0.90924   0.99321   0.00000  Uiso   1.00
C646   C     0.59057   0.86192   0.05265   0.00000  Uiso   1.00
C647   C     0.54963   0.83714   0.09912   0.00000  Uiso   1.00
C648   C     0.56624   0.79449   0.14980   0.00000  Uiso   1.00
C649   C     0.57166   0.72361   0.24146   0.00000  Uiso   1.00
C650   C     0.60361   0.88832   0.91298   0.00000  Uiso   1.00
C651   C     0.57363   0.88575   0.84202   0.00000  Uiso   1.00
C652   C     0.60122   0.86533   0.77513   0.00000  Uiso   1.00
C653   C     0.62690   0.83549   0.64993   0.00000  Uiso   1.00
C654   C     0.62081   0.95575   0.01905   0.00000  Uiso   1.00
C655   C     0.60530   0.00987   0.03726   0.00000  Uiso   1.00
C656   C     0.64737   0.04622   0.05966   0.00000  Uiso   1.00
C657   C     0.69976   0.12107   0.09916   0.00000  Uiso   1.00
C658   C     0.68391   0.87755   0.00059   0.00000  Uiso   1.00
C659   C     0.64612   0.84471   0.05665   0.00000  Uiso   1.00
C660   C     0.66280   0.80208   0.10729   0.00000  Uiso   1.00
C661   C     0.62189   0.77724   0.15382   0.00000  Uiso   1.00
C662   C     0.65916   0.87111   0.91699   0.00000  Uiso   1.00
C663   C     0.68680   0.85069   0.85019   0.00000  Uiso   1.00
C664   C     0.65688   0.84808   0.77914   0.00000  Uiso   1.00
C665   C     0.67636   0.93854   0.02307   0.00000  Uiso   1.00
C666   C     0.71846   0.97481   0.04543   0.00000  Uiso   1.00
C667   C     0.70303   0.02898   0.06368   0.00000  Uiso   1.00
H668   H     0.53838   0.92264   0.99008   0.00000  Uiso   1.00
H669   H     0.50664   0.85047   0.09599   0.00000  Uiso   1.00
H670   H     0.53064   0.89908   0.83893   0.00000  Uiso   1.00
H671   H     0.56231   0.02318   0.03415   0.00000  Uiso   1.00
H672   H     0.49596   0.76286   0.21516   0.00000  Uiso   1.00
H673   H     0.54657   0.86537   0.67312   0.00000  Uiso   1.00
H674   H     0.61333   0.12706   0.08478   0.00000  Uiso   1.00
H675   H     0.72717   0.86415   0.00371   0.00000  Uiso   1.00
H676   H     0.70579   0.78877   0.11038   0.00000  Uiso   1.00
H677   H     0.72979   0.83738   0.85331   0.00000  Uiso   1.00
H678   H     0.76145   0.96148   0.04853   0.00000  Uiso   1.00
H679   H     0.65759   0.71277   0.22683   0.00000  Uiso   1.00
H680   H     0.70820   0.81529   0.68479   0.00000  Uiso   1.00
H681   H     0.77497   0.07698   0.09645   0.00000  Uiso   1.00
O682   O     0.55930   0.68927   0.29089   0.00000  Uiso   1.00
O683   O     0.62571   0.82378   0.57976   0.00000  Uiso   1.00
O684   O     0.71330   0.16710   0.11985   0.00000  Uiso   1.00
N685   N     0.53693   0.76142   0.20328   0.00000  Uiso   1.00
N686   N     0.58425   0.85726   0.69651   0.00000  Uiso   1.00
N687   N     0.64667   0.10192   0.08135   0.00000  Uiso   1.00
N688   N     0.62391   0.73447   0.20956   0.00000  Uiso   1.00
N689   N     0.67122   0.83031   0.70279   0.00000  Uiso   1.00
N690   N     0.73365   0.07497   0.08764   0.00000  Uiso   1.00
C691   C     0.08163   0.40924   0.49321   0.00000  Uiso   1.00
C692   C     0.09057   0.36192   0.55265   0.00000  Uiso   1.00
C693   C     0.04963   0.33714   0.59912   0.00000  Uiso   1.00
C694   C     0.06624   0.29449   0.64980   0.00000  Uiso   1.00
C695   C     0.07166   0.22361   0.74146   0.00000  Uiso   1.00
C696   C     0.10361   0.38832   0.41298   0.00000  Uiso   1.00
C697   C     0.07363   0.38575   0.34202   0.00000  Uiso   1.00
C698   C     0.10122   0.36533   0.27513   0.00000  Uiso   1.00
C699   C     0.12690   0.33549   0.14993   0.00000  Uiso   1.00
C700   C     0.12081   0.45575   0.51905   0.00000  Uiso   1.00
C701   C     0.10530   0.50987   0.53726   0.00000  Uiso   1.00
C702   C     0.14737   0.54622   0.55966   0.00000  Uiso   1.00
C703   C     0.19976   0.62107   0.59916   0.00000  Uiso   1.00
C704   C     0.18391   0.37755   0.50059   0.00000  Uiso   1.00
C705   C     0.14612   0.34471   0.55665   0.00000  Uiso   1.00
C706   C     0.16280   0.30208   0.60729   0.00000  Uiso   1.00
C707   C     0.12189   0.27724   0.65382   0.00000  Uiso   1.00
C708   C     0.15916   0.37111   0.41699   0.00000  Uiso   1.00
C709   C     0.18680   0.35069   0.35019   0.00000  Uiso   1.00
C710   C     0.15688   0.34808   0.27914   0.00000  Uiso   1.00
C711   C     0.17636   0.43854   0.52307   0.00000  Uiso   1.00
C712   C     0.21846   0.47481   0.54543   0.00000  Uiso   1.00
C713   C     0.20303   0.52898   0.56368   0.00000  Uiso   1.00
H714   H     0.03838   0.42264   0.49008   0.00000  Uiso   1.00
H715   H     0.00664   0.35047   0.59599   0.00000  Uiso   1.00
H716   H     0.03064   0.39908   0.33893   0.00000  Uiso   1.00
H717   H     0.06231   0.52318   0.53415   0.00000  Uiso   1.00
H718   H     0.99596   0.26286   0.71516   0.00000  Uiso   1.00
H719   H     0.04657   0.36537   0.17312   0.00000  Uiso   1.00
H720   H     0.11333   0.62706   0.58478   0.00000  Uiso   1.00
H721   H     0.22717   0.36415   0.50371   0.00000  Uiso   1.00
H722   H     0.20579   0.28877   0.61038   0.00000  Uiso   1.00
H723   H     0.22979   0.33738   0.35331   0.00000  Uiso   1.00
H724   H     0.26145   0.46148   0.54853   0.00000  Uiso   1.00
H725   H     0.15759   0.21277   0.72683   0.00000  Uiso   1.00
H726   H     0.20820   0.31529   0.18479   0.00000  Uiso   1.00
H727   H     0.27497   0.57698   0.59645   0.00000  Uiso   1.00
O728   O     0.05930   0.18927   0.79089   0.00000  Uiso   1.00
O729   O     0.12571   0.32378   0.07976   0.00000  Uiso   1.00
O730   O     0.21330   0.66710   0.61985   0.00000  Uiso   1.00
N731   N     0.03693   0.26142   0.70328   0.00000  Uiso   1.00
N732   N     0.08425   0.35726   0.19651   0.00000  Uiso   1.00
N733   N     0.14667   0.60192   0.58135   0.00000  Uiso   1.00
N734   N     0.12391   0.23447   0.70956   0.00000  Uiso   1.00
N735   N     0.17122   0.33031   0.20279   0.00000  Uiso   1.00
N736   N     0.23365   0.57497   0.58764   0.00000  Uiso   1.00
