data_job_00366
_audit_creation_date              2018-12-19
_audit_creation_method            'Materials Studio'
_symmetry_space_group_name_H-M    'P1'
_symmetry_Int_Tables_number       1
_symmetry_cell_setting            triclinic
loop_
_symmetry_equiv_pos_as_xyz
  x,y,z
_cell_length_a                    27.8372
_cell_length_b                    27.8372
_cell_length_c                    14.4571
_cell_angle_alpha                 90.0000
_cell_angle_beta                  90.0000
_cell_angle_gamma                 90.0000
loop_
_atom_site_label
_atom_site_type_symbol
_atom_site_fract_x
_atom_site_fract_y
_atom_site_fract_z
_atom_site_U_iso_or_equiv
_atom_site_adp_type
_atom_site_occupancy
C1     C     0.57590   0.26820   0.34196   0.00000  Uiso   1.00
C2     C     0.55653   0.30557   0.27445   0.00000  Uiso   1.00
C3     C     0.50875   0.31124   0.24931   0.00000  Uiso   1.00
C4     C     0.49835   0.34752   0.18653   0.00000  Uiso   1.00
C5     C     0.46279   0.40103   0.08719   0.00000  Uiso   1.00
C6     C     0.61406   0.24006   0.28914   0.00000  Uiso   1.00
C7     C     0.61466   0.19065   0.27637   0.00000  Uiso   1.00
C8     C     0.65270   0.17179   0.22597   0.00000  Uiso   1.00
C9     C     0.70648   0.12360   0.14949   0.00000  Uiso   1.00
C10    C     0.60267   0.29621   0.41652   0.00000  Uiso   1.00
C11    C     0.59369   0.29401   0.51085   0.00000  Uiso   1.00
C12    C     0.62214   0.32241   0.56770   0.00000  Uiso   1.00
C13    C     0.65822   0.36141   0.68899   0.00000  Uiso   1.00
C14    C     0.64239   0.32255   0.27518   0.00000  Uiso   1.00
C15    C     0.59265   0.33509   0.23818   0.00000  Uiso   1.00
C16    C     0.58232   0.37137   0.17542   0.00000  Uiso   1.00
C17    C     0.53453   0.37710   0.15019   0.00000  Uiso   1.00
C18    C     0.65018   0.26958   0.25287   0.00000  Uiso   1.00
C19    C     0.68823   0.25079   0.20248   0.00000  Uiso   1.00
C20    C     0.68888   0.20136   0.18963   0.00000  Uiso   1.00
C21    C     0.63878   0.32574   0.38025   0.00000  Uiso   1.00
C22    C     0.66725   0.35415   0.43696   0.00000  Uiso   1.00
C23    C     0.65832   0.35199   0.53136   0.00000  Uiso   1.00
H24    H     0.54778   0.24521   0.37020   0.00000  Uiso   1.00
H25    H     0.48081   0.28838   0.27739   0.00000  Uiso   1.00
H26    H     0.58671   0.16781   0.30446   0.00000  Uiso   1.00
H27    H     0.56574   0.27116   0.53890   0.00000  Uiso   1.00
H28    H     0.42250   0.34924   0.15847   0.00000  Uiso   1.00
H29    H     0.64579   0.09503   0.21557   0.00000  Uiso   1.00
H30    H     0.60158   0.31294   0.70994   0.00000  Uiso   1.00
H31    H     0.67051   0.34554   0.24694   0.00000  Uiso   1.00
H32    H     0.61027   0.39421   0.14736   0.00000  Uiso   1.00
H33    H     0.71617   0.27365   0.17442   0.00000  Uiso   1.00
H34    H     0.69520   0.37699   0.40886   0.00000  Uiso   1.00
H35    H     0.52757   0.43514   0.05293   0.00000  Uiso   1.00
H36    H     0.75087   0.18092   0.11003   0.00000  Uiso   1.00
H37    H     0.70665   0.39884   0.60439   0.00000  Uiso   1.00
O38    O     0.43320   0.42239   0.04240   0.00000  Uiso   1.00
O39    O     0.72616   0.08887   0.11732   0.00000  Uiso   1.00
O40    O     0.66814   0.37477   0.76592   0.00000  Uiso   1.00
N41    N     0.45549   0.36279   0.14731   0.00000  Uiso   1.00
N42    N     0.66426   0.12511   0.20068   0.00000  Uiso   1.00
N43    N     0.62292   0.32883   0.66288   0.00000  Uiso   1.00
N44    N     0.51203   0.40901   0.09052   0.00000  Uiso   1.00
N45    N     0.72080   0.17133   0.14389   0.00000  Uiso   1.00
N46    N     0.67946   0.37506   0.60608   0.00000  Uiso   1.00
C47    C     0.07590   0.76820   0.84196   0.00000  Uiso   1.00
C48    C     0.05653   0.80557   0.77445   0.00000  Uiso   1.00
C49    C     0.00875   0.81124   0.74931   0.00000  Uiso   1.00
C50    C     0.99835   0.84752   0.68653   0.00000  Uiso   1.00
C51    C     0.96279   0.90103   0.58719   0.00000  Uiso   1.00
C52    C     0.11406   0.74006   0.78914   0.00000  Uiso   1.00
C53    C     0.11466   0.69065   0.77637   0.00000  Uiso   1.00
C54    C     0.15270   0.67179   0.72597   0.00000  Uiso   1.00
C55    C     0.20648   0.62360   0.64949   0.00000  Uiso   1.00
C56    C     0.10267   0.79621   0.91652   0.00000  Uiso   1.00
C57    C     0.09369   0.79401   0.01085   0.00000  Uiso   1.00
C58    C     0.12214   0.82241   0.06770   0.00000  Uiso   1.00
C59    C     0.15822   0.86141   0.18899   0.00000  Uiso   1.00
C60    C     0.14239   0.82255   0.77518   0.00000  Uiso   1.00
C61    C     0.09265   0.83509   0.73818   0.00000  Uiso   1.00
C62    C     0.08232   0.87137   0.67542   0.00000  Uiso   1.00
C63    C     0.03453   0.87710   0.65019   0.00000  Uiso   1.00
C64    C     0.15018   0.76958   0.75287   0.00000  Uiso   1.00
C65    C     0.18823   0.75079   0.70248   0.00000  Uiso   1.00
C66    C     0.18888   0.70136   0.68963   0.00000  Uiso   1.00
C67    C     0.13878   0.82574   0.88025   0.00000  Uiso   1.00
C68    C     0.16725   0.85415   0.93696   0.00000  Uiso   1.00
C69    C     0.15832   0.85199   0.03136   0.00000  Uiso   1.00
H70    H     0.04778   0.74521   0.87020   0.00000  Uiso   1.00
H71    H     0.98081   0.78838   0.77739   0.00000  Uiso   1.00
H72    H     0.08671   0.66781   0.80446   0.00000  Uiso   1.00
H73    H     0.06574   0.77116   0.03890   0.00000  Uiso   1.00
H74    H     0.92250   0.84924   0.65847   0.00000  Uiso   1.00
H75    H     0.14579   0.59503   0.71557   0.00000  Uiso   1.00
H76    H     0.10158   0.81294   0.20994   0.00000  Uiso   1.00
H77    H     0.17051   0.84554   0.74694   0.00000  Uiso   1.00
H78    H     0.11027   0.89421   0.64736   0.00000  Uiso   1.00
H79    H     0.21617   0.77365   0.67442   0.00000  Uiso   1.00
H80    H     0.19520   0.87699   0.90886   0.00000  Uiso   1.00
H81    H     0.02757   0.93514   0.55293   0.00000  Uiso   1.00
H82    H     0.25087   0.68092   0.61003   0.00000  Uiso   1.00
H83    H     0.20665   0.89884   0.10439   0.00000  Uiso   1.00
O84    O     0.93320   0.92239   0.54240   0.00000  Uiso   1.00
O85    O     0.22616   0.58887   0.61732   0.00000  Uiso   1.00
O86    O     0.16814   0.87477   0.26592   0.00000  Uiso   1.00
N87    N     0.95549   0.86279   0.64731   0.00000  Uiso   1.00
N88    N     0.16426   0.62511   0.70068   0.00000  Uiso   1.00
N89    N     0.12292   0.82883   0.16288   0.00000  Uiso   1.00
N90    N     0.01203   0.90901   0.59052   0.00000  Uiso   1.00
N91    N     0.22080   0.67133   0.64389   0.00000  Uiso   1.00
N92    N     0.17946   0.87506   0.10608   0.00000  Uiso   1.00
C93    C     0.92410   0.23180   0.84196   0.00000  Uiso   1.00
C94    C     0.94347   0.19443   0.77445   0.00000  Uiso   1.00
C95    C     0.99125   0.18876   0.74931   0.00000  Uiso   1.00
C96    C     0.00165   0.15248   0.68653   0.00000  Uiso   1.00
C97    C     0.03721   0.09897   0.58719   0.00000  Uiso   1.00
C98    C     0.88594   0.25994   0.78914   0.00000  Uiso   1.00
C99    C     0.88534   0.30935   0.77637   0.00000  Uiso   1.00
C100   C     0.84730   0.32821   0.72597   0.00000  Uiso   1.00
C101   C     0.79352   0.37640   0.64949   0.00000  Uiso   1.00
C102   C     0.89733   0.20379   0.91652   0.00000  Uiso   1.00
C103   C     0.90631   0.20599   0.01085   0.00000  Uiso   1.00
C104   C     0.87786   0.17759   0.06770   0.00000  Uiso   1.00
C105   C     0.84178   0.13859   0.18899   0.00000  Uiso   1.00
C106   C     0.85761   0.17745   0.77518   0.00000  Uiso   1.00
C107   C     0.90735   0.16491   0.73818   0.00000  Uiso   1.00
C108   C     0.91768   0.12863   0.67542   0.00000  Uiso   1.00
C109   C     0.96547   0.12290   0.65019   0.00000  Uiso   1.00
C110   C     0.84982   0.23042   0.75287   0.00000  Uiso   1.00
C111   C     0.81177   0.24921   0.70248   0.00000  Uiso   1.00
C112   C     0.81112   0.29864   0.68963   0.00000  Uiso   1.00
C113   C     0.86122   0.17426   0.88025   0.00000  Uiso   1.00
C114   C     0.83275   0.14585   0.93696   0.00000  Uiso   1.00
C115   C     0.84168   0.14801   0.03136   0.00000  Uiso   1.00
H116   H     0.95222   0.25479   0.87020   0.00000  Uiso   1.00
H117   H     0.01919   0.21162   0.77739   0.00000  Uiso   1.00
H118   H     0.91329   0.33219   0.80446   0.00000  Uiso   1.00
H119   H     0.93426   0.22884   0.03890   0.00000  Uiso   1.00
H120   H     0.07750   0.15076   0.65847   0.00000  Uiso   1.00
H121   H     0.85421   0.40497   0.71557   0.00000  Uiso   1.00
H122   H     0.89842   0.18706   0.20994   0.00000  Uiso   1.00
H123   H     0.82949   0.15446   0.74694   0.00000  Uiso   1.00
H124   H     0.88973   0.10579   0.64736   0.00000  Uiso   1.00
H125   H     0.78383   0.22635   0.67442   0.00000  Uiso   1.00
H126   H     0.80480   0.12301   0.90886   0.00000  Uiso   1.00
H127   H     0.97243   0.06486   0.55293   0.00000  Uiso   1.00
H128   H     0.74913   0.31908   0.61003   0.00000  Uiso   1.00
H129   H     0.79335   0.10116   0.10439   0.00000  Uiso   1.00
O130   O     0.06680   0.07761   0.54240   0.00000  Uiso   1.00
O131   O     0.77384   0.41113   0.61732   0.00000  Uiso   1.00
O132   O     0.83186   0.12523   0.26592   0.00000  Uiso   1.00
N133   N     0.04451   0.13721   0.64731   0.00000  Uiso   1.00
N134   N     0.83574   0.37489   0.70068   0.00000  Uiso   1.00
N135   N     0.87708   0.17117   0.16288   0.00000  Uiso   1.00
N136   N     0.98797   0.09099   0.59052   0.00000  Uiso   1.00
N137   N     0.77920   0.32867   0.64389   0.00000  Uiso   1.00
N138   N     0.82054   0.12494   0.10608   0.00000  Uiso   1.00
C139   C     0.42410   0.73180   0.34196   0.00000  Uiso   1.00
C140   C     0.44347   0.69443   0.27445   0.00000  Uiso   1.00
C141   C     0.49125   0.68876   0.24931   0.00000  Uiso   1.00
C142   C     0.50165   0.65248   0.18653   0.00000  Uiso   1.00
C143   C     0.53721   0.59897   0.08719   0.00000  Uiso   1.00
C144   C     0.38594   0.75994   0.28914   0.00000  Uiso   1.00
C145   C     0.38534   0.80935   0.27637   0.00000  Uiso   1.00
C146   C     0.34730   0.82821   0.22597   0.00000  Uiso   1.00
C147   C     0.29352   0.87640   0.14949   0.00000  Uiso   1.00
C148   C     0.39733   0.70379   0.41652   0.00000  Uiso   1.00
C149   C     0.40631   0.70599   0.51085   0.00000  Uiso   1.00
C150   C     0.37786   0.67759   0.56770   0.00000  Uiso   1.00
C151   C     0.34178   0.63859   0.68899   0.00000  Uiso   1.00
C152   C     0.35761   0.67745   0.27518   0.00000  Uiso   1.00
C153   C     0.40735   0.66491   0.23818   0.00000  Uiso   1.00
C154   C     0.41768   0.62863   0.17542   0.00000  Uiso   1.00
C155   C     0.46547   0.62290   0.15019   0.00000  Uiso   1.00
C156   C     0.34982   0.73042   0.25287   0.00000  Uiso   1.00
C157   C     0.31177   0.74921   0.20248   0.00000  Uiso   1.00
C158   C     0.31112   0.79864   0.18963   0.00000  Uiso   1.00
C159   C     0.36122   0.67426   0.38025   0.00000  Uiso   1.00
C160   C     0.33275   0.64585   0.43696   0.00000  Uiso   1.00
C161   C     0.34168   0.64801   0.53136   0.00000  Uiso   1.00
H162   H     0.45222   0.75479   0.37020   0.00000  Uiso   1.00
H163   H     0.51919   0.71162   0.27739   0.00000  Uiso   1.00
H164   H     0.41329   0.83219   0.30446   0.00000  Uiso   1.00
H165   H     0.43426   0.72884   0.53890   0.00000  Uiso   1.00
H166   H     0.57750   0.65076   0.15847   0.00000  Uiso   1.00
H167   H     0.35421   0.90497   0.21557   0.00000  Uiso   1.00
H168   H     0.39842   0.68706   0.70994   0.00000  Uiso   1.00
H169   H     0.32949   0.65446   0.24694   0.00000  Uiso   1.00
H170   H     0.38973   0.60579   0.14736   0.00000  Uiso   1.00
H171   H     0.28383   0.72635   0.17442   0.00000  Uiso   1.00
H172   H     0.30480   0.62301   0.40886   0.00000  Uiso   1.00
H173   H     0.47243   0.56486   0.05293   0.00000  Uiso   1.00
H174   H     0.24913   0.81908   0.11003   0.00000  Uiso   1.00
H175   H     0.29335   0.60116   0.60439   0.00000  Uiso   1.00
O176   O     0.56680   0.57761   0.04240   0.00000  Uiso   1.00
O177   O     0.27384   0.91113   0.11732   0.00000  Uiso   1.00
O178   O     0.33186   0.62523   0.76592   0.00000  Uiso   1.00
N179   N     0.54451   0.63721   0.14731   0.00000  Uiso   1.00
N180   N     0.33574   0.87489   0.20068   0.00000  Uiso   1.00
N181   N     0.37708   0.67117   0.66288   0.00000  Uiso   1.00
N182   N     0.48797   0.59099   0.09052   0.00000  Uiso   1.00
N183   N     0.27920   0.82867   0.14389   0.00000  Uiso   1.00
N184   N     0.32054   0.62494   0.60608   0.00000  Uiso   1.00
C185   C     0.73180   0.07590   0.59196   0.00000  Uiso   1.00
C186   C     0.69443   0.05653   0.52445   0.00000  Uiso   1.00
C187   C     0.68876   0.00875   0.49931   0.00000  Uiso   1.00
C188   C     0.65248   0.99835   0.43653   0.00000  Uiso   1.00
C189   C     0.59897   0.96279   0.33719   0.00000  Uiso   1.00
C190   C     0.75994   0.11406   0.53914   0.00000  Uiso   1.00
C191   C     0.80935   0.11466   0.52637   0.00000  Uiso   1.00
C192   C     0.82821   0.15270   0.47597   0.00000  Uiso   1.00
C193   C     0.87640   0.20648   0.39949   0.00000  Uiso   1.00
C194   C     0.70379   0.10267   0.66652   0.00000  Uiso   1.00
C195   C     0.70599   0.09369   0.76085   0.00000  Uiso   1.00
C196   C     0.67759   0.12214   0.81770   0.00000  Uiso   1.00
C197   C     0.63859   0.15822   0.93899   0.00000  Uiso   1.00
C198   C     0.67745   0.14239   0.52518   0.00000  Uiso   1.00
C199   C     0.66491   0.09265   0.48818   0.00000  Uiso   1.00
C200   C     0.62863   0.08232   0.42542   0.00000  Uiso   1.00
C201   C     0.62290   0.03453   0.40019   0.00000  Uiso   1.00
C202   C     0.73042   0.15018   0.50287   0.00000  Uiso   1.00
C203   C     0.74921   0.18823   0.45248   0.00000  Uiso   1.00
C204   C     0.79864   0.18888   0.43963   0.00000  Uiso   1.00
C205   C     0.67426   0.13878   0.63025   0.00000  Uiso   1.00
C206   C     0.64585   0.16725   0.68696   0.00000  Uiso   1.00
C207   C     0.64801   0.15832   0.78136   0.00000  Uiso   1.00
H208   H     0.75479   0.04778   0.62020   0.00000  Uiso   1.00
H209   H     0.71162   0.98081   0.52739   0.00000  Uiso   1.00
H210   H     0.83219   0.08671   0.55446   0.00000  Uiso   1.00
H211   H     0.72884   0.06574   0.78890   0.00000  Uiso   1.00
H212   H     0.65076   0.92250   0.40847   0.00000  Uiso   1.00
H213   H     0.90497   0.14579   0.46557   0.00000  Uiso   1.00
H214   H     0.68706   0.10158   0.95994   0.00000  Uiso   1.00
H215   H     0.65446   0.17051   0.49694   0.00000  Uiso   1.00
H216   H     0.60579   0.11027   0.39736   0.00000  Uiso   1.00
H217   H     0.72635   0.21617   0.42442   0.00000  Uiso   1.00
H218   H     0.62301   0.19520   0.65886   0.00000  Uiso   1.00
H219   H     0.56486   0.02757   0.30293   0.00000  Uiso   1.00
H220   H     0.81908   0.25087   0.36003   0.00000  Uiso   1.00
H221   H     0.60116   0.20665   0.85439   0.00000  Uiso   1.00
O222   O     0.57761   0.93320   0.29240   0.00000  Uiso   1.00
O223   O     0.91113   0.22616   0.36732   0.00000  Uiso   1.00
O224   O     0.62523   0.16814   0.01592   0.00000  Uiso   1.00
N225   N     0.63721   0.95549   0.39731   0.00000  Uiso   1.00
N226   N     0.87489   0.16426   0.45068   0.00000  Uiso   1.00
N227   N     0.67117   0.12292   0.91288   0.00000  Uiso   1.00
N228   N     0.59099   0.01203   0.34052   0.00000  Uiso   1.00
N229   N     0.82867   0.22080   0.39389   0.00000  Uiso   1.00
N230   N     0.62494   0.17946   0.85608   0.00000  Uiso   1.00
C231   C     0.23180   0.57590   0.09196   0.00000  Uiso   1.00
C232   C     0.19443   0.55653   0.02445   0.00000  Uiso   1.00
C233   C     0.18876   0.50875   0.99931   0.00000  Uiso   1.00
C234   C     0.15248   0.49835   0.93653   0.00000  Uiso   1.00
C235   C     0.09897   0.46279   0.83719   0.00000  Uiso   1.00
C236   C     0.25994   0.61406   0.03914   0.00000  Uiso   1.00
C237   C     0.30935   0.61466   0.02637   0.00000  Uiso   1.00
C238   C     0.32821   0.65270   0.97597   0.00000  Uiso   1.00
C239   C     0.37640   0.70648   0.89949   0.00000  Uiso   1.00
C240   C     0.20379   0.60267   0.16652   0.00000  Uiso   1.00
C241   C     0.20599   0.59369   0.26085   0.00000  Uiso   1.00
C242   C     0.17759   0.62214   0.31770   0.00000  Uiso   1.00
C243   C     0.13859   0.65822   0.43899   0.00000  Uiso   1.00
C244   C     0.17745   0.64239   0.02518   0.00000  Uiso   1.00
C245   C     0.16491   0.59265   0.98818   0.00000  Uiso   1.00
C246   C     0.12863   0.58232   0.92542   0.00000  Uiso   1.00
C247   C     0.12290   0.53453   0.90019   0.00000  Uiso   1.00
C248   C     0.23042   0.65018   0.00287   0.00000  Uiso   1.00
C249   C     0.24921   0.68823   0.95248   0.00000  Uiso   1.00
C250   C     0.29864   0.68888   0.93963   0.00000  Uiso   1.00
C251   C     0.17426   0.63878   0.13025   0.00000  Uiso   1.00
C252   C     0.14585   0.66725   0.18696   0.00000  Uiso   1.00
C253   C     0.14801   0.65832   0.28136   0.00000  Uiso   1.00
H254   H     0.25479   0.54778   0.12020   0.00000  Uiso   1.00
H255   H     0.21162   0.48081   0.02739   0.00000  Uiso   1.00
H256   H     0.33219   0.58671   0.05446   0.00000  Uiso   1.00
H257   H     0.22884   0.56574   0.28890   0.00000  Uiso   1.00
H258   H     0.15076   0.42250   0.90847   0.00000  Uiso   1.00
H259   H     0.40497   0.64579   0.96557   0.00000  Uiso   1.00
H260   H     0.18706   0.60158   0.45994   0.00000  Uiso   1.00
H261   H     0.15446   0.67051   0.99694   0.00000  Uiso   1.00
H262   H     0.10579   0.61027   0.89736   0.00000  Uiso   1.00
H263   H     0.22635   0.71617   0.92442   0.00000  Uiso   1.00
H264   H     0.12301   0.69520   0.15886   0.00000  Uiso   1.00
H265   H     0.06486   0.52757   0.80293   0.00000  Uiso   1.00
H266   H     0.31908   0.75087   0.86003   0.00000  Uiso   1.00
H267   H     0.10116   0.70665   0.35439   0.00000  Uiso   1.00
O268   O     0.07761   0.43320   0.79240   0.00000  Uiso   1.00
O269   O     0.41113   0.72616   0.86732   0.00000  Uiso   1.00
O270   O     0.12523   0.66814   0.51592   0.00000  Uiso   1.00
N271   N     0.13721   0.45549   0.89731   0.00000  Uiso   1.00
N272   N     0.37489   0.66426   0.95068   0.00000  Uiso   1.00
N273   N     0.17117   0.62292   0.41288   0.00000  Uiso   1.00
N274   N     0.09099   0.51203   0.84052   0.00000  Uiso   1.00
N275   N     0.32867   0.72080   0.89389   0.00000  Uiso   1.00
N276   N     0.12494   0.67946   0.35608   0.00000  Uiso   1.00
C277   C     0.76820   0.42410   0.09196   0.00000  Uiso   1.00
C278   C     0.80557   0.44347   0.02445   0.00000  Uiso   1.00
C279   C     0.81124   0.49125   0.99931   0.00000  Uiso   1.00
C280   C     0.84752   0.50165   0.93653   0.00000  Uiso   1.00
C281   C     0.90103   0.53721   0.83719   0.00000  Uiso   1.00
C282   C     0.74006   0.38594   0.03914   0.00000  Uiso   1.00
C283   C     0.69065   0.38534   0.02637   0.00000  Uiso   1.00
C284   C     0.67179   0.34730   0.97597   0.00000  Uiso   1.00
C285   C     0.62360   0.29352   0.89949   0.00000  Uiso   1.00
C286   C     0.79621   0.39733   0.16652   0.00000  Uiso   1.00
C287   C     0.79401   0.40631   0.26085   0.00000  Uiso   1.00
C288   C     0.82241   0.37786   0.31770   0.00000  Uiso   1.00
C289   C     0.86141   0.34178   0.43899   0.00000  Uiso   1.00
C290   C     0.82255   0.35761   0.02518   0.00000  Uiso   1.00
C291   C     0.83509   0.40735   0.98818   0.00000  Uiso   1.00
C292   C     0.87137   0.41768   0.92542   0.00000  Uiso   1.00
C293   C     0.87710   0.46547   0.90019   0.00000  Uiso   1.00
C294   C     0.76958   0.34982   0.00287   0.00000  Uiso   1.00
C295   C     0.75079   0.31177   0.95248   0.00000  Uiso   1.00
C296   C     0.70136   0.31112   0.93963   0.00000  Uiso   1.00
C297   C     0.82574   0.36122   0.13025   0.00000  Uiso   1.00
C298   C     0.85415   0.33275   0.18696   0.00000  Uiso   1.00
C299   C     0.85199   0.34168   0.28136   0.00000  Uiso   1.00
H300   H     0.74521   0.45222   0.12020   0.00000  Uiso   1.00
H301   H     0.78838   0.51919   0.02739   0.00000  Uiso   1.00
H302   H     0.66781   0.41329   0.05446   0.00000  Uiso   1.00
H303   H     0.77116   0.43426   0.28890   0.00000  Uiso   1.00
H304   H     0.84924   0.57750   0.90847   0.00000  Uiso   1.00
H305   H     0.59503   0.35421   0.96557   0.00000  Uiso   1.00
H306   H     0.81294   0.39842   0.45994   0.00000  Uiso   1.00
H307   H     0.84554   0.32949   0.99694   0.00000  Uiso   1.00
H308   H     0.89421   0.38973   0.89736   0.00000  Uiso   1.00
H309   H     0.77365   0.28383   0.92442   0.00000  Uiso   1.00
H310   H     0.87699   0.30480   0.15886   0.00000  Uiso   1.00
H311   H     0.93514   0.47243   0.80293   0.00000  Uiso   1.00
H312   H     0.68092   0.24913   0.86003   0.00000  Uiso   1.00
H313   H     0.89884   0.29335   0.35439   0.00000  Uiso   1.00
O314   O     0.92239   0.56680   0.79240   0.00000  Uiso   1.00
O315   O     0.58887   0.27384   0.86732   0.00000  Uiso   1.00
O316   O     0.87477   0.33186   0.51592   0.00000  Uiso   1.00
N317   N     0.86279   0.54451   0.89731   0.00000  Uiso   1.00
N318   N     0.62511   0.33574   0.95068   0.00000  Uiso   1.00
N319   N     0.82883   0.37708   0.41288   0.00000  Uiso   1.00
N320   N     0.90901   0.48797   0.84052   0.00000  Uiso   1.00
N321   N     0.67133   0.27920   0.89389   0.00000  Uiso   1.00
N322   N     0.87506   0.32054   0.35608   0.00000  Uiso   1.00
C323   C     0.26820   0.92410   0.59196   0.00000  Uiso   1.00
C324   C     0.30557   0.94347   0.52445   0.00000  Uiso   1.00
C325   C     0.31124   0.99125   0.49931   0.00000  Uiso   1.00
C326   C     0.34752   0.00165   0.43653   0.00000  Uiso   1.00
C327   C     0.40103   0.03721   0.33719   0.00000  Uiso   1.00
C328   C     0.24006   0.88594   0.53914   0.00000  Uiso   1.00
C329   C     0.19065   0.88534   0.52637   0.00000  Uiso   1.00
C330   C     0.17179   0.84730   0.47597   0.00000  Uiso   1.00
C331   C     0.12360   0.79352   0.39949   0.00000  Uiso   1.00
C332   C     0.29621   0.89733   0.66652   0.00000  Uiso   1.00
C333   C     0.29401   0.90631   0.76085   0.00000  Uiso   1.00
C334   C     0.32241   0.87786   0.81770   0.00000  Uiso   1.00
C335   C     0.36141   0.84178   0.93899   0.00000  Uiso   1.00
C336   C     0.32255   0.85761   0.52518   0.00000  Uiso   1.00
C337   C     0.33509   0.90735   0.48818   0.00000  Uiso   1.00
C338   C     0.37137   0.91768   0.42542   0.00000  Uiso   1.00
C339   C     0.37710   0.96547   0.40019   0.00000  Uiso   1.00
C340   C     0.26958   0.84982   0.50287   0.00000  Uiso   1.00
C341   C     0.25079   0.81177   0.45248   0.00000  Uiso   1.00
C342   C     0.20136   0.81112   0.43963   0.00000  Uiso   1.00
C343   C     0.32574   0.86122   0.63025   0.00000  Uiso   1.00
C344   C     0.35415   0.83275   0.68696   0.00000  Uiso   1.00
C345   C     0.35199   0.84168   0.78136   0.00000  Uiso   1.00
H346   H     0.24521   0.95222   0.62020   0.00000  Uiso   1.00
H347   H     0.28838   0.01919   0.52739   0.00000  Uiso   1.00
H348   H     0.16781   0.91329   0.55446   0.00000  Uiso   1.00
H349   H     0.27116   0.93426   0.78890   0.00000  Uiso   1.00
H350   H     0.34924   0.07750   0.40847   0.00000  Uiso   1.00
H351   H     0.09503   0.85421   0.46557   0.00000  Uiso   1.00
H352   H     0.31294   0.89842   0.95994   0.00000  Uiso   1.00
H353   H     0.34554   0.82949   0.49694   0.00000  Uiso   1.00
H354   H     0.39421   0.88973   0.39736   0.00000  Uiso   1.00
H355   H     0.27365   0.78383   0.42442   0.00000  Uiso   1.00
H356   H     0.37699   0.80480   0.65886   0.00000  Uiso   1.00
H357   H     0.43514   0.97243   0.30293   0.00000  Uiso   1.00
H358   H     0.18092   0.74913   0.36003   0.00000  Uiso   1.00
H359   H     0.39884   0.79335   0.85439   0.00000  Uiso   1.00
O360   O     0.42239   0.06680   0.29240   0.00000  Uiso   1.00
O361   O     0.08887   0.77384   0.36732   0.00000  Uiso   1.00
O362   O     0.37477   0.83186   0.01592   0.00000  Uiso   1.00
N363   N     0.36279   0.04451   0.39731   0.00000  Uiso   1.00
N364   N     0.12511   0.83574   0.45068   0.00000  Uiso   1.00
N365   N     0.32883   0.87708   0.91288   0.00000  Uiso   1.00
N366   N     0.40901   0.98797   0.34052   0.00000  Uiso   1.00
N367   N     0.17133   0.77920   0.39389   0.00000  Uiso   1.00
N368   N     0.37506   0.82054   0.85608   0.00000  Uiso   1.00
C369   C     0.42410   0.23180   0.90804   0.00000  Uiso   1.00
C370   C     0.44347   0.19443   0.97555   0.00000  Uiso   1.00
C371   C     0.49125   0.18876   0.00069   0.00000  Uiso   1.00
C372   C     0.50165   0.15248   0.06347   0.00000  Uiso   1.00
C373   C     0.53721   0.09897   0.16281   0.00000  Uiso   1.00
C374   C     0.38594   0.25994   0.96086   0.00000  Uiso   1.00
C375   C     0.38534   0.30935   0.97363   0.00000  Uiso   1.00
C376   C     0.34730   0.32821   0.02403   0.00000  Uiso   1.00
C377   C     0.29352   0.37640   0.10051   0.00000  Uiso   1.00
C378   C     0.39733   0.20379   0.83348   0.00000  Uiso   1.00
C379   C     0.40631   0.20599   0.73915   0.00000  Uiso   1.00
C380   C     0.37786   0.17759   0.68230   0.00000  Uiso   1.00
C381   C     0.34178   0.13859   0.56101   0.00000  Uiso   1.00
C382   C     0.35761   0.17745   0.97482   0.00000  Uiso   1.00
C383   C     0.40735   0.16491   0.01182   0.00000  Uiso   1.00
C384   C     0.41768   0.12863   0.07458   0.00000  Uiso   1.00
C385   C     0.46547   0.12290   0.09981   0.00000  Uiso   1.00
C386   C     0.34982   0.23042   0.99713   0.00000  Uiso   1.00
C387   C     0.31177   0.24921   0.04752   0.00000  Uiso   1.00
C388   C     0.31112   0.29864   0.06037   0.00000  Uiso   1.00
C389   C     0.36122   0.17426   0.86975   0.00000  Uiso   1.00
C390   C     0.33275   0.14585   0.81304   0.00000  Uiso   1.00
C391   C     0.34168   0.14801   0.71864   0.00000  Uiso   1.00
H392   H     0.45222   0.25479   0.87980   0.00000  Uiso   1.00
H393   H     0.51919   0.21162   0.97261   0.00000  Uiso   1.00
H394   H     0.41329   0.33219   0.94554   0.00000  Uiso   1.00
H395   H     0.43426   0.22884   0.71110   0.00000  Uiso   1.00
H396   H     0.57750   0.15076   0.09153   0.00000  Uiso   1.00
H397   H     0.35421   0.40497   0.03443   0.00000  Uiso   1.00
H398   H     0.39842   0.18706   0.54006   0.00000  Uiso   1.00
H399   H     0.32949   0.15446   0.00306   0.00000  Uiso   1.00
H400   H     0.38973   0.10579   0.10264   0.00000  Uiso   1.00
H401   H     0.28383   0.22635   0.07558   0.00000  Uiso   1.00
H402   H     0.30480   0.12301   0.84114   0.00000  Uiso   1.00
H403   H     0.47243   0.06486   0.19707   0.00000  Uiso   1.00
H404   H     0.24913   0.31908   0.13997   0.00000  Uiso   1.00
H405   H     0.29335   0.10116   0.64561   0.00000  Uiso   1.00
O406   O     0.56680   0.07761   0.20760   0.00000  Uiso   1.00
O407   O     0.27384   0.41113   0.13268   0.00000  Uiso   1.00
O408   O     0.33186   0.12523   0.48408   0.00000  Uiso   1.00
N409   N     0.54451   0.13721   0.10269   0.00000  Uiso   1.00
N410   N     0.33574   0.37489   0.04932   0.00000  Uiso   1.00
N411   N     0.37708   0.17117   0.58712   0.00000  Uiso   1.00
N412   N     0.48797   0.09099   0.15948   0.00000  Uiso   1.00
N413   N     0.27920   0.32867   0.10611   0.00000  Uiso   1.00
N414   N     0.32054   0.12494   0.64392   0.00000  Uiso   1.00
C415   C     0.92410   0.73180   0.40804   0.00000  Uiso   1.00
C416   C     0.94347   0.69443   0.47555   0.00000  Uiso   1.00
C417   C     0.99125   0.68876   0.50069   0.00000  Uiso   1.00
C418   C     0.00165   0.65248   0.56347   0.00000  Uiso   1.00
C419   C     0.03721   0.59897   0.66281   0.00000  Uiso   1.00
C420   C     0.88594   0.75994   0.46086   0.00000  Uiso   1.00
C421   C     0.88534   0.80935   0.47363   0.00000  Uiso   1.00
C422   C     0.84730   0.82821   0.52403   0.00000  Uiso   1.00
C423   C     0.79352   0.87640   0.60051   0.00000  Uiso   1.00
C424   C     0.89733   0.70379   0.33348   0.00000  Uiso   1.00
C425   C     0.90631   0.70599   0.23915   0.00000  Uiso   1.00
C426   C     0.87786   0.67759   0.18230   0.00000  Uiso   1.00
C427   C     0.84178   0.63859   0.06101   0.00000  Uiso   1.00
C428   C     0.85761   0.67745   0.47482   0.00000  Uiso   1.00
C429   C     0.90735   0.66491   0.51182   0.00000  Uiso   1.00
C430   C     0.91768   0.62863   0.57458   0.00000  Uiso   1.00
C431   C     0.96547   0.62290   0.59981   0.00000  Uiso   1.00
C432   C     0.84982   0.73042   0.49713   0.00000  Uiso   1.00
C433   C     0.81177   0.74921   0.54752   0.00000  Uiso   1.00
C434   C     0.81112   0.79864   0.56037   0.00000  Uiso   1.00
C435   C     0.86122   0.67426   0.36975   0.00000  Uiso   1.00
C436   C     0.83275   0.64585   0.31304   0.00000  Uiso   1.00
C437   C     0.84168   0.64801   0.21864   0.00000  Uiso   1.00
H438   H     0.95222   0.75479   0.37980   0.00000  Uiso   1.00
H439   H     0.01919   0.71162   0.47261   0.00000  Uiso   1.00
H440   H     0.91329   0.83219   0.44554   0.00000  Uiso   1.00
H441   H     0.93426   0.72884   0.21110   0.00000  Uiso   1.00
H442   H     0.07750   0.65076   0.59153   0.00000  Uiso   1.00
H443   H     0.85421   0.90497   0.53443   0.00000  Uiso   1.00
H444   H     0.89842   0.68706   0.04006   0.00000  Uiso   1.00
H445   H     0.82949   0.65446   0.50306   0.00000  Uiso   1.00
H446   H     0.88973   0.60579   0.60264   0.00000  Uiso   1.00
H447   H     0.78383   0.72635   0.57558   0.00000  Uiso   1.00
H448   H     0.80480   0.62301   0.34114   0.00000  Uiso   1.00
H449   H     0.97243   0.56486   0.69707   0.00000  Uiso   1.00
H450   H     0.74913   0.81908   0.63997   0.00000  Uiso   1.00
H451   H     0.79335   0.60116   0.14561   0.00000  Uiso   1.00
O452   O     0.06680   0.57761   0.70760   0.00000  Uiso   1.00
O453   O     0.77384   0.91113   0.63268   0.00000  Uiso   1.00
O454   O     0.83186   0.62523   0.98408   0.00000  Uiso   1.00
N455   N     0.04451   0.63721   0.60269   0.00000  Uiso   1.00
N456   N     0.83574   0.87489   0.54932   0.00000  Uiso   1.00
N457   N     0.87708   0.67117   0.08712   0.00000  Uiso   1.00
N458   N     0.98797   0.59099   0.65948   0.00000  Uiso   1.00
N459   N     0.77920   0.82867   0.60611   0.00000  Uiso   1.00
N460   N     0.82054   0.62494   0.14392   0.00000  Uiso   1.00
C461   C     0.07590   0.26820   0.40804   0.00000  Uiso   1.00
C462   C     0.05653   0.30557   0.47555   0.00000  Uiso   1.00
C463   C     0.00875   0.31124   0.50069   0.00000  Uiso   1.00
C464   C     0.99835   0.34752   0.56347   0.00000  Uiso   1.00
C465   C     0.96279   0.40103   0.66281   0.00000  Uiso   1.00
C466   C     0.11406   0.24006   0.46086   0.00000  Uiso   1.00
C467   C     0.11466   0.19065   0.47363   0.00000  Uiso   1.00
C468   C     0.15270   0.17179   0.52403   0.00000  Uiso   1.00
C469   C     0.20648   0.12360   0.60051   0.00000  Uiso   1.00
C470   C     0.10267   0.29621   0.33348   0.00000  Uiso   1.00
C471   C     0.09369   0.29401   0.23915   0.00000  Uiso   1.00
C472   C     0.12214   0.32241   0.18230   0.00000  Uiso   1.00
C473   C     0.15822   0.36141   0.06101   0.00000  Uiso   1.00
C474   C     0.14239   0.32255   0.47482   0.00000  Uiso   1.00
C475   C     0.09265   0.33509   0.51182   0.00000  Uiso   1.00
C476   C     0.08232   0.37137   0.57458   0.00000  Uiso   1.00
C477   C     0.03453   0.37710   0.59981   0.00000  Uiso   1.00
C478   C     0.15018   0.26958   0.49713   0.00000  Uiso   1.00
C479   C     0.18823   0.25079   0.54752   0.00000  Uiso   1.00
C480   C     0.18888   0.20136   0.56037   0.00000  Uiso   1.00
C481   C     0.13878   0.32574   0.36975   0.00000  Uiso   1.00
C482   C     0.16725   0.35415   0.31304   0.00000  Uiso   1.00
C483   C     0.15832   0.35199   0.21864   0.00000  Uiso   1.00
H484   H     0.04778   0.24521   0.37980   0.00000  Uiso   1.00
H485   H     0.98081   0.28838   0.47261   0.00000  Uiso   1.00
H486   H     0.08671   0.16781   0.44554   0.00000  Uiso   1.00
H487   H     0.06574   0.27116   0.21110   0.00000  Uiso   1.00
H488   H     0.92250   0.34924   0.59153   0.00000  Uiso   1.00
H489   H     0.14579   0.09503   0.53443   0.00000  Uiso   1.00
H490   H     0.10158   0.31294   0.04006   0.00000  Uiso   1.00
H491   H     0.17051   0.34554   0.50306   0.00000  Uiso   1.00
H492   H     0.11027   0.39421   0.60264   0.00000  Uiso   1.00
H493   H     0.21617   0.27365   0.57558   0.00000  Uiso   1.00
H494   H     0.19520   0.37699   0.34114   0.00000  Uiso   1.00
H495   H     0.02757   0.43514   0.69707   0.00000  Uiso   1.00
H496   H     0.25087   0.18092   0.63997   0.00000  Uiso   1.00
H497   H     0.20665   0.39884   0.14561   0.00000  Uiso   1.00
O498   O     0.93320   0.42239   0.70760   0.00000  Uiso   1.00
O499   O     0.22616   0.08887   0.63268   0.00000  Uiso   1.00
O500   O     0.16814   0.37477   0.98408   0.00000  Uiso   1.00
N501   N     0.95549   0.36279   0.60269   0.00000  Uiso   1.00
N502   N     0.16426   0.12511   0.54932   0.00000  Uiso   1.00
N503   N     0.12292   0.32883   0.08712   0.00000  Uiso   1.00
N504   N     0.01203   0.40901   0.65948   0.00000  Uiso   1.00
N505   N     0.22080   0.17133   0.60611   0.00000  Uiso   1.00
N506   N     0.17946   0.37506   0.14392   0.00000  Uiso   1.00
C507   C     0.57590   0.76820   0.90804   0.00000  Uiso   1.00
C508   C     0.55653   0.80557   0.97555   0.00000  Uiso   1.00
C509   C     0.50875   0.81124   0.00069   0.00000  Uiso   1.00
C510   C     0.49835   0.84752   0.06347   0.00000  Uiso   1.00
C511   C     0.46279   0.90103   0.16281   0.00000  Uiso   1.00
C512   C     0.61406   0.74006   0.96086   0.00000  Uiso   1.00
C513   C     0.61466   0.69065   0.97363   0.00000  Uiso   1.00
C514   C     0.65270   0.67179   0.02403   0.00000  Uiso   1.00
C515   C     0.70648   0.62360   0.10051   0.00000  Uiso   1.00
C516   C     0.60267   0.79621   0.83348   0.00000  Uiso   1.00
C517   C     0.59369   0.79401   0.73915   0.00000  Uiso   1.00
C518   C     0.62214   0.82241   0.68230   0.00000  Uiso   1.00
C519   C     0.65822   0.86141   0.56101   0.00000  Uiso   1.00
C520   C     0.64239   0.82255   0.97482   0.00000  Uiso   1.00
C521   C     0.59265   0.83509   0.01182   0.00000  Uiso   1.00
C522   C     0.58232   0.87137   0.07458   0.00000  Uiso   1.00
C523   C     0.53453   0.87710   0.09981   0.00000  Uiso   1.00
C524   C     0.65018   0.76958   0.99713   0.00000  Uiso   1.00
C525   C     0.68823   0.75079   0.04752   0.00000  Uiso   1.00
C526   C     0.68888   0.70136   0.06037   0.00000  Uiso   1.00
C527   C     0.63878   0.82574   0.86975   0.00000  Uiso   1.00
C528   C     0.66725   0.85415   0.81304   0.00000  Uiso   1.00
C529   C     0.65832   0.85199   0.71864   0.00000  Uiso   1.00
H530   H     0.54778   0.74521   0.87980   0.00000  Uiso   1.00
H531   H     0.48081   0.78838   0.97261   0.00000  Uiso   1.00
H532   H     0.58671   0.66781   0.94554   0.00000  Uiso   1.00
H533   H     0.56574   0.77116   0.71110   0.00000  Uiso   1.00
H534   H     0.42250   0.84924   0.09153   0.00000  Uiso   1.00
H535   H     0.64579   0.59503   0.03443   0.00000  Uiso   1.00
H536   H     0.60158   0.81294   0.54006   0.00000  Uiso   1.00
H537   H     0.67051   0.84554   0.00306   0.00000  Uiso   1.00
H538   H     0.61027   0.89421   0.10264   0.00000  Uiso   1.00
H539   H     0.71617   0.77365   0.07558   0.00000  Uiso   1.00
H540   H     0.69520   0.87699   0.84114   0.00000  Uiso   1.00
H541   H     0.52757   0.93514   0.19707   0.00000  Uiso   1.00
H542   H     0.75087   0.68092   0.13997   0.00000  Uiso   1.00
H543   H     0.70665   0.89884   0.64561   0.00000  Uiso   1.00
O544   O     0.43320   0.92239   0.20760   0.00000  Uiso   1.00
O545   O     0.72616   0.58887   0.13268   0.00000  Uiso   1.00
O546   O     0.66814   0.87477   0.48408   0.00000  Uiso   1.00
N547   N     0.45549   0.86279   0.10269   0.00000  Uiso   1.00
N548   N     0.66426   0.62511   0.04932   0.00000  Uiso   1.00
N549   N     0.62292   0.82883   0.58712   0.00000  Uiso   1.00
N550   N     0.51203   0.90901   0.15948   0.00000  Uiso   1.00
N551   N     0.72080   0.67133   0.10611   0.00000  Uiso   1.00
N552   N     0.67946   0.87506   0.64392   0.00000  Uiso   1.00
C553   C     0.26820   0.42410   0.65804   0.00000  Uiso   1.00
C554   C     0.30557   0.44347   0.72555   0.00000  Uiso   1.00
C555   C     0.31124   0.49125   0.75069   0.00000  Uiso   1.00
C556   C     0.34752   0.50165   0.81347   0.00000  Uiso   1.00
C557   C     0.40103   0.53721   0.91281   0.00000  Uiso   1.00
C558   C     0.24006   0.38594   0.71086   0.00000  Uiso   1.00
C559   C     0.19065   0.38534   0.72363   0.00000  Uiso   1.00
C560   C     0.17179   0.34730   0.77403   0.00000  Uiso   1.00
C561   C     0.12360   0.29352   0.85051   0.00000  Uiso   1.00
C562   C     0.29621   0.39733   0.58348   0.00000  Uiso   1.00
C563   C     0.29401   0.40631   0.48915   0.00000  Uiso   1.00
C564   C     0.32241   0.37786   0.43230   0.00000  Uiso   1.00
C565   C     0.36141   0.34178   0.31101   0.00000  Uiso   1.00
C566   C     0.32255   0.35761   0.72482   0.00000  Uiso   1.00
C567   C     0.33509   0.40735   0.76182   0.00000  Uiso   1.00
C568   C     0.37137   0.41768   0.82458   0.00000  Uiso   1.00
C569   C     0.37710   0.46547   0.84981   0.00000  Uiso   1.00
C570   C     0.26958   0.34982   0.74713   0.00000  Uiso   1.00
C571   C     0.25079   0.31177   0.79752   0.00000  Uiso   1.00
C572   C     0.20136   0.31112   0.81037   0.00000  Uiso   1.00
C573   C     0.32574   0.36122   0.61975   0.00000  Uiso   1.00
C574   C     0.35415   0.33275   0.56304   0.00000  Uiso   1.00
C575   C     0.35199   0.34168   0.46864   0.00000  Uiso   1.00
H576   H     0.24521   0.45222   0.62980   0.00000  Uiso   1.00
H577   H     0.28838   0.51919   0.72261   0.00000  Uiso   1.00
H578   H     0.16781   0.41329   0.69554   0.00000  Uiso   1.00
H579   H     0.27116   0.43426   0.46110   0.00000  Uiso   1.00
H580   H     0.34924   0.57750   0.84153   0.00000  Uiso   1.00
H581   H     0.09503   0.35421   0.78443   0.00000  Uiso   1.00
H582   H     0.31294   0.39842   0.29006   0.00000  Uiso   1.00
H583   H     0.34554   0.32949   0.75306   0.00000  Uiso   1.00
H584   H     0.39421   0.38973   0.85264   0.00000  Uiso   1.00
H585   H     0.27365   0.28383   0.82558   0.00000  Uiso   1.00
H586   H     0.37699   0.30480   0.59114   0.00000  Uiso   1.00
H587   H     0.43514   0.47243   0.94707   0.00000  Uiso   1.00
H588   H     0.18092   0.24913   0.88997   0.00000  Uiso   1.00
H589   H     0.39884   0.29335   0.39561   0.00000  Uiso   1.00
O590   O     0.42239   0.56680   0.95760   0.00000  Uiso   1.00
O591   O     0.08887   0.27384   0.88268   0.00000  Uiso   1.00
O592   O     0.37477   0.33186   0.23408   0.00000  Uiso   1.00
N593   N     0.36279   0.54451   0.85269   0.00000  Uiso   1.00
N594   N     0.12511   0.33574   0.79932   0.00000  Uiso   1.00
N595   N     0.32883   0.37708   0.33712   0.00000  Uiso   1.00
N596   N     0.40901   0.48797   0.90948   0.00000  Uiso   1.00
N597   N     0.17133   0.27920   0.85611   0.00000  Uiso   1.00
N598   N     0.37506   0.32054   0.39392   0.00000  Uiso   1.00
C599   C     0.76820   0.92410   0.15804   0.00000  Uiso   1.00
C600   C     0.80557   0.94347   0.22555   0.00000  Uiso   1.00
C601   C     0.81124   0.99125   0.25069   0.00000  Uiso   1.00
C602   C     0.84752   0.00165   0.31347   0.00000  Uiso   1.00
C603   C     0.90103   0.03721   0.41281   0.00000  Uiso   1.00
C604   C     0.74006   0.88594   0.21086   0.00000  Uiso   1.00
C605   C     0.69065   0.88534   0.22363   0.00000  Uiso   1.00
C606   C     0.67179   0.84730   0.27403   0.00000  Uiso   1.00
C607   C     0.62360   0.79352   0.35051   0.00000  Uiso   1.00
C608   C     0.79621   0.89733   0.08348   0.00000  Uiso   1.00
C609   C     0.79401   0.90631   0.98915   0.00000  Uiso   1.00
C610   C     0.82241   0.87786   0.93230   0.00000  Uiso   1.00
C611   C     0.86141   0.84178   0.81101   0.00000  Uiso   1.00
C612   C     0.82255   0.85761   0.22482   0.00000  Uiso   1.00
C613   C     0.83509   0.90735   0.26182   0.00000  Uiso   1.00
C614   C     0.87137   0.91768   0.32458   0.00000  Uiso   1.00
C615   C     0.87710   0.96547   0.34981   0.00000  Uiso   1.00
C616   C     0.76958   0.84982   0.24713   0.00000  Uiso   1.00
C617   C     0.75079   0.81177   0.29752   0.00000  Uiso   1.00
C618   C     0.70136   0.81112   0.31037   0.00000  Uiso   1.00
C619   C     0.82574   0.86122   0.11975   0.00000  Uiso   1.00
C620   C     0.85415   0.83275   0.06304   0.00000  Uiso   1.00
C621   C     0.85199   0.84168   0.96864   0.00000  Uiso   1.00
H622   H     0.74521   0.95222   0.12980   0.00000  Uiso   1.00
H623   H     0.78838   0.01919   0.22261   0.00000  Uiso   1.00
H624   H     0.66781   0.91329   0.19554   0.00000  Uiso   1.00
H625   H     0.77116   0.93426   0.96110   0.00000  Uiso   1.00
H626   H     0.84924   0.07750   0.34153   0.00000  Uiso   1.00
H627   H     0.59503   0.85421   0.28443   0.00000  Uiso   1.00
H628   H     0.81294   0.89842   0.79006   0.00000  Uiso   1.00
H629   H     0.84554   0.82949   0.25306   0.00000  Uiso   1.00
H630   H     0.89421   0.88973   0.35264   0.00000  Uiso   1.00
H631   H     0.77365   0.78383   0.32558   0.00000  Uiso   1.00
H632   H     0.87699   0.80480   0.09114   0.00000  Uiso   1.00
H633   H     0.93514   0.97243   0.44707   0.00000  Uiso   1.00
H634   H     0.68092   0.74913   0.38997   0.00000  Uiso   1.00
H635   H     0.89884   0.79335   0.89561   0.00000  Uiso   1.00
O636   O     0.92239   0.06680   0.45760   0.00000  Uiso   1.00
O637   O     0.58887   0.77384   0.38268   0.00000  Uiso   1.00
O638   O     0.87477   0.83186   0.73408   0.00000  Uiso   1.00
N639   N     0.86279   0.04451   0.35269   0.00000  Uiso   1.00
N640   N     0.62511   0.83574   0.29932   0.00000  Uiso   1.00
N641   N     0.82883   0.87708   0.83712   0.00000  Uiso   1.00
N642   N     0.90901   0.98797   0.40948   0.00000  Uiso   1.00
N643   N     0.67133   0.77920   0.35611   0.00000  Uiso   1.00
N644   N     0.87506   0.82054   0.89392   0.00000  Uiso   1.00
C645   C     0.23180   0.07590   0.15804   0.00000  Uiso   1.00
C646   C     0.19443   0.05653   0.22555   0.00000  Uiso   1.00
C647   C     0.18876   0.00875   0.25069   0.00000  Uiso   1.00
C648   C     0.15248   0.99835   0.31347   0.00000  Uiso   1.00
C649   C     0.09897   0.96279   0.41281   0.00000  Uiso   1.00
C650   C     0.25994   0.11406   0.21086   0.00000  Uiso   1.00
C651   C     0.30935   0.11466   0.22363   0.00000  Uiso   1.00
C652   C     0.32821   0.15270   0.27403   0.00000  Uiso   1.00
C653   C     0.37640   0.20648   0.35051   0.00000  Uiso   1.00
C654   C     0.20379   0.10267   0.08348   0.00000  Uiso   1.00
C655   C     0.20599   0.09369   0.98915   0.00000  Uiso   1.00
C656   C     0.17759   0.12214   0.93230   0.00000  Uiso   1.00
C657   C     0.13859   0.15822   0.81101   0.00000  Uiso   1.00
C658   C     0.17745   0.14239   0.22482   0.00000  Uiso   1.00
C659   C     0.16491   0.09265   0.26182   0.00000  Uiso   1.00
C660   C     0.12863   0.08232   0.32458   0.00000  Uiso   1.00
C661   C     0.12290   0.03453   0.34981   0.00000  Uiso   1.00
C662   C     0.23042   0.15018   0.24713   0.00000  Uiso   1.00
C663   C     0.24921   0.18823   0.29752   0.00000  Uiso   1.00
C664   C     0.29864   0.18888   0.31037   0.00000  Uiso   1.00
C665   C     0.17426   0.13878   0.11975   0.00000  Uiso   1.00
C666   C     0.14585   0.16725   0.06304   0.00000  Uiso   1.00
C667   C     0.14801   0.15832   0.96864   0.00000  Uiso   1.00
H668   H     0.25479   0.04778   0.12980   0.00000  Uiso   1.00
H669   H     0.21162   0.98081   0.22261   0.00000  Uiso   1.00
H670   H     0.33219   0.08671   0.19554   0.00000  Uiso   1.00
H671   H     0.22884   0.06574   0.96110   0.00000  Uiso   1.00
H672   H     0.15076   0.92250   0.34153   0.00000  Uiso   1.00
H673   H     0.40497   0.14579   0.28443   0.00000  Uiso   1.00
H674   H     0.18706   0.10158   0.79006   0.00000  Uiso   1.00
H675   H     0.15446   0.17051   0.25306   0.00000  Uiso   1.00
H676   H     0.10579   0.11027   0.35264   0.00000  Uiso   1.00
H677   H     0.22635   0.21617   0.32558   0.00000  Uiso   1.00
H678   H     0.12301   0.19520   0.09114   0.00000  Uiso   1.00
H679   H     0.06486   0.02757   0.44707   0.00000  Uiso   1.00
H680   H     0.31908   0.25087   0.38997   0.00000  Uiso   1.00
H681   H     0.10116   0.20665   0.89561   0.00000  Uiso   1.00
O682   O     0.07761   0.93320   0.45760   0.00000  Uiso   1.00
O683   O     0.41113   0.22616   0.38268   0.00000  Uiso   1.00
O684   O     0.12523   0.16814   0.73408   0.00000  Uiso   1.00
N685   N     0.13721   0.95549   0.35269   0.00000  Uiso   1.00
N686   N     0.37489   0.16426   0.29932   0.00000  Uiso   1.00
N687   N     0.17117   0.12292   0.83712   0.00000  Uiso   1.00
N688   N     0.09099   0.01203   0.40948   0.00000  Uiso   1.00
N689   N     0.32867   0.22080   0.35611   0.00000  Uiso   1.00
N690   N     0.12494   0.17946   0.89392   0.00000  Uiso   1.00
C691   C     0.73180   0.57590   0.65804   0.00000  Uiso   1.00
C692   C     0.69443   0.55653   0.72555   0.00000  Uiso   1.00
C693   C     0.68876   0.50875   0.75069   0.00000  Uiso   1.00
C694   C     0.65248   0.49835   0.81347   0.00000  Uiso   1.00
C695   C     0.59897   0.46279   0.91281   0.00000  Uiso   1.00
C696   C     0.75994   0.61406   0.71086   0.00000  Uiso   1.00
C697   C     0.80935   0.61466   0.72363   0.00000  Uiso   1.00
C698   C     0.82821   0.65270   0.77403   0.00000  Uiso   1.00
C699   C     0.87640   0.70648   0.85051   0.00000  Uiso   1.00
C700   C     0.70379   0.60267   0.58348   0.00000  Uiso   1.00
C701   C     0.70599   0.59369   0.48915   0.00000  Uiso   1.00
C702   C     0.67759   0.62214   0.43230   0.00000  Uiso   1.00
C703   C     0.63859   0.65822   0.31101   0.00000  Uiso   1.00
C704   C     0.67745   0.64239   0.72482   0.00000  Uiso   1.00
C705   C     0.66491   0.59265   0.76182   0.00000  Uiso   1.00
C706   C     0.62863   0.58232   0.82458   0.00000  Uiso   1.00
C707   C     0.62290   0.53453   0.84981   0.00000  Uiso   1.00
C708   C     0.73042   0.65018   0.74713   0.00000  Uiso   1.00
C709   C     0.74921   0.68823   0.79752   0.00000  Uiso   1.00
C710   C     0.79864   0.68888   0.81037   0.00000  Uiso   1.00
C711   C     0.67426   0.63878   0.61975   0.00000  Uiso   1.00
C712   C     0.64585   0.66725   0.56304   0.00000  Uiso   1.00
C713   C     0.64801   0.65832   0.46864   0.00000  Uiso   1.00
H714   H     0.75479   0.54778   0.62980   0.00000  Uiso   1.00
H715   H     0.71162   0.48081   0.72261   0.00000  Uiso   1.00
H716   H     0.83219   0.58671   0.69554   0.00000  Uiso   1.00
H717   H     0.72884   0.56574   0.46110   0.00000  Uiso   1.00
H718   H     0.65076   0.42250   0.84153   0.00000  Uiso   1.00
H719   H     0.90497   0.64579   0.78443   0.00000  Uiso   1.00
H720   H     0.68706   0.60158   0.29006   0.00000  Uiso   1.00
H721   H     0.65446   0.67051   0.75306   0.00000  Uiso   1.00
H722   H     0.60579   0.61027   0.85264   0.00000  Uiso   1.00
H723   H     0.72635   0.71617   0.82558   0.00000  Uiso   1.00
H724   H     0.62301   0.69520   0.59114   0.00000  Uiso   1.00
H725   H     0.56486   0.52757   0.94707   0.00000  Uiso   1.00
H726   H     0.81908   0.75087   0.88997   0.00000  Uiso   1.00
H727   H     0.60116   0.70665   0.39561   0.00000  Uiso   1.00
O728   O     0.57761   0.43320   0.95760   0.00000  Uiso   1.00
O729   O     0.91113   0.72616   0.88268   0.00000  Uiso   1.00
O730   O     0.62523   0.66814   0.23408   0.00000  Uiso   1.00
N731   N     0.63721   0.45549   0.85269   0.00000  Uiso   1.00
N732   N     0.87489   0.66426   0.79932   0.00000  Uiso   1.00
N733   N     0.67117   0.62292   0.33712   0.00000  Uiso   1.00
N734   N     0.59099   0.51203   0.90948   0.00000  Uiso   1.00
N735   N     0.82867   0.72080   0.85611   0.00000  Uiso   1.00
N736   N     0.62494   0.67946   0.39392   0.00000  Uiso   1.00
