data_job_03316
_audit_creation_date              2018-12-19
_audit_creation_method            'Materials Studio'
_symmetry_space_group_name_H-M    'P1'
_symmetry_Int_Tables_number       1
_symmetry_cell_setting            triclinic
loop_
_symmetry_equiv_pos_as_xyz
  x,y,z
_cell_length_a                    80.6973
_cell_length_b                    15.8229
_cell_length_c                    15.5587
_cell_angle_alpha                 90.0000
_cell_angle_beta                  90.0000
_cell_angle_gamma                 90.0000
loop_
_atom_site_label
_atom_site_type_symbol
_atom_site_fract_x
_atom_site_fract_y
_atom_site_fract_z
_atom_site_U_iso_or_equiv
_atom_site_adp_type
_atom_site_occupancy
C1     C     0.58333   0.19394   0.78900   0.00000  Uiso   1.00
C2     C     0.59201   0.15352   0.86573   0.00000  Uiso   1.00
C3     C     0.59921   0.19664   0.93383   0.00000  Uiso   1.00
C4     C     0.60655   0.14817   0.99775   0.00000  Uiso   1.00
C5     C     0.62002   0.09887   0.11750   0.00000  Uiso   1.00
C6     C     0.59217   0.16056   0.70931   0.00000  Uiso   1.00
C7     C     0.59951   0.20961   0.64589   0.00000  Uiso   1.00
C8     C     0.60697   0.16706   0.57813   0.00000  Uiso   1.00
C9     C     0.62068   0.12869   0.45500   0.00000  Uiso   1.00
C10    C     0.56595   0.15618   0.78675   0.00000  Uiso   1.00
C11    C     0.55123   0.20153   0.78842   0.00000  Uiso   1.00
C12    C     0.53662   0.15528   0.78584   0.00000  Uiso   1.00
C13    C     0.50961   0.11010   0.78296   0.00000  Uiso   1.00
C14    C     0.58354   0.03116   0.78142   0.00000  Uiso   1.00
C15    C     0.59213   0.06511   0.86161   0.00000  Uiso   1.00
C16    C     0.59945   0.01655   0.92545   0.00000  Uiso   1.00
C17    C     0.60667   0.05960   0.99363   0.00000  Uiso   1.00
C18    C     0.59229   0.07215   0.70519   0.00000  Uiso   1.00
C19    C     0.59975   0.02952   0.63751   0.00000  Uiso   1.00
C20    C     0.60709   0.07848   0.57400   0.00000  Uiso   1.00
C21    C     0.56607   0.06776   0.78264   0.00000  Uiso   1.00
C22    C     0.55147   0.02144   0.78004   0.00000  Uiso   1.00
C23    C     0.53674   0.06671   0.78172   0.00000  Uiso   1.00
H24    H     0.58324   0.26277   0.79219   0.00000  Uiso   1.00
H25    H     0.59912   0.26507   0.93699   0.00000  Uiso   1.00
H26    H     0.59941   0.27803   0.64909   0.00000  Uiso   1.00
H27    H     0.55115   0.26994   0.79161   0.00000  Uiso   1.00
H28    H     0.61679   0.22862   0.09568   0.00000  Uiso   1.00
H29    H     0.61740   0.25595   0.48862   0.00000  Uiso   1.00
H30    H     0.51562   0.23891   0.78914   0.00000  Uiso   1.00
H31    H     0.58364   0.96233   0.77821   0.00000  Uiso   1.00
H32    H     0.59954   0.94814   0.92224   0.00000  Uiso   1.00
H33    H     0.59983   0.96110   0.63434   0.00000  Uiso   1.00
H34    H     0.55157   0.95302   0.77686   0.00000  Uiso   1.00
H35    H     0.61713   0.97139   0.08372   0.00000  Uiso   1.00
H36    H     0.61774   0.99872   0.47665   0.00000  Uiso   1.00
H37    H     0.51596   0.98168   0.77717   0.00000  Uiso   1.00
O38    O     0.62742   0.09610   0.18468   0.00000  Uiso   1.00
O39    O     0.62822   0.13195   0.38823   0.00000  Uiso   1.00
O40    O     0.49468   0.10960   0.78251   0.00000  Uiso   1.00
N41    N     0.61469   0.17003   0.07311   0.00000  Uiso   1.00
N42    N     0.61526   0.19558   0.50555   0.00000  Uiso   1.00
N43    N     0.52010   0.17965   0.78649   0.00000  Uiso   1.00
N44    N     0.61487   0.03162   0.06667   0.00000  Uiso   1.00
N45    N     0.61544   0.05717   0.49911   0.00000  Uiso   1.00
N46    N     0.52028   0.04124   0.78005   0.00000  Uiso   1.00
C47    C     0.58333   0.69394   0.28900   0.00000  Uiso   1.00
C48    C     0.59201   0.65352   0.36573   0.00000  Uiso   1.00
C49    C     0.59921   0.69664   0.43383   0.00000  Uiso   1.00
C50    C     0.60655   0.64817   0.49775   0.00000  Uiso   1.00
C51    C     0.62002   0.59887   0.61750   0.00000  Uiso   1.00
C52    C     0.59217   0.66056   0.20931   0.00000  Uiso   1.00
C53    C     0.59951   0.70961   0.14589   0.00000  Uiso   1.00
C54    C     0.60697   0.66706   0.07813   0.00000  Uiso   1.00
C55    C     0.62068   0.62869   0.95500   0.00000  Uiso   1.00
C56    C     0.56595   0.65618   0.28675   0.00000  Uiso   1.00
C57    C     0.55123   0.70153   0.28842   0.00000  Uiso   1.00
C58    C     0.53662   0.65528   0.28584   0.00000  Uiso   1.00
C59    C     0.50961   0.61010   0.28296   0.00000  Uiso   1.00
C60    C     0.58354   0.53116   0.28142   0.00000  Uiso   1.00
C61    C     0.59213   0.56511   0.36161   0.00000  Uiso   1.00
C62    C     0.59945   0.51655   0.42545   0.00000  Uiso   1.00
C63    C     0.60667   0.55960   0.49363   0.00000  Uiso   1.00
C64    C     0.59229   0.57215   0.20519   0.00000  Uiso   1.00
C65    C     0.59975   0.52952   0.13751   0.00000  Uiso   1.00
C66    C     0.60709   0.57848   0.07400   0.00000  Uiso   1.00
C67    C     0.56607   0.56776   0.28264   0.00000  Uiso   1.00
C68    C     0.55147   0.52144   0.28004   0.00000  Uiso   1.00
C69    C     0.53674   0.56671   0.28172   0.00000  Uiso   1.00
H70    H     0.58324   0.76277   0.29219   0.00000  Uiso   1.00
H71    H     0.59912   0.76507   0.43699   0.00000  Uiso   1.00
H72    H     0.59941   0.77803   0.14909   0.00000  Uiso   1.00
H73    H     0.55115   0.76994   0.29161   0.00000  Uiso   1.00
H74    H     0.61679   0.72862   0.59568   0.00000  Uiso   1.00
H75    H     0.61740   0.75595   0.98862   0.00000  Uiso   1.00
H76    H     0.51562   0.73891   0.28914   0.00000  Uiso   1.00
H77    H     0.58364   0.46233   0.27821   0.00000  Uiso   1.00
H78    H     0.59954   0.44814   0.42224   0.00000  Uiso   1.00
H79    H     0.59983   0.46110   0.13434   0.00000  Uiso   1.00
H80    H     0.55157   0.45302   0.27686   0.00000  Uiso   1.00
H81    H     0.61713   0.47139   0.58372   0.00000  Uiso   1.00
H82    H     0.61774   0.49872   0.97665   0.00000  Uiso   1.00
H83    H     0.51596   0.48168   0.27717   0.00000  Uiso   1.00
O84    O     0.62742   0.59610   0.68468   0.00000  Uiso   1.00
O85    O     0.62822   0.63195   0.88823   0.00000  Uiso   1.00
O86    O     0.49468   0.60960   0.28251   0.00000  Uiso   1.00
N87    N     0.61469   0.67003   0.57311   0.00000  Uiso   1.00
N88    N     0.61526   0.69558   0.00555   0.00000  Uiso   1.00
N89    N     0.52010   0.67965   0.28649   0.00000  Uiso   1.00
N90    N     0.61487   0.53162   0.56667   0.00000  Uiso   1.00
N91    N     0.61544   0.55717   0.99911   0.00000  Uiso   1.00
N92    N     0.52028   0.54124   0.28005   0.00000  Uiso   1.00
C93    C     0.08333   0.19394   0.28900   0.00000  Uiso   1.00
C94    C     0.09201   0.15352   0.36573   0.00000  Uiso   1.00
C95    C     0.09921   0.19664   0.43383   0.00000  Uiso   1.00
C96    C     0.10655   0.14817   0.49775   0.00000  Uiso   1.00
C97    C     0.12002   0.09887   0.61750   0.00000  Uiso   1.00
C98    C     0.09217   0.16056   0.20931   0.00000  Uiso   1.00
C99    C     0.09951   0.20961   0.14589   0.00000  Uiso   1.00
C100   C     0.10697   0.16706   0.07813   0.00000  Uiso   1.00
C101   C     0.12068   0.12869   0.95500   0.00000  Uiso   1.00
C102   C     0.06595   0.15618   0.28675   0.00000  Uiso   1.00
C103   C     0.05123   0.20153   0.28842   0.00000  Uiso   1.00
C104   C     0.03662   0.15528   0.28584   0.00000  Uiso   1.00
C105   C     0.00961   0.11010   0.28296   0.00000  Uiso   1.00
C106   C     0.08354   0.03116   0.28142   0.00000  Uiso   1.00
C107   C     0.09213   0.06511   0.36161   0.00000  Uiso   1.00
C108   C     0.09945   0.01655   0.42545   0.00000  Uiso   1.00
C109   C     0.10667   0.05960   0.49363   0.00000  Uiso   1.00
C110   C     0.09229   0.07215   0.20519   0.00000  Uiso   1.00
C111   C     0.09975   0.02952   0.13751   0.00000  Uiso   1.00
C112   C     0.10709   0.07848   0.07400   0.00000  Uiso   1.00
C113   C     0.06607   0.06776   0.28264   0.00000  Uiso   1.00
C114   C     0.05147   0.02144   0.28004   0.00000  Uiso   1.00
C115   C     0.03674   0.06671   0.28172   0.00000  Uiso   1.00
H116   H     0.08324   0.26277   0.29219   0.00000  Uiso   1.00
H117   H     0.09912   0.26507   0.43699   0.00000  Uiso   1.00
H118   H     0.09941   0.27803   0.14909   0.00000  Uiso   1.00
H119   H     0.05115   0.26994   0.29161   0.00000  Uiso   1.00
H120   H     0.11679   0.22862   0.59568   0.00000  Uiso   1.00
H121   H     0.11740   0.25595   0.98862   0.00000  Uiso   1.00
H122   H     0.01562   0.23891   0.28914   0.00000  Uiso   1.00
H123   H     0.08364   0.96233   0.27821   0.00000  Uiso   1.00
H124   H     0.09954   0.94814   0.42224   0.00000  Uiso   1.00
H125   H     0.09983   0.96110   0.13434   0.00000  Uiso   1.00
H126   H     0.05157   0.95302   0.27686   0.00000  Uiso   1.00
H127   H     0.11713   0.97139   0.58372   0.00000  Uiso   1.00
H128   H     0.11774   0.99872   0.97665   0.00000  Uiso   1.00
H129   H     0.01596   0.98168   0.27717   0.00000  Uiso   1.00
O130   O     0.12742   0.09610   0.68468   0.00000  Uiso   1.00
O131   O     0.12822   0.13195   0.88823   0.00000  Uiso   1.00
O132   O     0.99468   0.10960   0.28251   0.00000  Uiso   1.00
N133   N     0.11469   0.17003   0.57311   0.00000  Uiso   1.00
N134   N     0.11526   0.19558   0.00555   0.00000  Uiso   1.00
N135   N     0.02010   0.17965   0.28649   0.00000  Uiso   1.00
N136   N     0.11487   0.03162   0.56667   0.00000  Uiso   1.00
N137   N     0.11544   0.05717   0.99911   0.00000  Uiso   1.00
N138   N     0.02028   0.04124   0.28005   0.00000  Uiso   1.00
C139   C     0.08333   0.69394   0.78900   0.00000  Uiso   1.00
C140   C     0.09201   0.65352   0.86573   0.00000  Uiso   1.00
C141   C     0.09921   0.69664   0.93383   0.00000  Uiso   1.00
C142   C     0.10655   0.64817   0.99775   0.00000  Uiso   1.00
C143   C     0.12002   0.59887   0.11750   0.00000  Uiso   1.00
C144   C     0.09217   0.66056   0.70931   0.00000  Uiso   1.00
C145   C     0.09951   0.70961   0.64589   0.00000  Uiso   1.00
C146   C     0.10697   0.66706   0.57813   0.00000  Uiso   1.00
C147   C     0.12068   0.62869   0.45500   0.00000  Uiso   1.00
C148   C     0.06595   0.65618   0.78675   0.00000  Uiso   1.00
C149   C     0.05123   0.70153   0.78842   0.00000  Uiso   1.00
C150   C     0.03662   0.65528   0.78584   0.00000  Uiso   1.00
C151   C     0.00961   0.61010   0.78296   0.00000  Uiso   1.00
C152   C     0.08354   0.53116   0.78142   0.00000  Uiso   1.00
C153   C     0.09213   0.56511   0.86161   0.00000  Uiso   1.00
C154   C     0.09945   0.51655   0.92545   0.00000  Uiso   1.00
C155   C     0.10667   0.55960   0.99363   0.00000  Uiso   1.00
C156   C     0.09229   0.57215   0.70519   0.00000  Uiso   1.00
C157   C     0.09975   0.52952   0.63751   0.00000  Uiso   1.00
C158   C     0.10709   0.57848   0.57400   0.00000  Uiso   1.00
C159   C     0.06607   0.56776   0.78264   0.00000  Uiso   1.00
C160   C     0.05147   0.52144   0.78004   0.00000  Uiso   1.00
C161   C     0.03674   0.56671   0.78172   0.00000  Uiso   1.00
H162   H     0.08324   0.76277   0.79219   0.00000  Uiso   1.00
H163   H     0.09912   0.76507   0.93699   0.00000  Uiso   1.00
H164   H     0.09941   0.77803   0.64909   0.00000  Uiso   1.00
H165   H     0.05115   0.76994   0.79161   0.00000  Uiso   1.00
H166   H     0.11679   0.72862   0.09568   0.00000  Uiso   1.00
H167   H     0.11740   0.75595   0.48862   0.00000  Uiso   1.00
H168   H     0.01562   0.73891   0.78914   0.00000  Uiso   1.00
H169   H     0.08364   0.46233   0.77821   0.00000  Uiso   1.00
H170   H     0.09954   0.44814   0.92224   0.00000  Uiso   1.00
H171   H     0.09983   0.46110   0.63434   0.00000  Uiso   1.00
H172   H     0.05157   0.45302   0.77686   0.00000  Uiso   1.00
H173   H     0.11713   0.47139   0.08372   0.00000  Uiso   1.00
H174   H     0.11774   0.49872   0.47665   0.00000  Uiso   1.00
H175   H     0.01596   0.48168   0.77717   0.00000  Uiso   1.00
O176   O     0.12742   0.59610   0.18468   0.00000  Uiso   1.00
O177   O     0.12822   0.63195   0.38823   0.00000  Uiso   1.00
O178   O     0.99468   0.60960   0.78251   0.00000  Uiso   1.00
N179   N     0.11469   0.67003   0.07311   0.00000  Uiso   1.00
N180   N     0.11526   0.69558   0.50555   0.00000  Uiso   1.00
N181   N     0.02010   0.67965   0.78649   0.00000  Uiso   1.00
N182   N     0.11487   0.53162   0.06667   0.00000  Uiso   1.00
N183   N     0.11544   0.55717   0.49911   0.00000  Uiso   1.00
N184   N     0.02028   0.54124   0.78005   0.00000  Uiso   1.00
C185   C     0.41667   0.80606   0.78900   0.00000  Uiso   1.00
C186   C     0.40799   0.84648   0.86573   0.00000  Uiso   1.00
C187   C     0.40079   0.80336   0.93383   0.00000  Uiso   1.00
C188   C     0.39345   0.85183   0.99775   0.00000  Uiso   1.00
C189   C     0.37998   0.90113   0.11750   0.00000  Uiso   1.00
C190   C     0.40783   0.83944   0.70931   0.00000  Uiso   1.00
C191   C     0.40049   0.79039   0.64589   0.00000  Uiso   1.00
C192   C     0.39303   0.83294   0.57813   0.00000  Uiso   1.00
C193   C     0.37932   0.87131   0.45500   0.00000  Uiso   1.00
C194   C     0.43405   0.84382   0.78675   0.00000  Uiso   1.00
C195   C     0.44877   0.79847   0.78842   0.00000  Uiso   1.00
C196   C     0.46338   0.84472   0.78584   0.00000  Uiso   1.00
C197   C     0.49039   0.88990   0.78296   0.00000  Uiso   1.00
C198   C     0.41646   0.96884   0.78142   0.00000  Uiso   1.00
C199   C     0.40787   0.93489   0.86161   0.00000  Uiso   1.00
C200   C     0.40055   0.98345   0.92545   0.00000  Uiso   1.00
C201   C     0.39333   0.94040   0.99363   0.00000  Uiso   1.00
C202   C     0.40771   0.92785   0.70519   0.00000  Uiso   1.00
C203   C     0.40025   0.97048   0.63751   0.00000  Uiso   1.00
C204   C     0.39291   0.92152   0.57400   0.00000  Uiso   1.00
C205   C     0.43393   0.93224   0.78264   0.00000  Uiso   1.00
C206   C     0.44853   0.97856   0.78004   0.00000  Uiso   1.00
C207   C     0.46326   0.93329   0.78172   0.00000  Uiso   1.00
H208   H     0.41676   0.73723   0.79219   0.00000  Uiso   1.00
H209   H     0.40088   0.73493   0.93699   0.00000  Uiso   1.00
H210   H     0.40059   0.72197   0.64909   0.00000  Uiso   1.00
H211   H     0.44885   0.73006   0.79161   0.00000  Uiso   1.00
H212   H     0.38321   0.77138   0.09568   0.00000  Uiso   1.00
H213   H     0.38260   0.74405   0.48862   0.00000  Uiso   1.00
H214   H     0.48438   0.76109   0.78914   0.00000  Uiso   1.00
H215   H     0.41636   0.03767   0.77821   0.00000  Uiso   1.00
H216   H     0.40046   0.05186   0.92224   0.00000  Uiso   1.00
H217   H     0.40017   0.03890   0.63434   0.00000  Uiso   1.00
H218   H     0.44843   0.04698   0.77686   0.00000  Uiso   1.00
H219   H     0.38287   0.02861   0.08372   0.00000  Uiso   1.00
H220   H     0.38226   0.00128   0.47665   0.00000  Uiso   1.00
H221   H     0.48404   0.01832   0.77717   0.00000  Uiso   1.00
O222   O     0.37258   0.90390   0.18468   0.00000  Uiso   1.00
O223   O     0.37178   0.86805   0.38823   0.00000  Uiso   1.00
O224   O     0.50532   0.89040   0.78251   0.00000  Uiso   1.00
N225   N     0.38531   0.82997   0.07311   0.00000  Uiso   1.00
N226   N     0.38474   0.80442   0.50555   0.00000  Uiso   1.00
N227   N     0.47990   0.82035   0.78649   0.00000  Uiso   1.00
N228   N     0.38513   0.96838   0.06667   0.00000  Uiso   1.00
N229   N     0.38456   0.94283   0.49911   0.00000  Uiso   1.00
N230   N     0.47972   0.95876   0.78005   0.00000  Uiso   1.00
C231   C     0.41667   0.30606   0.28900   0.00000  Uiso   1.00
C232   C     0.40799   0.34648   0.36573   0.00000  Uiso   1.00
C233   C     0.40079   0.30336   0.43383   0.00000  Uiso   1.00
C234   C     0.39345   0.35183   0.49775   0.00000  Uiso   1.00
C235   C     0.37998   0.40113   0.61750   0.00000  Uiso   1.00
C236   C     0.40783   0.33944   0.20931   0.00000  Uiso   1.00
C237   C     0.40049   0.29039   0.14589   0.00000  Uiso   1.00
C238   C     0.39303   0.33294   0.07813   0.00000  Uiso   1.00
C239   C     0.37932   0.37131   0.95500   0.00000  Uiso   1.00
C240   C     0.43405   0.34382   0.28675   0.00000  Uiso   1.00
C241   C     0.44877   0.29847   0.28842   0.00000  Uiso   1.00
C242   C     0.46338   0.34472   0.28584   0.00000  Uiso   1.00
C243   C     0.49039   0.38990   0.28296   0.00000  Uiso   1.00
C244   C     0.41646   0.46884   0.28142   0.00000  Uiso   1.00
C245   C     0.40787   0.43489   0.36161   0.00000  Uiso   1.00
C246   C     0.40055   0.48345   0.42545   0.00000  Uiso   1.00
C247   C     0.39333   0.44040   0.49363   0.00000  Uiso   1.00
C248   C     0.40771   0.42785   0.20519   0.00000  Uiso   1.00
C249   C     0.40025   0.47048   0.13751   0.00000  Uiso   1.00
C250   C     0.39291   0.42152   0.07400   0.00000  Uiso   1.00
C251   C     0.43393   0.43224   0.28264   0.00000  Uiso   1.00
C252   C     0.44853   0.47856   0.28004   0.00000  Uiso   1.00
C253   C     0.46326   0.43329   0.28172   0.00000  Uiso   1.00
H254   H     0.41676   0.23723   0.29219   0.00000  Uiso   1.00
H255   H     0.40088   0.23493   0.43699   0.00000  Uiso   1.00
H256   H     0.40059   0.22197   0.14909   0.00000  Uiso   1.00
H257   H     0.44885   0.23006   0.29161   0.00000  Uiso   1.00
H258   H     0.38321   0.27138   0.59568   0.00000  Uiso   1.00
H259   H     0.38260   0.24405   0.98862   0.00000  Uiso   1.00
H260   H     0.48438   0.26109   0.28914   0.00000  Uiso   1.00
H261   H     0.41636   0.53767   0.27821   0.00000  Uiso   1.00
H262   H     0.40046   0.55186   0.42224   0.00000  Uiso   1.00
H263   H     0.40017   0.53890   0.13434   0.00000  Uiso   1.00
H264   H     0.44843   0.54698   0.27686   0.00000  Uiso   1.00
H265   H     0.38287   0.52861   0.58372   0.00000  Uiso   1.00
H266   H     0.38226   0.50128   0.97665   0.00000  Uiso   1.00
H267   H     0.48404   0.51832   0.27717   0.00000  Uiso   1.00
O268   O     0.37258   0.40390   0.68468   0.00000  Uiso   1.00
O269   O     0.37178   0.36805   0.88823   0.00000  Uiso   1.00
O270   O     0.50532   0.39040   0.28251   0.00000  Uiso   1.00
N271   N     0.38531   0.32997   0.57311   0.00000  Uiso   1.00
N272   N     0.38474   0.30442   0.00555   0.00000  Uiso   1.00
N273   N     0.47990   0.32035   0.28649   0.00000  Uiso   1.00
N274   N     0.38513   0.46838   0.56667   0.00000  Uiso   1.00
N275   N     0.38456   0.44283   0.99911   0.00000  Uiso   1.00
N276   N     0.47972   0.45876   0.28005   0.00000  Uiso   1.00
C277   C     0.91667   0.80606   0.28900   0.00000  Uiso   1.00
C278   C     0.90799   0.84648   0.36573   0.00000  Uiso   1.00
C279   C     0.90079   0.80336   0.43383   0.00000  Uiso   1.00
C280   C     0.89345   0.85183   0.49775   0.00000  Uiso   1.00
C281   C     0.87998   0.90113   0.61750   0.00000  Uiso   1.00
C282   C     0.90783   0.83944   0.20931   0.00000  Uiso   1.00
C283   C     0.90049   0.79039   0.14589   0.00000  Uiso   1.00
C284   C     0.89303   0.83294   0.07813   0.00000  Uiso   1.00
C285   C     0.87932   0.87131   0.95500   0.00000  Uiso   1.00
C286   C     0.93405   0.84382   0.28675   0.00000  Uiso   1.00
C287   C     0.94877   0.79847   0.28842   0.00000  Uiso   1.00
C288   C     0.96338   0.84472   0.28584   0.00000  Uiso   1.00
C289   C     0.99039   0.88990   0.28296   0.00000  Uiso   1.00
C290   C     0.91646   0.96884   0.28142   0.00000  Uiso   1.00
C291   C     0.90787   0.93489   0.36161   0.00000  Uiso   1.00
C292   C     0.90055   0.98345   0.42545   0.00000  Uiso   1.00
C293   C     0.89333   0.94040   0.49363   0.00000  Uiso   1.00
C294   C     0.90771   0.92785   0.20519   0.00000  Uiso   1.00
C295   C     0.90025   0.97048   0.13751   0.00000  Uiso   1.00
C296   C     0.89291   0.92152   0.07400   0.00000  Uiso   1.00
C297   C     0.93393   0.93224   0.28264   0.00000  Uiso   1.00
C298   C     0.94853   0.97856   0.28004   0.00000  Uiso   1.00
C299   C     0.96326   0.93329   0.28172   0.00000  Uiso   1.00
H300   H     0.91676   0.73723   0.29219   0.00000  Uiso   1.00
H301   H     0.90088   0.73493   0.43699   0.00000  Uiso   1.00
H302   H     0.90059   0.72197   0.14909   0.00000  Uiso   1.00
H303   H     0.94885   0.73006   0.29161   0.00000  Uiso   1.00
H304   H     0.88321   0.77138   0.59568   0.00000  Uiso   1.00
H305   H     0.88260   0.74405   0.98862   0.00000  Uiso   1.00
H306   H     0.98438   0.76109   0.28914   0.00000  Uiso   1.00
H307   H     0.91636   0.03767   0.27821   0.00000  Uiso   1.00
H308   H     0.90046   0.05186   0.42224   0.00000  Uiso   1.00
H309   H     0.90017   0.03890   0.13434   0.00000  Uiso   1.00
H310   H     0.94843   0.04698   0.27686   0.00000  Uiso   1.00
H311   H     0.88287   0.02861   0.58372   0.00000  Uiso   1.00
H312   H     0.88226   0.00128   0.97665   0.00000  Uiso   1.00
H313   H     0.98404   0.01832   0.27717   0.00000  Uiso   1.00
O314   O     0.87258   0.90390   0.68468   0.00000  Uiso   1.00
O315   O     0.87178   0.86805   0.88823   0.00000  Uiso   1.00
O316   O     0.00532   0.89040   0.28251   0.00000  Uiso   1.00
N317   N     0.88531   0.82997   0.57311   0.00000  Uiso   1.00
N318   N     0.88474   0.80442   0.00555   0.00000  Uiso   1.00
N319   N     0.97990   0.82035   0.28649   0.00000  Uiso   1.00
N320   N     0.88513   0.96838   0.56667   0.00000  Uiso   1.00
N321   N     0.88456   0.94283   0.99911   0.00000  Uiso   1.00
N322   N     0.97972   0.95876   0.28005   0.00000  Uiso   1.00
C323   C     0.91667   0.30606   0.78900   0.00000  Uiso   1.00
C324   C     0.90799   0.34648   0.86573   0.00000  Uiso   1.00
C325   C     0.90079   0.30336   0.93383   0.00000  Uiso   1.00
C326   C     0.89345   0.35183   0.99775   0.00000  Uiso   1.00
C327   C     0.87998   0.40113   0.11750   0.00000  Uiso   1.00
C328   C     0.90783   0.33944   0.70931   0.00000  Uiso   1.00
C329   C     0.90049   0.29039   0.64589   0.00000  Uiso   1.00
C330   C     0.89303   0.33294   0.57813   0.00000  Uiso   1.00
C331   C     0.87932   0.37131   0.45500   0.00000  Uiso   1.00
C332   C     0.93405   0.34382   0.78675   0.00000  Uiso   1.00
C333   C     0.94877   0.29847   0.78842   0.00000  Uiso   1.00
C334   C     0.96338   0.34472   0.78584   0.00000  Uiso   1.00
C335   C     0.99039   0.38990   0.78296   0.00000  Uiso   1.00
C336   C     0.91646   0.46884   0.78142   0.00000  Uiso   1.00
C337   C     0.90787   0.43489   0.86161   0.00000  Uiso   1.00
C338   C     0.90055   0.48345   0.92545   0.00000  Uiso   1.00
C339   C     0.89333   0.44040   0.99363   0.00000  Uiso   1.00
C340   C     0.90771   0.42785   0.70519   0.00000  Uiso   1.00
C341   C     0.90025   0.47048   0.63751   0.00000  Uiso   1.00
C342   C     0.89291   0.42152   0.57400   0.00000  Uiso   1.00
C343   C     0.93393   0.43224   0.78264   0.00000  Uiso   1.00
C344   C     0.94853   0.47856   0.78004   0.00000  Uiso   1.00
C345   C     0.96326   0.43329   0.78172   0.00000  Uiso   1.00
H346   H     0.91676   0.23723   0.79219   0.00000  Uiso   1.00
H347   H     0.90088   0.23493   0.93699   0.00000  Uiso   1.00
H348   H     0.90059   0.22197   0.64909   0.00000  Uiso   1.00
H349   H     0.94885   0.23006   0.79161   0.00000  Uiso   1.00
H350   H     0.88321   0.27138   0.09568   0.00000  Uiso   1.00
H351   H     0.88260   0.24405   0.48862   0.00000  Uiso   1.00
H352   H     0.98438   0.26109   0.78914   0.00000  Uiso   1.00
H353   H     0.91636   0.53767   0.77821   0.00000  Uiso   1.00
H354   H     0.90046   0.55186   0.92224   0.00000  Uiso   1.00
H355   H     0.90017   0.53890   0.63434   0.00000  Uiso   1.00
H356   H     0.94843   0.54698   0.77686   0.00000  Uiso   1.00
H357   H     0.88287   0.52861   0.08372   0.00000  Uiso   1.00
H358   H     0.88226   0.50128   0.47665   0.00000  Uiso   1.00
H359   H     0.98404   0.51832   0.77717   0.00000  Uiso   1.00
O360   O     0.87258   0.40390   0.18468   0.00000  Uiso   1.00
O361   O     0.87178   0.36805   0.38823   0.00000  Uiso   1.00
O362   O     0.00532   0.39040   0.78251   0.00000  Uiso   1.00
N363   N     0.88531   0.32997   0.07311   0.00000  Uiso   1.00
N364   N     0.88474   0.30442   0.50555   0.00000  Uiso   1.00
N365   N     0.97990   0.32035   0.78649   0.00000  Uiso   1.00
N366   N     0.88513   0.46838   0.06667   0.00000  Uiso   1.00
N367   N     0.88456   0.44283   0.49911   0.00000  Uiso   1.00
N368   N     0.97972   0.45876   0.78005   0.00000  Uiso   1.00
C369   C     0.83333   0.05606   0.03900   0.00000  Uiso   1.00
C370   C     0.84201   0.09648   0.11573   0.00000  Uiso   1.00
C371   C     0.84921   0.05336   0.18383   0.00000  Uiso   1.00
C372   C     0.85655   0.10183   0.24775   0.00000  Uiso   1.00
C373   C     0.87002   0.15113   0.36750   0.00000  Uiso   1.00
C374   C     0.84217   0.08944   0.95931   0.00000  Uiso   1.00
C375   C     0.84951   0.04039   0.89589   0.00000  Uiso   1.00
C376   C     0.85697   0.08294   0.82813   0.00000  Uiso   1.00
C377   C     0.87068   0.12131   0.70500   0.00000  Uiso   1.00
C378   C     0.81595   0.09382   0.03675   0.00000  Uiso   1.00
C379   C     0.80123   0.04847   0.03842   0.00000  Uiso   1.00
C380   C     0.78662   0.09472   0.03584   0.00000  Uiso   1.00
C381   C     0.75961   0.13990   0.03296   0.00000  Uiso   1.00
C382   C     0.83354   0.21884   0.03142   0.00000  Uiso   1.00
C383   C     0.84213   0.18489   0.11161   0.00000  Uiso   1.00
C384   C     0.84945   0.23345   0.17545   0.00000  Uiso   1.00
C385   C     0.85667   0.19040   0.24363   0.00000  Uiso   1.00
C386   C     0.84229   0.17785   0.95519   0.00000  Uiso   1.00
C387   C     0.84975   0.22048   0.88751   0.00000  Uiso   1.00
C388   C     0.85709   0.17152   0.82400   0.00000  Uiso   1.00
C389   C     0.81607   0.18224   0.03264   0.00000  Uiso   1.00
C390   C     0.80147   0.22856   0.03004   0.00000  Uiso   1.00
C391   C     0.78674   0.18329   0.03172   0.00000  Uiso   1.00
H392   H     0.83324   0.98723   0.04219   0.00000  Uiso   1.00
H393   H     0.84912   0.98493   0.18699   0.00000  Uiso   1.00
H394   H     0.84941   0.97197   0.89909   0.00000  Uiso   1.00
H395   H     0.80115   0.98006   0.04161   0.00000  Uiso   1.00
H396   H     0.86679   0.02138   0.34568   0.00000  Uiso   1.00
H397   H     0.86740   0.99405   0.73862   0.00000  Uiso   1.00
H398   H     0.76562   0.01109   0.03914   0.00000  Uiso   1.00
H399   H     0.83364   0.28767   0.02821   0.00000  Uiso   1.00
H400   H     0.84954   0.30186   0.17224   0.00000  Uiso   1.00
H401   H     0.84983   0.28890   0.88434   0.00000  Uiso   1.00
H402   H     0.80157   0.29698   0.02686   0.00000  Uiso   1.00
H403   H     0.86713   0.27861   0.33372   0.00000  Uiso   1.00
H404   H     0.86774   0.25128   0.72665   0.00000  Uiso   1.00
H405   H     0.76596   0.26832   0.02717   0.00000  Uiso   1.00
O406   O     0.87742   0.15390   0.43468   0.00000  Uiso   1.00
O407   O     0.87822   0.11805   0.63823   0.00000  Uiso   1.00
O408   O     0.74468   0.14040   0.03251   0.00000  Uiso   1.00
N409   N     0.86469   0.07997   0.32311   0.00000  Uiso   1.00
N410   N     0.86526   0.05442   0.75555   0.00000  Uiso   1.00
N411   N     0.77010   0.07035   0.03649   0.00000  Uiso   1.00
N412   N     0.86487   0.21838   0.31667   0.00000  Uiso   1.00
N413   N     0.86544   0.19283   0.74911   0.00000  Uiso   1.00
N414   N     0.77028   0.20876   0.03005   0.00000  Uiso   1.00
C415   C     0.83333   0.55606   0.53900   0.00000  Uiso   1.00
C416   C     0.84201   0.59648   0.61573   0.00000  Uiso   1.00
C417   C     0.84921   0.55336   0.68383   0.00000  Uiso   1.00
C418   C     0.85655   0.60183   0.74775   0.00000  Uiso   1.00
C419   C     0.87002   0.65113   0.86750   0.00000  Uiso   1.00
C420   C     0.84217   0.58944   0.45931   0.00000  Uiso   1.00
C421   C     0.84951   0.54039   0.39589   0.00000  Uiso   1.00
C422   C     0.85697   0.58294   0.32813   0.00000  Uiso   1.00
C423   C     0.87068   0.62131   0.20500   0.00000  Uiso   1.00
C424   C     0.81595   0.59382   0.53675   0.00000  Uiso   1.00
C425   C     0.80123   0.54847   0.53842   0.00000  Uiso   1.00
C426   C     0.78662   0.59472   0.53584   0.00000  Uiso   1.00
C427   C     0.75961   0.63990   0.53296   0.00000  Uiso   1.00
C428   C     0.83354   0.71884   0.53142   0.00000  Uiso   1.00
C429   C     0.84213   0.68489   0.61161   0.00000  Uiso   1.00
C430   C     0.84945   0.73345   0.67545   0.00000  Uiso   1.00
C431   C     0.85667   0.69040   0.74363   0.00000  Uiso   1.00
C432   C     0.84229   0.67785   0.45519   0.00000  Uiso   1.00
C433   C     0.84975   0.72048   0.38751   0.00000  Uiso   1.00
C434   C     0.85709   0.67152   0.32400   0.00000  Uiso   1.00
C435   C     0.81607   0.68224   0.53264   0.00000  Uiso   1.00
C436   C     0.80147   0.72856   0.53004   0.00000  Uiso   1.00
C437   C     0.78674   0.68329   0.53172   0.00000  Uiso   1.00
H438   H     0.83324   0.48723   0.54219   0.00000  Uiso   1.00
H439   H     0.84912   0.48493   0.68699   0.00000  Uiso   1.00
H440   H     0.84941   0.47197   0.39909   0.00000  Uiso   1.00
H441   H     0.80115   0.48006   0.54161   0.00000  Uiso   1.00
H442   H     0.86679   0.52138   0.84568   0.00000  Uiso   1.00
H443   H     0.86740   0.49405   0.23862   0.00000  Uiso   1.00
H444   H     0.76562   0.51109   0.53914   0.00000  Uiso   1.00
H445   H     0.83364   0.78767   0.52821   0.00000  Uiso   1.00
H446   H     0.84954   0.80186   0.67224   0.00000  Uiso   1.00
H447   H     0.84983   0.78890   0.38434   0.00000  Uiso   1.00
H448   H     0.80157   0.79698   0.52686   0.00000  Uiso   1.00
H449   H     0.86713   0.77861   0.83372   0.00000  Uiso   1.00
H450   H     0.86774   0.75128   0.22665   0.00000  Uiso   1.00
H451   H     0.76596   0.76832   0.52717   0.00000  Uiso   1.00
O452   O     0.87742   0.65390   0.93468   0.00000  Uiso   1.00
O453   O     0.87822   0.61805   0.13823   0.00000  Uiso   1.00
O454   O     0.74468   0.64040   0.53251   0.00000  Uiso   1.00
N455   N     0.86469   0.57997   0.82311   0.00000  Uiso   1.00
N456   N     0.86526   0.55442   0.25555   0.00000  Uiso   1.00
N457   N     0.77010   0.57035   0.53649   0.00000  Uiso   1.00
N458   N     0.86487   0.71838   0.81667   0.00000  Uiso   1.00
N459   N     0.86544   0.69283   0.24911   0.00000  Uiso   1.00
N460   N     0.77028   0.70876   0.53005   0.00000  Uiso   1.00
C461   C     0.33333   0.05606   0.53900   0.00000  Uiso   1.00
C462   C     0.34201   0.09648   0.61573   0.00000  Uiso   1.00
C463   C     0.34921   0.05336   0.68383   0.00000  Uiso   1.00
C464   C     0.35655   0.10183   0.74775   0.00000  Uiso   1.00
C465   C     0.37002   0.15113   0.86750   0.00000  Uiso   1.00
C466   C     0.34217   0.08944   0.45931   0.00000  Uiso   1.00
C467   C     0.34951   0.04039   0.39589   0.00000  Uiso   1.00
C468   C     0.35697   0.08294   0.32813   0.00000  Uiso   1.00
C469   C     0.37068   0.12131   0.20500   0.00000  Uiso   1.00
C470   C     0.31595   0.09382   0.53675   0.00000  Uiso   1.00
C471   C     0.30123   0.04847   0.53842   0.00000  Uiso   1.00
C472   C     0.28662   0.09472   0.53584   0.00000  Uiso   1.00
C473   C     0.25961   0.13990   0.53296   0.00000  Uiso   1.00
C474   C     0.33354   0.21884   0.53142   0.00000  Uiso   1.00
C475   C     0.34213   0.18489   0.61161   0.00000  Uiso   1.00
C476   C     0.34945   0.23345   0.67545   0.00000  Uiso   1.00
C477   C     0.35667   0.19040   0.74363   0.00000  Uiso   1.00
C478   C     0.34229   0.17785   0.45519   0.00000  Uiso   1.00
C479   C     0.34975   0.22048   0.38751   0.00000  Uiso   1.00
C480   C     0.35709   0.17152   0.32400   0.00000  Uiso   1.00
C481   C     0.31607   0.18224   0.53264   0.00000  Uiso   1.00
C482   C     0.30147   0.22856   0.53004   0.00000  Uiso   1.00
C483   C     0.28674   0.18329   0.53172   0.00000  Uiso   1.00
H484   H     0.33324   0.98723   0.54219   0.00000  Uiso   1.00
H485   H     0.34912   0.98493   0.68699   0.00000  Uiso   1.00
H486   H     0.34941   0.97197   0.39909   0.00000  Uiso   1.00
H487   H     0.30115   0.98006   0.54161   0.00000  Uiso   1.00
H488   H     0.36679   0.02138   0.84568   0.00000  Uiso   1.00
H489   H     0.36740   0.99405   0.23862   0.00000  Uiso   1.00
H490   H     0.26562   0.01109   0.53914   0.00000  Uiso   1.00
H491   H     0.33364   0.28767   0.52821   0.00000  Uiso   1.00
H492   H     0.34954   0.30186   0.67224   0.00000  Uiso   1.00
H493   H     0.34983   0.28890   0.38434   0.00000  Uiso   1.00
H494   H     0.30157   0.29698   0.52686   0.00000  Uiso   1.00
H495   H     0.36713   0.27861   0.83372   0.00000  Uiso   1.00
H496   H     0.36774   0.25128   0.22665   0.00000  Uiso   1.00
H497   H     0.26596   0.26832   0.52717   0.00000  Uiso   1.00
O498   O     0.37742   0.15390   0.93468   0.00000  Uiso   1.00
O499   O     0.37822   0.11805   0.13823   0.00000  Uiso   1.00
O500   O     0.24468   0.14040   0.53251   0.00000  Uiso   1.00
N501   N     0.36469   0.07997   0.82311   0.00000  Uiso   1.00
N502   N     0.36526   0.05442   0.25555   0.00000  Uiso   1.00
N503   N     0.27010   0.07035   0.53649   0.00000  Uiso   1.00
N504   N     0.36487   0.21838   0.81667   0.00000  Uiso   1.00
N505   N     0.36544   0.19283   0.24911   0.00000  Uiso   1.00
N506   N     0.27028   0.20876   0.53005   0.00000  Uiso   1.00
C507   C     0.33333   0.55606   0.03900   0.00000  Uiso   1.00
C508   C     0.34201   0.59648   0.11573   0.00000  Uiso   1.00
C509   C     0.34921   0.55336   0.18383   0.00000  Uiso   1.00
C510   C     0.35655   0.60183   0.24775   0.00000  Uiso   1.00
C511   C     0.37002   0.65113   0.36750   0.00000  Uiso   1.00
C512   C     0.34217   0.58944   0.95931   0.00000  Uiso   1.00
C513   C     0.34951   0.54039   0.89589   0.00000  Uiso   1.00
C514   C     0.35697   0.58294   0.82813   0.00000  Uiso   1.00
C515   C     0.37068   0.62131   0.70500   0.00000  Uiso   1.00
C516   C     0.31595   0.59382   0.03675   0.00000  Uiso   1.00
C517   C     0.30123   0.54847   0.03842   0.00000  Uiso   1.00
C518   C     0.28662   0.59472   0.03584   0.00000  Uiso   1.00
C519   C     0.25961   0.63990   0.03296   0.00000  Uiso   1.00
C520   C     0.33354   0.71884   0.03142   0.00000  Uiso   1.00
C521   C     0.34213   0.68489   0.11161   0.00000  Uiso   1.00
C522   C     0.34945   0.73345   0.17545   0.00000  Uiso   1.00
C523   C     0.35667   0.69040   0.24363   0.00000  Uiso   1.00
C524   C     0.34229   0.67785   0.95519   0.00000  Uiso   1.00
C525   C     0.34975   0.72048   0.88751   0.00000  Uiso   1.00
C526   C     0.35709   0.67152   0.82400   0.00000  Uiso   1.00
C527   C     0.31607   0.68224   0.03264   0.00000  Uiso   1.00
C528   C     0.30147   0.72856   0.03004   0.00000  Uiso   1.00
C529   C     0.28674   0.68329   0.03172   0.00000  Uiso   1.00
H530   H     0.33324   0.48723   0.04219   0.00000  Uiso   1.00
H531   H     0.34912   0.48493   0.18699   0.00000  Uiso   1.00
H532   H     0.34941   0.47197   0.89909   0.00000  Uiso   1.00
H533   H     0.30115   0.48006   0.04161   0.00000  Uiso   1.00
H534   H     0.36679   0.52138   0.34568   0.00000  Uiso   1.00
H535   H     0.36740   0.49405   0.73862   0.00000  Uiso   1.00
H536   H     0.26562   0.51109   0.03914   0.00000  Uiso   1.00
H537   H     0.33364   0.78767   0.02821   0.00000  Uiso   1.00
H538   H     0.34954   0.80186   0.17224   0.00000  Uiso   1.00
H539   H     0.34983   0.78890   0.88434   0.00000  Uiso   1.00
H540   H     0.30157   0.79698   0.02686   0.00000  Uiso   1.00
H541   H     0.36713   0.77861   0.33372   0.00000  Uiso   1.00
H542   H     0.36774   0.75128   0.72665   0.00000  Uiso   1.00
H543   H     0.26596   0.76832   0.02717   0.00000  Uiso   1.00
O544   O     0.37742   0.65390   0.43468   0.00000  Uiso   1.00
O545   O     0.37822   0.61805   0.63823   0.00000  Uiso   1.00
O546   O     0.24468   0.64040   0.03251   0.00000  Uiso   1.00
N547   N     0.36469   0.57997   0.32311   0.00000  Uiso   1.00
N548   N     0.36526   0.55442   0.75555   0.00000  Uiso   1.00
N549   N     0.27010   0.57035   0.03649   0.00000  Uiso   1.00
N550   N     0.36487   0.71838   0.31667   0.00000  Uiso   1.00
N551   N     0.36544   0.69283   0.74911   0.00000  Uiso   1.00
N552   N     0.27028   0.70876   0.03005   0.00000  Uiso   1.00
C553   C     0.66667   0.44394   0.03900   0.00000  Uiso   1.00
C554   C     0.65799   0.40352   0.11573   0.00000  Uiso   1.00
C555   C     0.65079   0.44664   0.18383   0.00000  Uiso   1.00
C556   C     0.64345   0.39817   0.24775   0.00000  Uiso   1.00
C557   C     0.62998   0.34887   0.36750   0.00000  Uiso   1.00
C558   C     0.65783   0.41056   0.95931   0.00000  Uiso   1.00
C559   C     0.65049   0.45961   0.89589   0.00000  Uiso   1.00
C560   C     0.64303   0.41706   0.82813   0.00000  Uiso   1.00
C561   C     0.62932   0.37869   0.70500   0.00000  Uiso   1.00
C562   C     0.68405   0.40618   0.03675   0.00000  Uiso   1.00
C563   C     0.69877   0.45153   0.03842   0.00000  Uiso   1.00
C564   C     0.71338   0.40528   0.03584   0.00000  Uiso   1.00
C565   C     0.74039   0.36010   0.03296   0.00000  Uiso   1.00
C566   C     0.66646   0.28116   0.03142   0.00000  Uiso   1.00
C567   C     0.65787   0.31511   0.11161   0.00000  Uiso   1.00
C568   C     0.65055   0.26655   0.17545   0.00000  Uiso   1.00
C569   C     0.64333   0.30960   0.24363   0.00000  Uiso   1.00
C570   C     0.65771   0.32215   0.95519   0.00000  Uiso   1.00
C571   C     0.65025   0.27952   0.88751   0.00000  Uiso   1.00
C572   C     0.64291   0.32848   0.82400   0.00000  Uiso   1.00
C573   C     0.68393   0.31776   0.03264   0.00000  Uiso   1.00
C574   C     0.69853   0.27144   0.03004   0.00000  Uiso   1.00
C575   C     0.71326   0.31671   0.03172   0.00000  Uiso   1.00
H576   H     0.66676   0.51277   0.04219   0.00000  Uiso   1.00
H577   H     0.65088   0.51507   0.18699   0.00000  Uiso   1.00
H578   H     0.65059   0.52803   0.89909   0.00000  Uiso   1.00
H579   H     0.69885   0.51994   0.04161   0.00000  Uiso   1.00
H580   H     0.63321   0.47862   0.34568   0.00000  Uiso   1.00
H581   H     0.63260   0.50595   0.73862   0.00000  Uiso   1.00
H582   H     0.73438   0.48891   0.03914   0.00000  Uiso   1.00
H583   H     0.66636   0.21233   0.02821   0.00000  Uiso   1.00
H584   H     0.65046   0.19814   0.17224   0.00000  Uiso   1.00
H585   H     0.65017   0.21110   0.88434   0.00000  Uiso   1.00
H586   H     0.69843   0.20302   0.02686   0.00000  Uiso   1.00
H587   H     0.63287   0.22139   0.33372   0.00000  Uiso   1.00
H588   H     0.63226   0.24872   0.72665   0.00000  Uiso   1.00
H589   H     0.73404   0.23168   0.02717   0.00000  Uiso   1.00
O590   O     0.62258   0.34610   0.43468   0.00000  Uiso   1.00
O591   O     0.62178   0.38195   0.63823   0.00000  Uiso   1.00
O592   O     0.75532   0.35960   0.03251   0.00000  Uiso   1.00
N593   N     0.63531   0.42003   0.32311   0.00000  Uiso   1.00
N594   N     0.63474   0.44558   0.75555   0.00000  Uiso   1.00
N595   N     0.72990   0.42965   0.03649   0.00000  Uiso   1.00
N596   N     0.63513   0.28162   0.31667   0.00000  Uiso   1.00
N597   N     0.63456   0.30717   0.74911   0.00000  Uiso   1.00
N598   N     0.72972   0.29124   0.03005   0.00000  Uiso   1.00
C599   C     0.66667   0.94394   0.53900   0.00000  Uiso   1.00
C600   C     0.65799   0.90352   0.61573   0.00000  Uiso   1.00
C601   C     0.65079   0.94664   0.68383   0.00000  Uiso   1.00
C602   C     0.64345   0.89817   0.74775   0.00000  Uiso   1.00
C603   C     0.62998   0.84887   0.86750   0.00000  Uiso   1.00
C604   C     0.65783   0.91056   0.45931   0.00000  Uiso   1.00
C605   C     0.65049   0.95961   0.39589   0.00000  Uiso   1.00
C606   C     0.64303   0.91706   0.32813   0.00000  Uiso   1.00
C607   C     0.62932   0.87869   0.20500   0.00000  Uiso   1.00
C608   C     0.68405   0.90618   0.53675   0.00000  Uiso   1.00
C609   C     0.69877   0.95153   0.53842   0.00000  Uiso   1.00
C610   C     0.71338   0.90528   0.53584   0.00000  Uiso   1.00
C611   C     0.74039   0.86010   0.53296   0.00000  Uiso   1.00
C612   C     0.66646   0.78116   0.53142   0.00000  Uiso   1.00
C613   C     0.65787   0.81511   0.61161   0.00000  Uiso   1.00
C614   C     0.65055   0.76655   0.67545   0.00000  Uiso   1.00
C615   C     0.64333   0.80960   0.74363   0.00000  Uiso   1.00
C616   C     0.65771   0.82215   0.45519   0.00000  Uiso   1.00
C617   C     0.65025   0.77952   0.38751   0.00000  Uiso   1.00
C618   C     0.64291   0.82848   0.32400   0.00000  Uiso   1.00
C619   C     0.68393   0.81776   0.53264   0.00000  Uiso   1.00
C620   C     0.69853   0.77144   0.53004   0.00000  Uiso   1.00
C621   C     0.71326   0.81671   0.53172   0.00000  Uiso   1.00
H622   H     0.66676   0.01277   0.54219   0.00000  Uiso   1.00
H623   H     0.65088   0.01507   0.68699   0.00000  Uiso   1.00
H624   H     0.65059   0.02803   0.39909   0.00000  Uiso   1.00
H625   H     0.69885   0.01994   0.54161   0.00000  Uiso   1.00
H626   H     0.63321   0.97862   0.84568   0.00000  Uiso   1.00
H627   H     0.63260   0.00595   0.23862   0.00000  Uiso   1.00
H628   H     0.73438   0.98891   0.53914   0.00000  Uiso   1.00
H629   H     0.66636   0.71233   0.52821   0.00000  Uiso   1.00
H630   H     0.65046   0.69814   0.67224   0.00000  Uiso   1.00
H631   H     0.65017   0.71110   0.38434   0.00000  Uiso   1.00
H632   H     0.69843   0.70302   0.52686   0.00000  Uiso   1.00
H633   H     0.63287   0.72139   0.83372   0.00000  Uiso   1.00
H634   H     0.63226   0.74872   0.22665   0.00000  Uiso   1.00
H635   H     0.73404   0.73168   0.52717   0.00000  Uiso   1.00
O636   O     0.62258   0.84610   0.93468   0.00000  Uiso   1.00
O637   O     0.62178   0.88195   0.13823   0.00000  Uiso   1.00
O638   O     0.75532   0.85960   0.53251   0.00000  Uiso   1.00
N639   N     0.63531   0.92003   0.82311   0.00000  Uiso   1.00
N640   N     0.63474   0.94558   0.25555   0.00000  Uiso   1.00
N641   N     0.72990   0.92965   0.53649   0.00000  Uiso   1.00
N642   N     0.63513   0.78162   0.81667   0.00000  Uiso   1.00
N643   N     0.63456   0.80717   0.24911   0.00000  Uiso   1.00
N644   N     0.72972   0.79124   0.53005   0.00000  Uiso   1.00
C645   C     0.16667   0.44394   0.53900   0.00000  Uiso   1.00
C646   C     0.15799   0.40352   0.61573   0.00000  Uiso   1.00
C647   C     0.15079   0.44664   0.68383   0.00000  Uiso   1.00
C648   C     0.14345   0.39817   0.74775   0.00000  Uiso   1.00
C649   C     0.12998   0.34887   0.86750   0.00000  Uiso   1.00
C650   C     0.15783   0.41056   0.45931   0.00000  Uiso   1.00
C651   C     0.15049   0.45961   0.39589   0.00000  Uiso   1.00
C652   C     0.14303   0.41706   0.32813   0.00000  Uiso   1.00
C653   C     0.12932   0.37869   0.20500   0.00000  Uiso   1.00
C654   C     0.18405   0.40618   0.53675   0.00000  Uiso   1.00
C655   C     0.19877   0.45153   0.53842   0.00000  Uiso   1.00
C656   C     0.21338   0.40528   0.53584   0.00000  Uiso   1.00
C657   C     0.24039   0.36010   0.53296   0.00000  Uiso   1.00
C658   C     0.16646   0.28116   0.53142   0.00000  Uiso   1.00
C659   C     0.15787   0.31511   0.61161   0.00000  Uiso   1.00
C660   C     0.15055   0.26655   0.67545   0.00000  Uiso   1.00
C661   C     0.14333   0.30960   0.74363   0.00000  Uiso   1.00
C662   C     0.15771   0.32215   0.45519   0.00000  Uiso   1.00
C663   C     0.15025   0.27952   0.38751   0.00000  Uiso   1.00
C664   C     0.14291   0.32848   0.32400   0.00000  Uiso   1.00
C665   C     0.18393   0.31776   0.53264   0.00000  Uiso   1.00
C666   C     0.19853   0.27144   0.53004   0.00000  Uiso   1.00
C667   C     0.21326   0.31671   0.53172   0.00000  Uiso   1.00
H668   H     0.16676   0.51277   0.54219   0.00000  Uiso   1.00
H669   H     0.15088   0.51507   0.68699   0.00000  Uiso   1.00
H670   H     0.15059   0.52803   0.39909   0.00000  Uiso   1.00
H671   H     0.19885   0.51994   0.54161   0.00000  Uiso   1.00
H672   H     0.13321   0.47862   0.84568   0.00000  Uiso   1.00
H673   H     0.13260   0.50595   0.23862   0.00000  Uiso   1.00
H674   H     0.23438   0.48891   0.53914   0.00000  Uiso   1.00
H675   H     0.16636   0.21233   0.52821   0.00000  Uiso   1.00
H676   H     0.15046   0.19814   0.67224   0.00000  Uiso   1.00
H677   H     0.15017   0.21110   0.38434   0.00000  Uiso   1.00
H678   H     0.19843   0.20302   0.52686   0.00000  Uiso   1.00
H679   H     0.13287   0.22139   0.83372   0.00000  Uiso   1.00
H680   H     0.13226   0.24872   0.22665   0.00000  Uiso   1.00
H681   H     0.23404   0.23168   0.52717   0.00000  Uiso   1.00
O682   O     0.12258   0.34610   0.93468   0.00000  Uiso   1.00
O683   O     0.12178   0.38195   0.13823   0.00000  Uiso   1.00
O684   O     0.25532   0.35960   0.53251   0.00000  Uiso   1.00
N685   N     0.13531   0.42003   0.82311   0.00000  Uiso   1.00
N686   N     0.13474   0.44558   0.25555   0.00000  Uiso   1.00
N687   N     0.22990   0.42965   0.53649   0.00000  Uiso   1.00
N688   N     0.13513   0.28162   0.81667   0.00000  Uiso   1.00
N689   N     0.13456   0.30717   0.24911   0.00000  Uiso   1.00
N690   N     0.22972   0.29124   0.53005   0.00000  Uiso   1.00
C691   C     0.16667   0.94394   0.03900   0.00000  Uiso   1.00
C692   C     0.15799   0.90352   0.11573   0.00000  Uiso   1.00
C693   C     0.15079   0.94664   0.18383   0.00000  Uiso   1.00
C694   C     0.14345   0.89817   0.24775   0.00000  Uiso   1.00
C695   C     0.12998   0.84887   0.36750   0.00000  Uiso   1.00
C696   C     0.15783   0.91056   0.95931   0.00000  Uiso   1.00
C697   C     0.15049   0.95961   0.89589   0.00000  Uiso   1.00
C698   C     0.14303   0.91706   0.82813   0.00000  Uiso   1.00
C699   C     0.12932   0.87869   0.70500   0.00000  Uiso   1.00
C700   C     0.18405   0.90618   0.03675   0.00000  Uiso   1.00
C701   C     0.19877   0.95153   0.03842   0.00000  Uiso   1.00
C702   C     0.21338   0.90528   0.03584   0.00000  Uiso   1.00
C703   C     0.24039   0.86010   0.03296   0.00000  Uiso   1.00
C704   C     0.16646   0.78116   0.03142   0.00000  Uiso   1.00
C705   C     0.15787   0.81511   0.11161   0.00000  Uiso   1.00
C706   C     0.15055   0.76655   0.17545   0.00000  Uiso   1.00
C707   C     0.14333   0.80960   0.24363   0.00000  Uiso   1.00
C708   C     0.15771   0.82215   0.95519   0.00000  Uiso   1.00
C709   C     0.15025   0.77952   0.88751   0.00000  Uiso   1.00
C710   C     0.14291   0.82848   0.82400   0.00000  Uiso   1.00
C711   C     0.18393   0.81776   0.03264   0.00000  Uiso   1.00
C712   C     0.19853   0.77144   0.03004   0.00000  Uiso   1.00
C713   C     0.21326   0.81671   0.03172   0.00000  Uiso   1.00
H714   H     0.16676   0.01277   0.04219   0.00000  Uiso   1.00
H715   H     0.15088   0.01507   0.18699   0.00000  Uiso   1.00
H716   H     0.15059   0.02803   0.89909   0.00000  Uiso   1.00
H717   H     0.19885   0.01994   0.04161   0.00000  Uiso   1.00
H718   H     0.13321   0.97862   0.34568   0.00000  Uiso   1.00
H719   H     0.13260   0.00595   0.73862   0.00000  Uiso   1.00
H720   H     0.23438   0.98891   0.03914   0.00000  Uiso   1.00
H721   H     0.16636   0.71233   0.02821   0.00000  Uiso   1.00
H722   H     0.15046   0.69814   0.17224   0.00000  Uiso   1.00
H723   H     0.15017   0.71110   0.88434   0.00000  Uiso   1.00
H724   H     0.19843   0.70302   0.02686   0.00000  Uiso   1.00
H725   H     0.13287   0.72139   0.33372   0.00000  Uiso   1.00
H726   H     0.13226   0.74872   0.72665   0.00000  Uiso   1.00
H727   H     0.23404   0.73168   0.02717   0.00000  Uiso   1.00
O728   O     0.12258   0.84610   0.43468   0.00000  Uiso   1.00
O729   O     0.12178   0.88195   0.63823   0.00000  Uiso   1.00
O730   O     0.25532   0.85960   0.03251   0.00000  Uiso   1.00
N731   N     0.13531   0.92003   0.32311   0.00000  Uiso   1.00
N732   N     0.13474   0.94558   0.75555   0.00000  Uiso   1.00
N733   N     0.22990   0.92965   0.03649   0.00000  Uiso   1.00
N734   N     0.13513   0.78162   0.31667   0.00000  Uiso   1.00
N735   N     0.13456   0.80717   0.74911   0.00000  Uiso   1.00
N736   N     0.22972   0.79124   0.03005   0.00000  Uiso   1.00
