data_job_05862
_audit_creation_date              2018-12-19
_audit_creation_method            'Materials Studio'
_symmetry_space_group_name_H-M    'P1'
_symmetry_Int_Tables_number       1
_symmetry_cell_setting            triclinic
loop_
_symmetry_equiv_pos_as_xyz
  x,y,z
_cell_length_a                    22.1081
_cell_length_b                    22.1081
_cell_length_c                    31.0907
_cell_angle_alpha                 90.0000
_cell_angle_beta                  90.0000
_cell_angle_gamma                 90.0000
loop_
_atom_site_label
_atom_site_type_symbol
_atom_site_fract_x
_atom_site_fract_y
_atom_site_fract_z
_atom_site_U_iso_or_equiv
_atom_site_adp_type
_atom_site_occupancy
C1     C     0.69170   0.20847   0.46858   0.00000  Uiso   1.00
C2     C     0.72028   0.20133   0.42423   0.00000  Uiso   1.00
C3     C     0.77568   0.22485   0.41154   0.00000  Uiso   1.00
C4     C     0.79385   0.21332   0.36959   0.00000  Uiso   1.00
C5     C     0.84369   0.20742   0.30501   0.00000  Uiso   1.00
C6     C     0.62973   0.23687   0.46106   0.00000  Uiso   1.00
C7     C     0.60901   0.29026   0.47934   0.00000  Uiso   1.00
C8     C     0.55096   0.30864   0.46840   0.00000  Uiso   1.00
C9     C     0.46021   0.35788   0.46103   0.00000  Uiso   1.00
C10    C     0.67968   0.14452   0.48485   0.00000  Uiso   1.00
C11    C     0.70094   0.12026   0.52315   0.00000  Uiso   1.00
C12    C     0.68493   0.06089   0.53224   0.00000  Uiso   1.00
C13    C     0.67174   0.96675   0.56181   0.00000  Uiso   1.00
C14    C     0.62546   0.14618   0.41664   0.00000  Uiso   1.00
C15    C     0.68430   0.16751   0.39602   0.00000  Uiso   1.00
C16    C     0.70240   0.15594   0.35407   0.00000  Uiso   1.00
C17    C     0.75781   0.17943   0.34133   0.00000  Uiso   1.00
C18    C     0.59376   0.20304   0.43285   0.00000  Uiso   1.00
C19    C     0.53573   0.22135   0.42188   0.00000  Uiso   1.00
C20    C     0.51492   0.27475   0.44014   0.00000  Uiso   1.00
C21    C     0.64371   0.11069   0.45664   0.00000  Uiso   1.00
C22    C     0.62766   0.05135   0.46568   0.00000  Uiso   1.00
C23    C     0.64889   0.02700   0.50398   0.00000  Uiso   1.00
H24    H     0.71970   0.23481   0.49054   0.00000  Uiso   1.00
H25    H     0.80350   0.25103   0.43338   0.00000  Uiso   1.00
H26    H     0.63685   0.31642   0.50118   0.00000  Uiso   1.00
H27    H     0.72878   0.14645   0.54497   0.00000  Uiso   1.00
H28    H     0.88053   0.25412   0.35756   0.00000  Uiso   1.00
H29    H     0.52914   0.39199   0.50053   0.00000  Uiso   1.00
H30    H     0.72298   0.03357   0.59287   0.00000  Uiso   1.00
H31    H     0.59745   0.11985   0.39468   0.00000  Uiso   1.00
H32    H     0.67455   0.12976   0.33225   0.00000  Uiso   1.00
H33    H     0.50790   0.19515   0.40005   0.00000  Uiso   1.00
H34    H     0.59982   0.02518   0.44384   0.00000  Uiso   1.00
H35    H     0.77587   0.15569   0.27548   0.00000  Uiso   1.00
H36    H     0.42448   0.29356   0.41845   0.00000  Uiso   1.00
H37    H     0.61831   0.93515   0.51079   0.00000  Uiso   1.00
O38    O     0.88111   0.21352   0.27718   0.00000  Uiso   1.00
O39    O     0.42010   0.39439   0.46475   0.00000  Uiso   1.00
O40    O     0.67441   0.92416   0.58591   0.00000  Uiso   1.00
N41    N     0.84533   0.22958   0.34681   0.00000  Uiso   1.00
N42    N     0.51680   0.35849   0.48047   0.00000  Uiso   1.00
N43    N     0.69801   0.02340   0.56681   0.00000  Uiso   1.00
N44    N     0.78901   0.17662   0.30264   0.00000  Uiso   1.00
N45    N     0.46048   0.30553   0.43631   0.00000  Uiso   1.00
N46    N     0.64169   0.97044   0.52265   0.00000  Uiso   1.00
C47    C     0.30830   0.79153   0.46858   0.00000  Uiso   1.00
C48    C     0.27972   0.79867   0.42423   0.00000  Uiso   1.00
C49    C     0.22432   0.77515   0.41154   0.00000  Uiso   1.00
C50    C     0.20615   0.78668   0.36959   0.00000  Uiso   1.00
C51    C     0.15631   0.79258   0.30501   0.00000  Uiso   1.00
C52    C     0.37027   0.76313   0.46106   0.00000  Uiso   1.00
C53    C     0.39099   0.70974   0.47934   0.00000  Uiso   1.00
C54    C     0.44904   0.69136   0.46840   0.00000  Uiso   1.00
C55    C     0.53979   0.64212   0.46103   0.00000  Uiso   1.00
C56    C     0.32032   0.85548   0.48485   0.00000  Uiso   1.00
C57    C     0.29906   0.87974   0.52315   0.00000  Uiso   1.00
C58    C     0.31507   0.93911   0.53224   0.00000  Uiso   1.00
C59    C     0.32826   0.03325   0.56181   0.00000  Uiso   1.00
C60    C     0.37454   0.85382   0.41664   0.00000  Uiso   1.00
C61    C     0.31570   0.83249   0.39602   0.00000  Uiso   1.00
C62    C     0.29760   0.84406   0.35407   0.00000  Uiso   1.00
C63    C     0.24219   0.82057   0.34133   0.00000  Uiso   1.00
C64    C     0.40624   0.79696   0.43285   0.00000  Uiso   1.00
C65    C     0.46427   0.77865   0.42188   0.00000  Uiso   1.00
C66    C     0.48508   0.72525   0.44014   0.00000  Uiso   1.00
C67    C     0.35629   0.88931   0.45664   0.00000  Uiso   1.00
C68    C     0.37234   0.94865   0.46568   0.00000  Uiso   1.00
C69    C     0.35111   0.97300   0.50398   0.00000  Uiso   1.00
H70    H     0.28030   0.76519   0.49054   0.00000  Uiso   1.00
H71    H     0.19650   0.74897   0.43338   0.00000  Uiso   1.00
H72    H     0.36315   0.68358   0.50118   0.00000  Uiso   1.00
H73    H     0.27122   0.85355   0.54497   0.00000  Uiso   1.00
H74    H     0.11947   0.74588   0.35756   0.00000  Uiso   1.00
H75    H     0.47086   0.60801   0.50053   0.00000  Uiso   1.00
H76    H     0.27702   0.96643   0.59287   0.00000  Uiso   1.00
H77    H     0.40255   0.88015   0.39468   0.00000  Uiso   1.00
H78    H     0.32545   0.87024   0.33225   0.00000  Uiso   1.00
H79    H     0.49210   0.80485   0.40005   0.00000  Uiso   1.00
H80    H     0.40018   0.97482   0.44384   0.00000  Uiso   1.00
H81    H     0.22413   0.84431   0.27548   0.00000  Uiso   1.00
H82    H     0.57552   0.70644   0.41845   0.00000  Uiso   1.00
H83    H     0.38169   0.06485   0.51079   0.00000  Uiso   1.00
O84    O     0.11889   0.78648   0.27718   0.00000  Uiso   1.00
O85    O     0.57990   0.60561   0.46475   0.00000  Uiso   1.00
O86    O     0.32559   0.07584   0.58591   0.00000  Uiso   1.00
N87    N     0.15467   0.77042   0.34681   0.00000  Uiso   1.00
N88    N     0.48320   0.64151   0.48047   0.00000  Uiso   1.00
N89    N     0.30199   0.97660   0.56681   0.00000  Uiso   1.00
N90    N     0.21099   0.82338   0.30264   0.00000  Uiso   1.00
N91    N     0.53952   0.69447   0.43631   0.00000  Uiso   1.00
N92    N     0.35831   0.02956   0.52265   0.00000  Uiso   1.00
C93    C     0.29153   0.19170   0.46858   0.00000  Uiso   1.00
C94    C     0.29867   0.22028   0.42423   0.00000  Uiso   1.00
C95    C     0.27515   0.27568   0.41154   0.00000  Uiso   1.00
C96    C     0.28668   0.29385   0.36959   0.00000  Uiso   1.00
C97    C     0.29258   0.34369   0.30501   0.00000  Uiso   1.00
C98    C     0.26313   0.12973   0.46106   0.00000  Uiso   1.00
C99    C     0.20974   0.10901   0.47934   0.00000  Uiso   1.00
C100   C     0.19136   0.05096   0.46840   0.00000  Uiso   1.00
C101   C     0.14212   0.96021   0.46103   0.00000  Uiso   1.00
C102   C     0.35548   0.17968   0.48485   0.00000  Uiso   1.00
C103   C     0.37974   0.20094   0.52315   0.00000  Uiso   1.00
C104   C     0.43911   0.18493   0.53224   0.00000  Uiso   1.00
C105   C     0.53325   0.17174   0.56181   0.00000  Uiso   1.00
C106   C     0.35382   0.12546   0.41664   0.00000  Uiso   1.00
C107   C     0.33249   0.18430   0.39602   0.00000  Uiso   1.00
C108   C     0.34406   0.20240   0.35407   0.00000  Uiso   1.00
C109   C     0.32057   0.25781   0.34133   0.00000  Uiso   1.00
C110   C     0.29696   0.09376   0.43285   0.00000  Uiso   1.00
C111   C     0.27865   0.03573   0.42188   0.00000  Uiso   1.00
C112   C     0.22525   0.01492   0.44014   0.00000  Uiso   1.00
C113   C     0.38931   0.14371   0.45664   0.00000  Uiso   1.00
C114   C     0.44865   0.12766   0.46568   0.00000  Uiso   1.00
C115   C     0.47300   0.14889   0.50398   0.00000  Uiso   1.00
H116   H     0.26519   0.21970   0.49054   0.00000  Uiso   1.00
H117   H     0.24897   0.30350   0.43338   0.00000  Uiso   1.00
H118   H     0.18358   0.13685   0.50118   0.00000  Uiso   1.00
H119   H     0.35355   0.22878   0.54497   0.00000  Uiso   1.00
H120   H     0.24588   0.38053   0.35756   0.00000  Uiso   1.00
H121   H     0.10801   0.02914   0.50053   0.00000  Uiso   1.00
H122   H     0.46643   0.22298   0.59287   0.00000  Uiso   1.00
H123   H     0.38015   0.09745   0.39468   0.00000  Uiso   1.00
H124   H     0.37024   0.17455   0.33225   0.00000  Uiso   1.00
H125   H     0.30485   0.00790   0.40005   0.00000  Uiso   1.00
H126   H     0.47482   0.09982   0.44384   0.00000  Uiso   1.00
H127   H     0.34431   0.27587   0.27548   0.00000  Uiso   1.00
H128   H     0.20644   0.92448   0.41845   0.00000  Uiso   1.00
H129   H     0.56485   0.11831   0.51079   0.00000  Uiso   1.00
O130   O     0.28648   0.38111   0.27718   0.00000  Uiso   1.00
O131   O     0.10561   0.92010   0.46475   0.00000  Uiso   1.00
O132   O     0.57584   0.17441   0.58591   0.00000  Uiso   1.00
N133   N     0.27042   0.34533   0.34681   0.00000  Uiso   1.00
N134   N     0.14151   0.01680   0.48047   0.00000  Uiso   1.00
N135   N     0.47660   0.19801   0.56681   0.00000  Uiso   1.00
N136   N     0.32338   0.28901   0.30264   0.00000  Uiso   1.00
N137   N     0.19447   0.96048   0.43631   0.00000  Uiso   1.00
N138   N     0.52956   0.14169   0.52265   0.00000  Uiso   1.00
C139   C     0.70847   0.80830   0.46858   0.00000  Uiso   1.00
C140   C     0.70133   0.77972   0.42423   0.00000  Uiso   1.00
C141   C     0.72485   0.72432   0.41154   0.00000  Uiso   1.00
C142   C     0.71332   0.70615   0.36959   0.00000  Uiso   1.00
C143   C     0.70742   0.65631   0.30501   0.00000  Uiso   1.00
C144   C     0.73687   0.87027   0.46106   0.00000  Uiso   1.00
C145   C     0.79026   0.89099   0.47934   0.00000  Uiso   1.00
C146   C     0.80864   0.94904   0.46840   0.00000  Uiso   1.00
C147   C     0.85788   0.03979   0.46103   0.00000  Uiso   1.00
C148   C     0.64452   0.82032   0.48485   0.00000  Uiso   1.00
C149   C     0.62026   0.79906   0.52315   0.00000  Uiso   1.00
C150   C     0.56089   0.81507   0.53224   0.00000  Uiso   1.00
C151   C     0.46675   0.82826   0.56181   0.00000  Uiso   1.00
C152   C     0.64618   0.87454   0.41664   0.00000  Uiso   1.00
C153   C     0.66751   0.81570   0.39602   0.00000  Uiso   1.00
C154   C     0.65594   0.79760   0.35407   0.00000  Uiso   1.00
C155   C     0.67943   0.74219   0.34133   0.00000  Uiso   1.00
C156   C     0.70304   0.90624   0.43285   0.00000  Uiso   1.00
C157   C     0.72135   0.96427   0.42188   0.00000  Uiso   1.00
C158   C     0.77475   0.98508   0.44014   0.00000  Uiso   1.00
C159   C     0.61069   0.85629   0.45664   0.00000  Uiso   1.00
C160   C     0.55135   0.87234   0.46568   0.00000  Uiso   1.00
C161   C     0.52700   0.85111   0.50398   0.00000  Uiso   1.00
H162   H     0.73481   0.78030   0.49054   0.00000  Uiso   1.00
H163   H     0.75103   0.69650   0.43338   0.00000  Uiso   1.00
H164   H     0.81642   0.86315   0.50118   0.00000  Uiso   1.00
H165   H     0.64645   0.77122   0.54497   0.00000  Uiso   1.00
H166   H     0.75412   0.61947   0.35756   0.00000  Uiso   1.00
H167   H     0.89199   0.97086   0.50053   0.00000  Uiso   1.00
H168   H     0.53357   0.77702   0.59287   0.00000  Uiso   1.00
H169   H     0.61985   0.90255   0.39468   0.00000  Uiso   1.00
H170   H     0.62976   0.82545   0.33225   0.00000  Uiso   1.00
H171   H     0.69515   0.99210   0.40005   0.00000  Uiso   1.00
H172   H     0.52518   0.90018   0.44384   0.00000  Uiso   1.00
H173   H     0.65569   0.72413   0.27548   0.00000  Uiso   1.00
H174   H     0.79356   0.07552   0.41845   0.00000  Uiso   1.00
H175   H     0.43515   0.88169   0.51079   0.00000  Uiso   1.00
O176   O     0.71352   0.61889   0.27718   0.00000  Uiso   1.00
O177   O     0.89439   0.07990   0.46475   0.00000  Uiso   1.00
O178   O     0.42416   0.82559   0.58591   0.00000  Uiso   1.00
N179   N     0.72958   0.65467   0.34681   0.00000  Uiso   1.00
N180   N     0.85849   0.98320   0.48047   0.00000  Uiso   1.00
N181   N     0.52340   0.80199   0.56681   0.00000  Uiso   1.00
N182   N     0.67662   0.71099   0.30264   0.00000  Uiso   1.00
N183   N     0.80553   0.03952   0.43631   0.00000  Uiso   1.00
N184   N     0.47044   0.85831   0.52265   0.00000  Uiso   1.00
C185   C     0.80830   0.70847   0.03142   0.00000  Uiso   1.00
C186   C     0.77972   0.70133   0.07577   0.00000  Uiso   1.00
C187   C     0.72432   0.72485   0.08846   0.00000  Uiso   1.00
C188   C     0.70615   0.71332   0.13041   0.00000  Uiso   1.00
C189   C     0.65631   0.70742   0.19499   0.00000  Uiso   1.00
C190   C     0.87027   0.73687   0.03894   0.00000  Uiso   1.00
C191   C     0.89099   0.79026   0.02066   0.00000  Uiso   1.00
C192   C     0.94904   0.80864   0.03160   0.00000  Uiso   1.00
C193   C     0.03979   0.85788   0.03897   0.00000  Uiso   1.00
C194   C     0.82032   0.64452   0.01515   0.00000  Uiso   1.00
C195   C     0.79906   0.62026   0.97685   0.00000  Uiso   1.00
C196   C     0.81507   0.56089   0.96776   0.00000  Uiso   1.00
C197   C     0.82826   0.46675   0.93819   0.00000  Uiso   1.00
C198   C     0.87454   0.64618   0.08336   0.00000  Uiso   1.00
C199   C     0.81570   0.66751   0.10398   0.00000  Uiso   1.00
C200   C     0.79760   0.65594   0.14593   0.00000  Uiso   1.00
C201   C     0.74219   0.67943   0.15867   0.00000  Uiso   1.00
C202   C     0.90624   0.70304   0.06715   0.00000  Uiso   1.00
C203   C     0.96427   0.72135   0.07812   0.00000  Uiso   1.00
C204   C     0.98508   0.77475   0.05986   0.00000  Uiso   1.00
C205   C     0.85629   0.61069   0.04336   0.00000  Uiso   1.00
C206   C     0.87234   0.55135   0.03432   0.00000  Uiso   1.00
C207   C     0.85111   0.52700   0.99602   0.00000  Uiso   1.00
H208   H     0.78030   0.73481   0.00946   0.00000  Uiso   1.00
H209   H     0.69650   0.75103   0.06662   0.00000  Uiso   1.00
H210   H     0.86315   0.81642   0.99882   0.00000  Uiso   1.00
H211   H     0.77122   0.64645   0.95503   0.00000  Uiso   1.00
H212   H     0.61947   0.75412   0.14244   0.00000  Uiso   1.00
H213   H     0.97086   0.89199   0.99947   0.00000  Uiso   1.00
H214   H     0.77702   0.53357   0.90713   0.00000  Uiso   1.00
H215   H     0.90255   0.61985   0.10532   0.00000  Uiso   1.00
H216   H     0.82545   0.62976   0.16775   0.00000  Uiso   1.00
H217   H     0.99210   0.69515   0.09995   0.00000  Uiso   1.00
H218   H     0.90018   0.52518   0.05616   0.00000  Uiso   1.00
H219   H     0.72413   0.65569   0.22452   0.00000  Uiso   1.00
H220   H     0.07552   0.79356   0.08155   0.00000  Uiso   1.00
H221   H     0.88169   0.43515   0.98921   0.00000  Uiso   1.00
O222   O     0.61889   0.71352   0.22282   0.00000  Uiso   1.00
O223   O     0.07990   0.89439   0.03525   0.00000  Uiso   1.00
O224   O     0.82559   0.42416   0.91409   0.00000  Uiso   1.00
N225   N     0.65467   0.72958   0.15319   0.00000  Uiso   1.00
N226   N     0.98320   0.85849   0.01953   0.00000  Uiso   1.00
N227   N     0.80199   0.52340   0.93319   0.00000  Uiso   1.00
N228   N     0.71099   0.67662   0.19736   0.00000  Uiso   1.00
N229   N     0.03952   0.80553   0.06369   0.00000  Uiso   1.00
N230   N     0.85831   0.47044   0.97735   0.00000  Uiso   1.00
C231   C     0.19170   0.29153   0.03142   0.00000  Uiso   1.00
C232   C     0.22028   0.29867   0.07577   0.00000  Uiso   1.00
C233   C     0.27568   0.27515   0.08846   0.00000  Uiso   1.00
C234   C     0.29385   0.28668   0.13041   0.00000  Uiso   1.00
C235   C     0.34369   0.29258   0.19499   0.00000  Uiso   1.00
C236   C     0.12973   0.26313   0.03894   0.00000  Uiso   1.00
C237   C     0.10901   0.20974   0.02066   0.00000  Uiso   1.00
C238   C     0.05096   0.19136   0.03160   0.00000  Uiso   1.00
C239   C     0.96021   0.14212   0.03897   0.00000  Uiso   1.00
C240   C     0.17968   0.35548   0.01515   0.00000  Uiso   1.00
C241   C     0.20094   0.37974   0.97685   0.00000  Uiso   1.00
C242   C     0.18493   0.43911   0.96776   0.00000  Uiso   1.00
C243   C     0.17174   0.53325   0.93819   0.00000  Uiso   1.00
C244   C     0.12546   0.35382   0.08336   0.00000  Uiso   1.00
C245   C     0.18430   0.33249   0.10398   0.00000  Uiso   1.00
C246   C     0.20240   0.34406   0.14593   0.00000  Uiso   1.00
C247   C     0.25781   0.32057   0.15867   0.00000  Uiso   1.00
C248   C     0.09376   0.29696   0.06715   0.00000  Uiso   1.00
C249   C     0.03573   0.27865   0.07812   0.00000  Uiso   1.00
C250   C     0.01492   0.22525   0.05986   0.00000  Uiso   1.00
C251   C     0.14371   0.38931   0.04336   0.00000  Uiso   1.00
C252   C     0.12766   0.44865   0.03432   0.00000  Uiso   1.00
C253   C     0.14889   0.47300   0.99602   0.00000  Uiso   1.00
H254   H     0.21970   0.26519   0.00946   0.00000  Uiso   1.00
H255   H     0.30350   0.24897   0.06662   0.00000  Uiso   1.00
H256   H     0.13685   0.18358   0.99882   0.00000  Uiso   1.00
H257   H     0.22878   0.35355   0.95503   0.00000  Uiso   1.00
H258   H     0.38053   0.24588   0.14244   0.00000  Uiso   1.00
H259   H     0.02914   0.10801   0.99947   0.00000  Uiso   1.00
H260   H     0.22298   0.46643   0.90713   0.00000  Uiso   1.00
H261   H     0.09745   0.38015   0.10532   0.00000  Uiso   1.00
H262   H     0.17455   0.37024   0.16775   0.00000  Uiso   1.00
H263   H     0.00790   0.30485   0.09995   0.00000  Uiso   1.00
H264   H     0.09982   0.47482   0.05616   0.00000  Uiso   1.00
H265   H     0.27587   0.34431   0.22452   0.00000  Uiso   1.00
H266   H     0.92448   0.20644   0.08155   0.00000  Uiso   1.00
H267   H     0.11831   0.56485   0.98921   0.00000  Uiso   1.00
O268   O     0.38111   0.28648   0.22282   0.00000  Uiso   1.00
O269   O     0.92010   0.10561   0.03525   0.00000  Uiso   1.00
O270   O     0.17441   0.57584   0.91409   0.00000  Uiso   1.00
N271   N     0.34533   0.27042   0.15319   0.00000  Uiso   1.00
N272   N     0.01680   0.14151   0.01953   0.00000  Uiso   1.00
N273   N     0.19801   0.47660   0.93319   0.00000  Uiso   1.00
N274   N     0.28901   0.32338   0.19736   0.00000  Uiso   1.00
N275   N     0.96048   0.19447   0.06369   0.00000  Uiso   1.00
N276   N     0.14169   0.52956   0.97735   0.00000  Uiso   1.00
C277   C     0.20847   0.69170   0.03142   0.00000  Uiso   1.00
C278   C     0.20133   0.72028   0.07577   0.00000  Uiso   1.00
C279   C     0.22485   0.77568   0.08846   0.00000  Uiso   1.00
C280   C     0.21332   0.79385   0.13041   0.00000  Uiso   1.00
C281   C     0.20742   0.84369   0.19499   0.00000  Uiso   1.00
C282   C     0.23687   0.62973   0.03894   0.00000  Uiso   1.00
C283   C     0.29026   0.60901   0.02066   0.00000  Uiso   1.00
C284   C     0.30864   0.55096   0.03160   0.00000  Uiso   1.00
C285   C     0.35788   0.46021   0.03897   0.00000  Uiso   1.00
C286   C     0.14452   0.67968   0.01515   0.00000  Uiso   1.00
C287   C     0.12026   0.70094   0.97685   0.00000  Uiso   1.00
C288   C     0.06089   0.68493   0.96776   0.00000  Uiso   1.00
C289   C     0.96675   0.67174   0.93819   0.00000  Uiso   1.00
C290   C     0.14618   0.62546   0.08336   0.00000  Uiso   1.00
C291   C     0.16751   0.68430   0.10398   0.00000  Uiso   1.00
C292   C     0.15594   0.70240   0.14593   0.00000  Uiso   1.00
C293   C     0.17943   0.75781   0.15867   0.00000  Uiso   1.00
C294   C     0.20304   0.59376   0.06715   0.00000  Uiso   1.00
C295   C     0.22135   0.53573   0.07812   0.00000  Uiso   1.00
C296   C     0.27475   0.51492   0.05986   0.00000  Uiso   1.00
C297   C     0.11069   0.64371   0.04336   0.00000  Uiso   1.00
C298   C     0.05135   0.62766   0.03432   0.00000  Uiso   1.00
C299   C     0.02700   0.64889   0.99602   0.00000  Uiso   1.00
H300   H     0.23481   0.71970   0.00946   0.00000  Uiso   1.00
H301   H     0.25103   0.80350   0.06662   0.00000  Uiso   1.00
H302   H     0.31642   0.63685   0.99882   0.00000  Uiso   1.00
H303   H     0.14645   0.72878   0.95503   0.00000  Uiso   1.00
H304   H     0.25412   0.88053   0.14244   0.00000  Uiso   1.00
H305   H     0.39199   0.52914   0.99947   0.00000  Uiso   1.00
H306   H     0.03357   0.72298   0.90713   0.00000  Uiso   1.00
H307   H     0.11985   0.59745   0.10532   0.00000  Uiso   1.00
H308   H     0.12976   0.67455   0.16775   0.00000  Uiso   1.00
H309   H     0.19515   0.50790   0.09995   0.00000  Uiso   1.00
H310   H     0.02518   0.59982   0.05616   0.00000  Uiso   1.00
H311   H     0.15569   0.77587   0.22452   0.00000  Uiso   1.00
H312   H     0.29356   0.42448   0.08155   0.00000  Uiso   1.00
H313   H     0.93515   0.61831   0.98921   0.00000  Uiso   1.00
O314   O     0.21352   0.88111   0.22282   0.00000  Uiso   1.00
O315   O     0.39439   0.42010   0.03525   0.00000  Uiso   1.00
O316   O     0.92416   0.67441   0.91409   0.00000  Uiso   1.00
N317   N     0.22958   0.84533   0.15319   0.00000  Uiso   1.00
N318   N     0.35849   0.51680   0.01953   0.00000  Uiso   1.00
N319   N     0.02340   0.69801   0.93319   0.00000  Uiso   1.00
N320   N     0.17662   0.78901   0.19736   0.00000  Uiso   1.00
N321   N     0.30553   0.46048   0.06369   0.00000  Uiso   1.00
N322   N     0.97044   0.64169   0.97735   0.00000  Uiso   1.00
C323   C     0.79153   0.30830   0.03142   0.00000  Uiso   1.00
C324   C     0.79867   0.27972   0.07577   0.00000  Uiso   1.00
C325   C     0.77515   0.22432   0.08846   0.00000  Uiso   1.00
C326   C     0.78668   0.20615   0.13041   0.00000  Uiso   1.00
C327   C     0.79258   0.15631   0.19499   0.00000  Uiso   1.00
C328   C     0.76313   0.37027   0.03894   0.00000  Uiso   1.00
C329   C     0.70974   0.39099   0.02066   0.00000  Uiso   1.00
C330   C     0.69136   0.44904   0.03160   0.00000  Uiso   1.00
C331   C     0.64212   0.53979   0.03897   0.00000  Uiso   1.00
C332   C     0.85548   0.32032   0.01515   0.00000  Uiso   1.00
C333   C     0.87974   0.29906   0.97685   0.00000  Uiso   1.00
C334   C     0.93911   0.31507   0.96776   0.00000  Uiso   1.00
C335   C     0.03325   0.32826   0.93819   0.00000  Uiso   1.00
C336   C     0.85382   0.37454   0.08336   0.00000  Uiso   1.00
C337   C     0.83249   0.31570   0.10398   0.00000  Uiso   1.00
C338   C     0.84406   0.29760   0.14593   0.00000  Uiso   1.00
C339   C     0.82057   0.24219   0.15867   0.00000  Uiso   1.00
C340   C     0.79696   0.40624   0.06715   0.00000  Uiso   1.00
C341   C     0.77865   0.46427   0.07812   0.00000  Uiso   1.00
C342   C     0.72525   0.48508   0.05986   0.00000  Uiso   1.00
C343   C     0.88931   0.35629   0.04336   0.00000  Uiso   1.00
C344   C     0.94865   0.37234   0.03432   0.00000  Uiso   1.00
C345   C     0.97300   0.35111   0.99602   0.00000  Uiso   1.00
H346   H     0.76519   0.28030   0.00946   0.00000  Uiso   1.00
H347   H     0.74897   0.19650   0.06662   0.00000  Uiso   1.00
H348   H     0.68358   0.36315   0.99882   0.00000  Uiso   1.00
H349   H     0.85355   0.27122   0.95503   0.00000  Uiso   1.00
H350   H     0.74588   0.11947   0.14244   0.00000  Uiso   1.00
H351   H     0.60801   0.47086   0.99947   0.00000  Uiso   1.00
H352   H     0.96643   0.27702   0.90713   0.00000  Uiso   1.00
H353   H     0.88015   0.40255   0.10532   0.00000  Uiso   1.00
H354   H     0.87024   0.32545   0.16775   0.00000  Uiso   1.00
H355   H     0.80485   0.49210   0.09995   0.00000  Uiso   1.00
H356   H     0.97482   0.40018   0.05616   0.00000  Uiso   1.00
H357   H     0.84431   0.22413   0.22452   0.00000  Uiso   1.00
H358   H     0.70644   0.57552   0.08155   0.00000  Uiso   1.00
H359   H     0.06485   0.38169   0.98921   0.00000  Uiso   1.00
O360   O     0.78648   0.11889   0.22282   0.00000  Uiso   1.00
O361   O     0.60561   0.57990   0.03525   0.00000  Uiso   1.00
O362   O     0.07584   0.32559   0.91409   0.00000  Uiso   1.00
N363   N     0.77042   0.15467   0.15319   0.00000  Uiso   1.00
N364   N     0.64151   0.48320   0.01953   0.00000  Uiso   1.00
N365   N     0.97660   0.30199   0.93319   0.00000  Uiso   1.00
N366   N     0.82338   0.21099   0.19736   0.00000  Uiso   1.00
N367   N     0.69447   0.53952   0.06369   0.00000  Uiso   1.00
N368   N     0.02956   0.35831   0.97735   0.00000  Uiso   1.00
C369   C     0.80830   0.29153   0.53142   0.00000  Uiso   1.00
C370   C     0.77972   0.29867   0.57577   0.00000  Uiso   1.00
C371   C     0.72432   0.27515   0.58846   0.00000  Uiso   1.00
C372   C     0.70615   0.28668   0.63041   0.00000  Uiso   1.00
C373   C     0.65631   0.29258   0.69499   0.00000  Uiso   1.00
C374   C     0.87027   0.26313   0.53894   0.00000  Uiso   1.00
C375   C     0.89099   0.20974   0.52066   0.00000  Uiso   1.00
C376   C     0.94904   0.19136   0.53160   0.00000  Uiso   1.00
C377   C     0.03979   0.14212   0.53897   0.00000  Uiso   1.00
C378   C     0.82032   0.35548   0.51515   0.00000  Uiso   1.00
C379   C     0.79906   0.37974   0.47685   0.00000  Uiso   1.00
C380   C     0.81507   0.43911   0.46776   0.00000  Uiso   1.00
C381   C     0.82826   0.53325   0.43819   0.00000  Uiso   1.00
C382   C     0.87454   0.35382   0.58336   0.00000  Uiso   1.00
C383   C     0.81570   0.33249   0.60398   0.00000  Uiso   1.00
C384   C     0.79760   0.34406   0.64593   0.00000  Uiso   1.00
C385   C     0.74219   0.32057   0.65867   0.00000  Uiso   1.00
C386   C     0.90624   0.29696   0.56715   0.00000  Uiso   1.00
C387   C     0.96427   0.27865   0.57812   0.00000  Uiso   1.00
C388   C     0.98508   0.22525   0.55986   0.00000  Uiso   1.00
C389   C     0.85629   0.38931   0.54336   0.00000  Uiso   1.00
C390   C     0.87234   0.44865   0.53432   0.00000  Uiso   1.00
C391   C     0.85111   0.47300   0.49602   0.00000  Uiso   1.00
H392   H     0.78030   0.26519   0.50946   0.00000  Uiso   1.00
H393   H     0.69650   0.24897   0.56662   0.00000  Uiso   1.00
H394   H     0.86315   0.18358   0.49882   0.00000  Uiso   1.00
H395   H     0.77122   0.35355   0.45503   0.00000  Uiso   1.00
H396   H     0.61947   0.24588   0.64244   0.00000  Uiso   1.00
H397   H     0.97086   0.10801   0.49947   0.00000  Uiso   1.00
H398   H     0.77702   0.46643   0.40713   0.00000  Uiso   1.00
H399   H     0.90255   0.38015   0.60532   0.00000  Uiso   1.00
H400   H     0.82545   0.37024   0.66775   0.00000  Uiso   1.00
H401   H     0.99210   0.30485   0.59995   0.00000  Uiso   1.00
H402   H     0.90018   0.47482   0.55616   0.00000  Uiso   1.00
H403   H     0.72413   0.34431   0.72452   0.00000  Uiso   1.00
H404   H     0.07552   0.20644   0.58155   0.00000  Uiso   1.00
H405   H     0.88169   0.56485   0.48921   0.00000  Uiso   1.00
O406   O     0.61889   0.28648   0.72282   0.00000  Uiso   1.00
O407   O     0.07990   0.10561   0.53525   0.00000  Uiso   1.00
O408   O     0.82559   0.57584   0.41409   0.00000  Uiso   1.00
N409   N     0.65467   0.27042   0.65319   0.00000  Uiso   1.00
N410   N     0.98320   0.14151   0.51953   0.00000  Uiso   1.00
N411   N     0.80199   0.47660   0.43319   0.00000  Uiso   1.00
N412   N     0.71099   0.32338   0.69736   0.00000  Uiso   1.00
N413   N     0.03952   0.19447   0.56369   0.00000  Uiso   1.00
N414   N     0.85831   0.52956   0.47735   0.00000  Uiso   1.00
C415   C     0.19170   0.70847   0.53142   0.00000  Uiso   1.00
C416   C     0.22028   0.70133   0.57577   0.00000  Uiso   1.00
C417   C     0.27568   0.72485   0.58846   0.00000  Uiso   1.00
C418   C     0.29385   0.71332   0.63041   0.00000  Uiso   1.00
C419   C     0.34369   0.70742   0.69499   0.00000  Uiso   1.00
C420   C     0.12973   0.73687   0.53894   0.00000  Uiso   1.00
C421   C     0.10901   0.79026   0.52066   0.00000  Uiso   1.00
C422   C     0.05096   0.80864   0.53160   0.00000  Uiso   1.00
C423   C     0.96021   0.85788   0.53897   0.00000  Uiso   1.00
C424   C     0.17968   0.64452   0.51515   0.00000  Uiso   1.00
C425   C     0.20094   0.62026   0.47685   0.00000  Uiso   1.00
C426   C     0.18493   0.56089   0.46776   0.00000  Uiso   1.00
C427   C     0.17174   0.46675   0.43819   0.00000  Uiso   1.00
C428   C     0.12546   0.64618   0.58336   0.00000  Uiso   1.00
C429   C     0.18430   0.66751   0.60398   0.00000  Uiso   1.00
C430   C     0.20240   0.65594   0.64593   0.00000  Uiso   1.00
C431   C     0.25781   0.67943   0.65867   0.00000  Uiso   1.00
C432   C     0.09376   0.70304   0.56715   0.00000  Uiso   1.00
C433   C     0.03573   0.72135   0.57812   0.00000  Uiso   1.00
C434   C     0.01492   0.77475   0.55986   0.00000  Uiso   1.00
C435   C     0.14371   0.61069   0.54336   0.00000  Uiso   1.00
C436   C     0.12766   0.55135   0.53432   0.00000  Uiso   1.00
C437   C     0.14889   0.52700   0.49602   0.00000  Uiso   1.00
H438   H     0.21970   0.73481   0.50946   0.00000  Uiso   1.00
H439   H     0.30350   0.75103   0.56662   0.00000  Uiso   1.00
H440   H     0.13685   0.81642   0.49882   0.00000  Uiso   1.00
H441   H     0.22878   0.64645   0.45503   0.00000  Uiso   1.00
H442   H     0.38053   0.75412   0.64244   0.00000  Uiso   1.00
H443   H     0.02914   0.89199   0.49947   0.00000  Uiso   1.00
H444   H     0.22298   0.53357   0.40713   0.00000  Uiso   1.00
H445   H     0.09745   0.61985   0.60532   0.00000  Uiso   1.00
H446   H     0.17455   0.62976   0.66775   0.00000  Uiso   1.00
H447   H     0.00790   0.69515   0.59995   0.00000  Uiso   1.00
H448   H     0.09982   0.52518   0.55616   0.00000  Uiso   1.00
H449   H     0.27587   0.65569   0.72452   0.00000  Uiso   1.00
H450   H     0.92448   0.79356   0.58155   0.00000  Uiso   1.00
H451   H     0.11831   0.43515   0.48921   0.00000  Uiso   1.00
O452   O     0.38111   0.71352   0.72282   0.00000  Uiso   1.00
O453   O     0.92010   0.89439   0.53525   0.00000  Uiso   1.00
O454   O     0.17441   0.42416   0.41409   0.00000  Uiso   1.00
N455   N     0.34533   0.72958   0.65319   0.00000  Uiso   1.00
N456   N     0.01680   0.85849   0.51953   0.00000  Uiso   1.00
N457   N     0.19801   0.52340   0.43319   0.00000  Uiso   1.00
N458   N     0.28901   0.67662   0.69736   0.00000  Uiso   1.00
N459   N     0.96048   0.80553   0.56369   0.00000  Uiso   1.00
N460   N     0.14169   0.47044   0.47735   0.00000  Uiso   1.00
C461   C     0.20847   0.30830   0.53142   0.00000  Uiso   1.00
C462   C     0.20133   0.27972   0.57577   0.00000  Uiso   1.00
C463   C     0.22485   0.22432   0.58846   0.00000  Uiso   1.00
C464   C     0.21332   0.20615   0.63041   0.00000  Uiso   1.00
C465   C     0.20742   0.15631   0.69499   0.00000  Uiso   1.00
C466   C     0.23687   0.37027   0.53894   0.00000  Uiso   1.00
C467   C     0.29026   0.39099   0.52066   0.00000  Uiso   1.00
C468   C     0.30864   0.44904   0.53160   0.00000  Uiso   1.00
C469   C     0.35788   0.53979   0.53897   0.00000  Uiso   1.00
C470   C     0.14452   0.32032   0.51515   0.00000  Uiso   1.00
C471   C     0.12026   0.29906   0.47685   0.00000  Uiso   1.00
C472   C     0.06089   0.31507   0.46776   0.00000  Uiso   1.00
C473   C     0.96675   0.32826   0.43819   0.00000  Uiso   1.00
C474   C     0.14618   0.37454   0.58336   0.00000  Uiso   1.00
C475   C     0.16751   0.31570   0.60398   0.00000  Uiso   1.00
C476   C     0.15594   0.29760   0.64593   0.00000  Uiso   1.00
C477   C     0.17943   0.24219   0.65867   0.00000  Uiso   1.00
C478   C     0.20304   0.40624   0.56715   0.00000  Uiso   1.00
C479   C     0.22135   0.46427   0.57812   0.00000  Uiso   1.00
C480   C     0.27475   0.48508   0.55986   0.00000  Uiso   1.00
C481   C     0.11069   0.35629   0.54336   0.00000  Uiso   1.00
C482   C     0.05135   0.37234   0.53432   0.00000  Uiso   1.00
C483   C     0.02700   0.35111   0.49602   0.00000  Uiso   1.00
H484   H     0.23481   0.28030   0.50946   0.00000  Uiso   1.00
H485   H     0.25103   0.19650   0.56662   0.00000  Uiso   1.00
H486   H     0.31642   0.36315   0.49882   0.00000  Uiso   1.00
H487   H     0.14645   0.27122   0.45503   0.00000  Uiso   1.00
H488   H     0.25412   0.11947   0.64244   0.00000  Uiso   1.00
H489   H     0.39199   0.47086   0.49947   0.00000  Uiso   1.00
H490   H     0.03357   0.27702   0.40713   0.00000  Uiso   1.00
H491   H     0.11985   0.40255   0.60532   0.00000  Uiso   1.00
H492   H     0.12976   0.32545   0.66775   0.00000  Uiso   1.00
H493   H     0.19515   0.49210   0.59995   0.00000  Uiso   1.00
H494   H     0.02518   0.40018   0.55616   0.00000  Uiso   1.00
H495   H     0.15569   0.22413   0.72452   0.00000  Uiso   1.00
H496   H     0.29356   0.57552   0.58155   0.00000  Uiso   1.00
H497   H     0.93515   0.38169   0.48921   0.00000  Uiso   1.00
O498   O     0.21352   0.11889   0.72282   0.00000  Uiso   1.00
O499   O     0.39439   0.57990   0.53525   0.00000  Uiso   1.00
O500   O     0.92416   0.32559   0.41409   0.00000  Uiso   1.00
N501   N     0.22958   0.15467   0.65319   0.00000  Uiso   1.00
N502   N     0.35849   0.48320   0.51953   0.00000  Uiso   1.00
N503   N     0.02340   0.30199   0.43319   0.00000  Uiso   1.00
N504   N     0.17662   0.21099   0.69736   0.00000  Uiso   1.00
N505   N     0.30553   0.53952   0.56369   0.00000  Uiso   1.00
N506   N     0.97044   0.35831   0.47735   0.00000  Uiso   1.00
C507   C     0.79153   0.69170   0.53142   0.00000  Uiso   1.00
C508   C     0.79867   0.72028   0.57577   0.00000  Uiso   1.00
C509   C     0.77515   0.77568   0.58846   0.00000  Uiso   1.00
C510   C     0.78668   0.79385   0.63041   0.00000  Uiso   1.00
C511   C     0.79258   0.84369   0.69499   0.00000  Uiso   1.00
C512   C     0.76313   0.62973   0.53894   0.00000  Uiso   1.00
C513   C     0.70974   0.60901   0.52066   0.00000  Uiso   1.00
C514   C     0.69136   0.55096   0.53160   0.00000  Uiso   1.00
C515   C     0.64212   0.46021   0.53897   0.00000  Uiso   1.00
C516   C     0.85548   0.67968   0.51515   0.00000  Uiso   1.00
C517   C     0.87974   0.70094   0.47685   0.00000  Uiso   1.00
C518   C     0.93911   0.68493   0.46776   0.00000  Uiso   1.00
C519   C     0.03325   0.67174   0.43819   0.00000  Uiso   1.00
C520   C     0.85382   0.62546   0.58336   0.00000  Uiso   1.00
C521   C     0.83249   0.68430   0.60398   0.00000  Uiso   1.00
C522   C     0.84406   0.70240   0.64593   0.00000  Uiso   1.00
C523   C     0.82057   0.75781   0.65867   0.00000  Uiso   1.00
C524   C     0.79696   0.59376   0.56715   0.00000  Uiso   1.00
C525   C     0.77865   0.53573   0.57812   0.00000  Uiso   1.00
C526   C     0.72525   0.51492   0.55986   0.00000  Uiso   1.00
C527   C     0.88931   0.64371   0.54336   0.00000  Uiso   1.00
C528   C     0.94865   0.62766   0.53432   0.00000  Uiso   1.00
C529   C     0.97300   0.64889   0.49602   0.00000  Uiso   1.00
H530   H     0.76519   0.71970   0.50946   0.00000  Uiso   1.00
H531   H     0.74897   0.80350   0.56662   0.00000  Uiso   1.00
H532   H     0.68358   0.63685   0.49882   0.00000  Uiso   1.00
H533   H     0.85355   0.72878   0.45503   0.00000  Uiso   1.00
H534   H     0.74588   0.88053   0.64244   0.00000  Uiso   1.00
H535   H     0.60801   0.52914   0.49947   0.00000  Uiso   1.00
H536   H     0.96643   0.72298   0.40713   0.00000  Uiso   1.00
H537   H     0.88015   0.59745   0.60532   0.00000  Uiso   1.00
H538   H     0.87024   0.67455   0.66775   0.00000  Uiso   1.00
H539   H     0.80485   0.50790   0.59995   0.00000  Uiso   1.00
H540   H     0.97482   0.59982   0.55616   0.00000  Uiso   1.00
H541   H     0.84431   0.77587   0.72452   0.00000  Uiso   1.00
H542   H     0.70644   0.42448   0.58155   0.00000  Uiso   1.00
H543   H     0.06485   0.61831   0.48921   0.00000  Uiso   1.00
O544   O     0.78648   0.88111   0.72282   0.00000  Uiso   1.00
O545   O     0.60561   0.42010   0.53525   0.00000  Uiso   1.00
O546   O     0.07584   0.67441   0.41409   0.00000  Uiso   1.00
N547   N     0.77042   0.84533   0.65319   0.00000  Uiso   1.00
N548   N     0.64151   0.51680   0.51953   0.00000  Uiso   1.00
N549   N     0.97660   0.69801   0.43319   0.00000  Uiso   1.00
N550   N     0.82338   0.78901   0.69736   0.00000  Uiso   1.00
N551   N     0.69447   0.46048   0.56369   0.00000  Uiso   1.00
N552   N     0.02956   0.64169   0.47735   0.00000  Uiso   1.00
C553   C     0.69170   0.79153   0.96858   0.00000  Uiso   1.00
C554   C     0.72028   0.79867   0.92423   0.00000  Uiso   1.00
C555   C     0.77568   0.77515   0.91154   0.00000  Uiso   1.00
C556   C     0.79385   0.78668   0.86959   0.00000  Uiso   1.00
C557   C     0.84369   0.79258   0.80501   0.00000  Uiso   1.00
C558   C     0.62973   0.76313   0.96106   0.00000  Uiso   1.00
C559   C     0.60901   0.70974   0.97934   0.00000  Uiso   1.00
C560   C     0.55096   0.69136   0.96840   0.00000  Uiso   1.00
C561   C     0.46021   0.64212   0.96103   0.00000  Uiso   1.00
C562   C     0.67968   0.85548   0.98485   0.00000  Uiso   1.00
C563   C     0.70094   0.87974   0.02315   0.00000  Uiso   1.00
C564   C     0.68493   0.93911   0.03224   0.00000  Uiso   1.00
C565   C     0.67174   0.03325   0.06181   0.00000  Uiso   1.00
C566   C     0.62546   0.85382   0.91664   0.00000  Uiso   1.00
C567   C     0.68430   0.83249   0.89602   0.00000  Uiso   1.00
C568   C     0.70240   0.84406   0.85407   0.00000  Uiso   1.00
C569   C     0.75781   0.82057   0.84133   0.00000  Uiso   1.00
C570   C     0.59376   0.79696   0.93285   0.00000  Uiso   1.00
C571   C     0.53573   0.77865   0.92188   0.00000  Uiso   1.00
C572   C     0.51492   0.72525   0.94014   0.00000  Uiso   1.00
C573   C     0.64371   0.88931   0.95664   0.00000  Uiso   1.00
C574   C     0.62766   0.94865   0.96568   0.00000  Uiso   1.00
C575   C     0.64889   0.97300   0.00398   0.00000  Uiso   1.00
H576   H     0.71970   0.76519   0.99054   0.00000  Uiso   1.00
H577   H     0.80350   0.74897   0.93338   0.00000  Uiso   1.00
H578   H     0.63685   0.68358   0.00118   0.00000  Uiso   1.00
H579   H     0.72878   0.85355   0.04497   0.00000  Uiso   1.00
H580   H     0.88053   0.74588   0.85756   0.00000  Uiso   1.00
H581   H     0.52914   0.60801   0.00053   0.00000  Uiso   1.00
H582   H     0.72298   0.96643   0.09287   0.00000  Uiso   1.00
H583   H     0.59745   0.88015   0.89468   0.00000  Uiso   1.00
H584   H     0.67455   0.87024   0.83225   0.00000  Uiso   1.00
H585   H     0.50790   0.80485   0.90005   0.00000  Uiso   1.00
H586   H     0.59982   0.97482   0.94384   0.00000  Uiso   1.00
H587   H     0.77587   0.84431   0.77548   0.00000  Uiso   1.00
H588   H     0.42448   0.70644   0.91845   0.00000  Uiso   1.00
H589   H     0.61831   0.06485   0.01079   0.00000  Uiso   1.00
O590   O     0.88111   0.78648   0.77718   0.00000  Uiso   1.00
O591   O     0.42010   0.60561   0.96475   0.00000  Uiso   1.00
O592   O     0.67441   0.07584   0.08591   0.00000  Uiso   1.00
N593   N     0.84533   0.77042   0.84681   0.00000  Uiso   1.00
N594   N     0.51680   0.64151   0.98047   0.00000  Uiso   1.00
N595   N     0.69801   0.97660   0.06681   0.00000  Uiso   1.00
N596   N     0.78901   0.82338   0.80264   0.00000  Uiso   1.00
N597   N     0.46048   0.69447   0.93631   0.00000  Uiso   1.00
N598   N     0.64169   0.02956   0.02265   0.00000  Uiso   1.00
C599   C     0.30830   0.20847   0.96858   0.00000  Uiso   1.00
C600   C     0.27972   0.20133   0.92423   0.00000  Uiso   1.00
C601   C     0.22432   0.22485   0.91154   0.00000  Uiso   1.00
C602   C     0.20615   0.21332   0.86959   0.00000  Uiso   1.00
C603   C     0.15631   0.20742   0.80501   0.00000  Uiso   1.00
C604   C     0.37027   0.23687   0.96106   0.00000  Uiso   1.00
C605   C     0.39099   0.29026   0.97934   0.00000  Uiso   1.00
C606   C     0.44904   0.30864   0.96840   0.00000  Uiso   1.00
C607   C     0.53979   0.35788   0.96103   0.00000  Uiso   1.00
C608   C     0.32032   0.14452   0.98485   0.00000  Uiso   1.00
C609   C     0.29906   0.12026   0.02315   0.00000  Uiso   1.00
C610   C     0.31507   0.06089   0.03224   0.00000  Uiso   1.00
C611   C     0.32826   0.96675   0.06181   0.00000  Uiso   1.00
C612   C     0.37454   0.14618   0.91664   0.00000  Uiso   1.00
C613   C     0.31570   0.16751   0.89602   0.00000  Uiso   1.00
C614   C     0.29760   0.15594   0.85407   0.00000  Uiso   1.00
C615   C     0.24219   0.17943   0.84133   0.00000  Uiso   1.00
C616   C     0.40624   0.20304   0.93285   0.00000  Uiso   1.00
C617   C     0.46427   0.22135   0.92188   0.00000  Uiso   1.00
C618   C     0.48508   0.27475   0.94014   0.00000  Uiso   1.00
C619   C     0.35629   0.11069   0.95664   0.00000  Uiso   1.00
C620   C     0.37234   0.05135   0.96568   0.00000  Uiso   1.00
C621   C     0.35111   0.02700   0.00398   0.00000  Uiso   1.00
H622   H     0.28030   0.23481   0.99054   0.00000  Uiso   1.00
H623   H     0.19650   0.25103   0.93338   0.00000  Uiso   1.00
H624   H     0.36315   0.31642   0.00118   0.00000  Uiso   1.00
H625   H     0.27122   0.14645   0.04497   0.00000  Uiso   1.00
H626   H     0.11947   0.25412   0.85756   0.00000  Uiso   1.00
H627   H     0.47086   0.39199   0.00053   0.00000  Uiso   1.00
H628   H     0.27702   0.03357   0.09287   0.00000  Uiso   1.00
H629   H     0.40255   0.11985   0.89468   0.00000  Uiso   1.00
H630   H     0.32545   0.12976   0.83225   0.00000  Uiso   1.00
H631   H     0.49210   0.19515   0.90005   0.00000  Uiso   1.00
H632   H     0.40018   0.02518   0.94384   0.00000  Uiso   1.00
H633   H     0.22413   0.15569   0.77548   0.00000  Uiso   1.00
H634   H     0.57552   0.29356   0.91845   0.00000  Uiso   1.00
H635   H     0.38169   0.93515   0.01079   0.00000  Uiso   1.00
O636   O     0.11889   0.21352   0.77718   0.00000  Uiso   1.00
O637   O     0.57990   0.39439   0.96475   0.00000  Uiso   1.00
O638   O     0.32559   0.92416   0.08591   0.00000  Uiso   1.00
N639   N     0.15467   0.22958   0.84681   0.00000  Uiso   1.00
N640   N     0.48320   0.35849   0.98047   0.00000  Uiso   1.00
N641   N     0.30199   0.02340   0.06681   0.00000  Uiso   1.00
N642   N     0.21099   0.17662   0.80264   0.00000  Uiso   1.00
N643   N     0.53952   0.30553   0.93631   0.00000  Uiso   1.00
N644   N     0.35831   0.97044   0.02265   0.00000  Uiso   1.00
C645   C     0.29153   0.80830   0.96858   0.00000  Uiso   1.00
C646   C     0.29867   0.77972   0.92423   0.00000  Uiso   1.00
C647   C     0.27515   0.72432   0.91154   0.00000  Uiso   1.00
C648   C     0.28668   0.70615   0.86959   0.00000  Uiso   1.00
C649   C     0.29258   0.65631   0.80501   0.00000  Uiso   1.00
C650   C     0.26313   0.87027   0.96106   0.00000  Uiso   1.00
C651   C     0.20974   0.89099   0.97934   0.00000  Uiso   1.00
C652   C     0.19136   0.94904   0.96840   0.00000  Uiso   1.00
C653   C     0.14212   0.03979   0.96103   0.00000  Uiso   1.00
C654   C     0.35548   0.82032   0.98485   0.00000  Uiso   1.00
C655   C     0.37974   0.79906   0.02315   0.00000  Uiso   1.00
C656   C     0.43911   0.81507   0.03224   0.00000  Uiso   1.00
C657   C     0.53325   0.82826   0.06181   0.00000  Uiso   1.00
C658   C     0.35382   0.87454   0.91664   0.00000  Uiso   1.00
C659   C     0.33249   0.81570   0.89602   0.00000  Uiso   1.00
C660   C     0.34406   0.79760   0.85407   0.00000  Uiso   1.00
C661   C     0.32057   0.74219   0.84133   0.00000  Uiso   1.00
C662   C     0.29696   0.90624   0.93285   0.00000  Uiso   1.00
C663   C     0.27865   0.96427   0.92188   0.00000  Uiso   1.00
C664   C     0.22525   0.98508   0.94014   0.00000  Uiso   1.00
C665   C     0.38931   0.85629   0.95664   0.00000  Uiso   1.00
C666   C     0.44865   0.87234   0.96568   0.00000  Uiso   1.00
C667   C     0.47300   0.85111   0.00398   0.00000  Uiso   1.00
H668   H     0.26519   0.78030   0.99054   0.00000  Uiso   1.00
H669   H     0.24897   0.69650   0.93338   0.00000  Uiso   1.00
H670   H     0.18358   0.86315   0.00118   0.00000  Uiso   1.00
H671   H     0.35355   0.77122   0.04497   0.00000  Uiso   1.00
H672   H     0.24588   0.61947   0.85756   0.00000  Uiso   1.00
H673   H     0.10801   0.97086   0.00053   0.00000  Uiso   1.00
H674   H     0.46643   0.77702   0.09287   0.00000  Uiso   1.00
H675   H     0.38015   0.90255   0.89468   0.00000  Uiso   1.00
H676   H     0.37024   0.82545   0.83225   0.00000  Uiso   1.00
H677   H     0.30485   0.99210   0.90005   0.00000  Uiso   1.00
H678   H     0.47482   0.90018   0.94384   0.00000  Uiso   1.00
H679   H     0.34431   0.72413   0.77548   0.00000  Uiso   1.00
H680   H     0.20644   0.07552   0.91845   0.00000  Uiso   1.00
H681   H     0.56485   0.88169   0.01079   0.00000  Uiso   1.00
O682   O     0.28648   0.61889   0.77718   0.00000  Uiso   1.00
O683   O     0.10561   0.07990   0.96475   0.00000  Uiso   1.00
O684   O     0.57584   0.82559   0.08591   0.00000  Uiso   1.00
N685   N     0.27042   0.65467   0.84681   0.00000  Uiso   1.00
N686   N     0.14151   0.98320   0.98047   0.00000  Uiso   1.00
N687   N     0.47660   0.80199   0.06681   0.00000  Uiso   1.00
N688   N     0.32338   0.71099   0.80264   0.00000  Uiso   1.00
N689   N     0.19447   0.03952   0.93631   0.00000  Uiso   1.00
N690   N     0.52956   0.85831   0.02265   0.00000  Uiso   1.00
C691   C     0.70847   0.19170   0.96858   0.00000  Uiso   1.00
C692   C     0.70133   0.22028   0.92423   0.00000  Uiso   1.00
C693   C     0.72485   0.27568   0.91154   0.00000  Uiso   1.00
C694   C     0.71332   0.29385   0.86959   0.00000  Uiso   1.00
C695   C     0.70742   0.34369   0.80501   0.00000  Uiso   1.00
C696   C     0.73687   0.12973   0.96106   0.00000  Uiso   1.00
C697   C     0.79026   0.10901   0.97934   0.00000  Uiso   1.00
C698   C     0.80864   0.05096   0.96840   0.00000  Uiso   1.00
C699   C     0.85788   0.96021   0.96103   0.00000  Uiso   1.00
C700   C     0.64452   0.17968   0.98485   0.00000  Uiso   1.00
C701   C     0.62026   0.20094   0.02315   0.00000  Uiso   1.00
C702   C     0.56089   0.18493   0.03224   0.00000  Uiso   1.00
C703   C     0.46675   0.17174   0.06181   0.00000  Uiso   1.00
C704   C     0.64618   0.12546   0.91664   0.00000  Uiso   1.00
C705   C     0.66751   0.18430   0.89602   0.00000  Uiso   1.00
C706   C     0.65594   0.20240   0.85407   0.00000  Uiso   1.00
C707   C     0.67943   0.25781   0.84133   0.00000  Uiso   1.00
C708   C     0.70304   0.09376   0.93285   0.00000  Uiso   1.00
C709   C     0.72135   0.03573   0.92188   0.00000  Uiso   1.00
C710   C     0.77475   0.01492   0.94014   0.00000  Uiso   1.00
C711   C     0.61069   0.14371   0.95664   0.00000  Uiso   1.00
C712   C     0.55135   0.12766   0.96568   0.00000  Uiso   1.00
C713   C     0.52700   0.14889   0.00398   0.00000  Uiso   1.00
H714   H     0.73481   0.21970   0.99054   0.00000  Uiso   1.00
H715   H     0.75103   0.30350   0.93338   0.00000  Uiso   1.00
H716   H     0.81642   0.13685   0.00118   0.00000  Uiso   1.00
H717   H     0.64645   0.22878   0.04497   0.00000  Uiso   1.00
H718   H     0.75412   0.38053   0.85756   0.00000  Uiso   1.00
H719   H     0.89199   0.02914   0.00053   0.00000  Uiso   1.00
H720   H     0.53357   0.22298   0.09287   0.00000  Uiso   1.00
H721   H     0.61985   0.09745   0.89468   0.00000  Uiso   1.00
H722   H     0.62976   0.17455   0.83225   0.00000  Uiso   1.00
H723   H     0.69515   0.00790   0.90005   0.00000  Uiso   1.00
H724   H     0.52518   0.09982   0.94384   0.00000  Uiso   1.00
H725   H     0.65569   0.27587   0.77548   0.00000  Uiso   1.00
H726   H     0.79356   0.92448   0.91845   0.00000  Uiso   1.00
H727   H     0.43515   0.11831   0.01079   0.00000  Uiso   1.00
O728   O     0.71352   0.38111   0.77718   0.00000  Uiso   1.00
O729   O     0.89439   0.92010   0.96475   0.00000  Uiso   1.00
O730   O     0.42416   0.17441   0.08591   0.00000  Uiso   1.00
N731   N     0.72958   0.34533   0.84681   0.00000  Uiso   1.00
N732   N     0.85849   0.01680   0.98047   0.00000  Uiso   1.00
N733   N     0.52340   0.19801   0.06681   0.00000  Uiso   1.00
N734   N     0.67662   0.28901   0.80264   0.00000  Uiso   1.00
N735   N     0.80553   0.96048   0.93631   0.00000  Uiso   1.00
N736   N     0.47044   0.14169   0.02265   0.00000  Uiso   1.00
