data_job_03818
_audit_creation_date              2018-12-19
_audit_creation_method            'Materials Studio'
_symmetry_space_group_name_H-M    'P1'
_symmetry_Int_Tables_number       1
_symmetry_cell_setting            triclinic
loop_
_symmetry_equiv_pos_as_xyz
  x,y,z
_cell_length_a                    18.8444
_cell_length_b                    18.8444
_cell_length_c                    32.0596
_cell_angle_alpha                 90.0000
_cell_angle_beta                  90.0000
_cell_angle_gamma                 90.0000
loop_
_atom_site_label
_atom_site_type_symbol
_atom_site_fract_x
_atom_site_fract_y
_atom_site_fract_z
_atom_site_U_iso_or_equiv
_atom_site_adp_type
_atom_site_occupancy
C1     C     0.29997   0.08438   0.50697   0.00000  Uiso   1.00
C2     C     0.23838   0.11721   0.53104   0.00000  Uiso   1.00
C3     C     0.16987   0.12639   0.51610   0.00000  Uiso   1.00
C4     C     0.12116   0.15750   0.54296   0.00000  Uiso   1.00
C5     C     0.02262   0.20530   0.57419   0.00000  Uiso   1.00
C6     C     0.35903   0.13970   0.50715   0.00000  Uiso   1.00
C7     C     0.39197   0.16778   0.47212   0.00000  Uiso   1.00
C8     C     0.44482   0.21781   0.47887   0.00000  Uiso   1.00
C9     C     0.53363   0.30048   0.47301   0.00000  Uiso   1.00
C10    C     0.32671   0.02290   0.53361   0.00000  Uiso   1.00
C11    C     0.33249   0.95277   0.52083   0.00000  Uiso   1.00
C12    C     0.35815   0.90447   0.54984   0.00000  Uiso   1.00
C13    C     0.39676   0.80579   0.58506   0.00000  Uiso   1.00
C14    C     0.33528   0.12329   0.58122   0.00000  Uiso   1.00
C15    C     0.25756   0.13835   0.57137   0.00000  Uiso   1.00
C16    C     0.20894   0.16945   0.59826   0.00000  Uiso   1.00
C17    C     0.14037   0.17867   0.58336   0.00000  Uiso   1.00
C18    C     0.37821   0.16084   0.54748   0.00000  Uiso   1.00
C19    C     0.43103   0.21084   0.55428   0.00000  Uiso   1.00
C20    C     0.46404   0.23899   0.51927   0.00000  Uiso   1.00
C21    C     0.34589   0.04403   0.57394   0.00000  Uiso   1.00
C22    C     0.37155   0.99583   0.60298   0.00000  Uiso   1.00
C23    C     0.37736   0.92565   0.59025   0.00000  Uiso   1.00
H24    H     0.28505   0.06792   0.47557   0.00000  Uiso   1.00
H25    H     0.15505   0.11003   0.48489   0.00000  Uiso   1.00
H26    H     0.37712   0.15141   0.44092   0.00000  Uiso   1.00
H27    H     0.31764   0.93644   0.48961   0.00000  Uiso   1.00
H28    H     0.01940   0.16606   0.51300   0.00000  Uiso   1.00
H29    H     0.48765   0.25329   0.42028   0.00000  Uiso   1.00
H30    H     0.36223   0.79998   0.52297   0.00000  Uiso   1.00
H31    H     0.35022   0.13975   0.61263   0.00000  Uiso   1.00
H32    H     0.22380   0.18580   0.62947   0.00000  Uiso   1.00
H33    H     0.44586   0.22718   0.58549   0.00000  Uiso   1.00
H34    H     0.38638   0.01221   0.63419   0.00000  Uiso   1.00
H35    H     0.07519   0.22756   0.63034   0.00000  Uiso   1.00
H36    H     0.54345   0.31478   0.53763   0.00000  Uiso   1.00
H37    H     0.41803   0.86148   0.64031   0.00000  Uiso   1.00
O38    O     0.96296   0.22583   0.58027   0.00000  Uiso   1.00
O39    O     0.57730   0.34025   0.45863   0.00000  Uiso   1.00
O40    O     0.41275   0.74552   0.59335   0.00000  Uiso   1.00
N41    N     0.04988   0.17421   0.53831   0.00000  Uiso   1.00
N42    N     0.48766   0.25576   0.45162   0.00000  Uiso   1.00
N43    N     0.37042   0.83196   0.54762   0.00000  Uiso   1.00
N44    N     0.07990   0.20730   0.60145   0.00000  Uiso   1.00
N45    N     0.51768   0.28885   0.51476   0.00000  Uiso   1.00
N46    N     0.40044   0.86505   0.61076   0.00000  Uiso   1.00
C47    C     0.79997   0.58438   0.00697   0.00000  Uiso   1.00
C48    C     0.73838   0.61721   0.03104   0.00000  Uiso   1.00
C49    C     0.66987   0.62639   0.01610   0.00000  Uiso   1.00
C50    C     0.62116   0.65750   0.04296   0.00000  Uiso   1.00
C51    C     0.52262   0.70530   0.07419   0.00000  Uiso   1.00
C52    C     0.85903   0.63970   0.00715   0.00000  Uiso   1.00
C53    C     0.89197   0.66778   0.97212   0.00000  Uiso   1.00
C54    C     0.94482   0.71781   0.97887   0.00000  Uiso   1.00
C55    C     0.03363   0.80048   0.97301   0.00000  Uiso   1.00
C56    C     0.82671   0.52290   0.03361   0.00000  Uiso   1.00
C57    C     0.83249   0.45277   0.02083   0.00000  Uiso   1.00
C58    C     0.85815   0.40447   0.04984   0.00000  Uiso   1.00
C59    C     0.89676   0.30579   0.08506   0.00000  Uiso   1.00
C60    C     0.83528   0.62329   0.08122   0.00000  Uiso   1.00
C61    C     0.75756   0.63835   0.07137   0.00000  Uiso   1.00
C62    C     0.70894   0.66945   0.09826   0.00000  Uiso   1.00
C63    C     0.64037   0.67867   0.08336   0.00000  Uiso   1.00
C64    C     0.87821   0.66084   0.04748   0.00000  Uiso   1.00
C65    C     0.93103   0.71084   0.05428   0.00000  Uiso   1.00
C66    C     0.96404   0.73899   0.01927   0.00000  Uiso   1.00
C67    C     0.84589   0.54403   0.07394   0.00000  Uiso   1.00
C68    C     0.87155   0.49583   0.10298   0.00000  Uiso   1.00
C69    C     0.87736   0.42565   0.09025   0.00000  Uiso   1.00
H70    H     0.78505   0.56792   0.97557   0.00000  Uiso   1.00
H71    H     0.65505   0.61003   0.98489   0.00000  Uiso   1.00
H72    H     0.87712   0.65141   0.94092   0.00000  Uiso   1.00
H73    H     0.81764   0.43644   0.98961   0.00000  Uiso   1.00
H74    H     0.51940   0.66606   0.01300   0.00000  Uiso   1.00
H75    H     0.98765   0.75329   0.92028   0.00000  Uiso   1.00
H76    H     0.86223   0.29998   0.02297   0.00000  Uiso   1.00
H77    H     0.85022   0.63975   0.11263   0.00000  Uiso   1.00
H78    H     0.72380   0.68580   0.12947   0.00000  Uiso   1.00
H79    H     0.94586   0.72718   0.08549   0.00000  Uiso   1.00
H80    H     0.88638   0.51221   0.13419   0.00000  Uiso   1.00
H81    H     0.57519   0.72756   0.13034   0.00000  Uiso   1.00
H82    H     0.04345   0.81478   0.03763   0.00000  Uiso   1.00
H83    H     0.91803   0.36148   0.14031   0.00000  Uiso   1.00
O84    O     0.46296   0.72583   0.08027   0.00000  Uiso   1.00
O85    O     0.07730   0.84025   0.95863   0.00000  Uiso   1.00
O86    O     0.91275   0.24552   0.09335   0.00000  Uiso   1.00
N87    N     0.54988   0.67421   0.03831   0.00000  Uiso   1.00
N88    N     0.98766   0.75576   0.95162   0.00000  Uiso   1.00
N89    N     0.87042   0.33196   0.04762   0.00000  Uiso   1.00
N90    N     0.57990   0.70730   0.10145   0.00000  Uiso   1.00
N91    N     0.01768   0.78885   0.01476   0.00000  Uiso   1.00
N92    N     0.90044   0.36505   0.11076   0.00000  Uiso   1.00
C93    C     0.20003   0.41562   0.00697   0.00000  Uiso   1.00
C94    C     0.26162   0.38279   0.03104   0.00000  Uiso   1.00
C95    C     0.33013   0.37361   0.01610   0.00000  Uiso   1.00
C96    C     0.37884   0.34250   0.04296   0.00000  Uiso   1.00
C97    C     0.47738   0.29470   0.07419   0.00000  Uiso   1.00
C98    C     0.14097   0.36030   0.00715   0.00000  Uiso   1.00
C99    C     0.10803   0.33222   0.97212   0.00000  Uiso   1.00
C100   C     0.05518   0.28219   0.97887   0.00000  Uiso   1.00
C101   C     0.96637   0.19952   0.97301   0.00000  Uiso   1.00
C102   C     0.17329   0.47710   0.03361   0.00000  Uiso   1.00
C103   C     0.16751   0.54723   0.02083   0.00000  Uiso   1.00
C104   C     0.14185   0.59553   0.04984   0.00000  Uiso   1.00
C105   C     0.10324   0.69421   0.08506   0.00000  Uiso   1.00
C106   C     0.16472   0.37671   0.08122   0.00000  Uiso   1.00
C107   C     0.24244   0.36165   0.07137   0.00000  Uiso   1.00
C108   C     0.29106   0.33055   0.09826   0.00000  Uiso   1.00
C109   C     0.35963   0.32133   0.08336   0.00000  Uiso   1.00
C110   C     0.12179   0.33916   0.04748   0.00000  Uiso   1.00
C111   C     0.06897   0.28916   0.05428   0.00000  Uiso   1.00
C112   C     0.03596   0.26101   0.01927   0.00000  Uiso   1.00
C113   C     0.15411   0.45597   0.07394   0.00000  Uiso   1.00
C114   C     0.12845   0.50417   0.10298   0.00000  Uiso   1.00
C115   C     0.12264   0.57435   0.09025   0.00000  Uiso   1.00
H116   H     0.21495   0.43208   0.97557   0.00000  Uiso   1.00
H117   H     0.34495   0.38997   0.98489   0.00000  Uiso   1.00
H118   H     0.12288   0.34859   0.94092   0.00000  Uiso   1.00
H119   H     0.18236   0.56356   0.98961   0.00000  Uiso   1.00
H120   H     0.48060   0.33394   0.01300   0.00000  Uiso   1.00
H121   H     0.01235   0.24671   0.92028   0.00000  Uiso   1.00
H122   H     0.13777   0.70002   0.02297   0.00000  Uiso   1.00
H123   H     0.14978   0.36025   0.11263   0.00000  Uiso   1.00
H124   H     0.27620   0.31420   0.12947   0.00000  Uiso   1.00
H125   H     0.05414   0.27282   0.08549   0.00000  Uiso   1.00
H126   H     0.11362   0.48779   0.13419   0.00000  Uiso   1.00
H127   H     0.42481   0.27244   0.13034   0.00000  Uiso   1.00
H128   H     0.95655   0.18522   0.03763   0.00000  Uiso   1.00
H129   H     0.08197   0.63852   0.14031   0.00000  Uiso   1.00
O130   O     0.53704   0.27417   0.08027   0.00000  Uiso   1.00
O131   O     0.92270   0.15975   0.95863   0.00000  Uiso   1.00
O132   O     0.08725   0.75448   0.09335   0.00000  Uiso   1.00
N133   N     0.45012   0.32579   0.03831   0.00000  Uiso   1.00
N134   N     0.01234   0.24424   0.95162   0.00000  Uiso   1.00
N135   N     0.12958   0.66804   0.04762   0.00000  Uiso   1.00
N136   N     0.42010   0.29270   0.10145   0.00000  Uiso   1.00
N137   N     0.98232   0.21115   0.01476   0.00000  Uiso   1.00
N138   N     0.09956   0.63495   0.11076   0.00000  Uiso   1.00
C139   C     0.70003   0.91562   0.50697   0.00000  Uiso   1.00
C140   C     0.76162   0.88279   0.53104   0.00000  Uiso   1.00
C141   C     0.83013   0.87361   0.51610   0.00000  Uiso   1.00
C142   C     0.87884   0.84250   0.54296   0.00000  Uiso   1.00
C143   C     0.97738   0.79470   0.57419   0.00000  Uiso   1.00
C144   C     0.64097   0.86030   0.50715   0.00000  Uiso   1.00
C145   C     0.60803   0.83222   0.47212   0.00000  Uiso   1.00
C146   C     0.55518   0.78219   0.47887   0.00000  Uiso   1.00
C147   C     0.46637   0.69952   0.47301   0.00000  Uiso   1.00
C148   C     0.67329   0.97710   0.53361   0.00000  Uiso   1.00
C149   C     0.66751   0.04723   0.52083   0.00000  Uiso   1.00
C150   C     0.64186   0.09553   0.54984   0.00000  Uiso   1.00
C151   C     0.60324   0.19421   0.58506   0.00000  Uiso   1.00
C152   C     0.66472   0.87671   0.58122   0.00000  Uiso   1.00
C153   C     0.74244   0.86165   0.57137   0.00000  Uiso   1.00
C154   C     0.79106   0.83055   0.59826   0.00000  Uiso   1.00
C155   C     0.85963   0.82133   0.58336   0.00000  Uiso   1.00
C156   C     0.62179   0.83916   0.54748   0.00000  Uiso   1.00
C157   C     0.56897   0.78916   0.55428   0.00000  Uiso   1.00
C158   C     0.53596   0.76101   0.51927   0.00000  Uiso   1.00
C159   C     0.65411   0.95597   0.57394   0.00000  Uiso   1.00
C160   C     0.62845   0.00417   0.60298   0.00000  Uiso   1.00
C161   C     0.62264   0.07435   0.59025   0.00000  Uiso   1.00
H162   H     0.71495   0.93208   0.47557   0.00000  Uiso   1.00
H163   H     0.84495   0.88997   0.48489   0.00000  Uiso   1.00
H164   H     0.62288   0.84859   0.44092   0.00000  Uiso   1.00
H165   H     0.68236   0.06356   0.48961   0.00000  Uiso   1.00
H166   H     0.98060   0.83394   0.51300   0.00000  Uiso   1.00
H167   H     0.51235   0.74671   0.42028   0.00000  Uiso   1.00
H168   H     0.63777   0.20002   0.52297   0.00000  Uiso   1.00
H169   H     0.64978   0.86025   0.61263   0.00000  Uiso   1.00
H170   H     0.77620   0.81420   0.62947   0.00000  Uiso   1.00
H171   H     0.55414   0.77282   0.58549   0.00000  Uiso   1.00
H172   H     0.61362   0.98779   0.63419   0.00000  Uiso   1.00
H173   H     0.92481   0.77244   0.63034   0.00000  Uiso   1.00
H174   H     0.45655   0.68522   0.53763   0.00000  Uiso   1.00
H175   H     0.58197   0.13852   0.64031   0.00000  Uiso   1.00
O176   O     0.03704   0.77417   0.58027   0.00000  Uiso   1.00
O177   O     0.42270   0.65975   0.45863   0.00000  Uiso   1.00
O178   O     0.58725   0.25448   0.59335   0.00000  Uiso   1.00
N179   N     0.95012   0.82579   0.53831   0.00000  Uiso   1.00
N180   N     0.51234   0.74424   0.45162   0.00000  Uiso   1.00
N181   N     0.62958   0.16804   0.54762   0.00000  Uiso   1.00
N182   N     0.92010   0.79270   0.60145   0.00000  Uiso   1.00
N183   N     0.48232   0.71115   0.51476   0.00000  Uiso   1.00
N184   N     0.59956   0.13495   0.61076   0.00000  Uiso   1.00
C185   C     0.91562   0.79997   0.75697   0.00000  Uiso   1.00
C186   C     0.88279   0.73838   0.78104   0.00000  Uiso   1.00
C187   C     0.87361   0.66987   0.76610   0.00000  Uiso   1.00
C188   C     0.84250   0.62116   0.79296   0.00000  Uiso   1.00
C189   C     0.79470   0.52262   0.82419   0.00000  Uiso   1.00
C190   C     0.86030   0.85903   0.75715   0.00000  Uiso   1.00
C191   C     0.83222   0.89197   0.72212   0.00000  Uiso   1.00
C192   C     0.78219   0.94482   0.72887   0.00000  Uiso   1.00
C193   C     0.69952   0.03363   0.72301   0.00000  Uiso   1.00
C194   C     0.97710   0.82671   0.78361   0.00000  Uiso   1.00
C195   C     0.04723   0.83249   0.77083   0.00000  Uiso   1.00
C196   C     0.09553   0.85815   0.79984   0.00000  Uiso   1.00
C197   C     0.19421   0.89676   0.83506   0.00000  Uiso   1.00
C198   C     0.87671   0.83528   0.83122   0.00000  Uiso   1.00
C199   C     0.86165   0.75756   0.82137   0.00000  Uiso   1.00
C200   C     0.83055   0.70894   0.84826   0.00000  Uiso   1.00
C201   C     0.82133   0.64037   0.83336   0.00000  Uiso   1.00
C202   C     0.83916   0.87821   0.79748   0.00000  Uiso   1.00
C203   C     0.78916   0.93103   0.80428   0.00000  Uiso   1.00
C204   C     0.76101   0.96404   0.76927   0.00000  Uiso   1.00
C205   C     0.95597   0.84589   0.82394   0.00000  Uiso   1.00
C206   C     0.00417   0.87155   0.85298   0.00000  Uiso   1.00
C207   C     0.07435   0.87736   0.84025   0.00000  Uiso   1.00
H208   H     0.93208   0.78505   0.72557   0.00000  Uiso   1.00
H209   H     0.88997   0.65505   0.73489   0.00000  Uiso   1.00
H210   H     0.84859   0.87712   0.69092   0.00000  Uiso   1.00
H211   H     0.06356   0.81764   0.73961   0.00000  Uiso   1.00
H212   H     0.83394   0.51940   0.76300   0.00000  Uiso   1.00
H213   H     0.74671   0.98765   0.67028   0.00000  Uiso   1.00
H214   H     0.20002   0.86223   0.77297   0.00000  Uiso   1.00
H215   H     0.86025   0.85022   0.86263   0.00000  Uiso   1.00
H216   H     0.81420   0.72380   0.87947   0.00000  Uiso   1.00
H217   H     0.77282   0.94586   0.83549   0.00000  Uiso   1.00
H218   H     0.98779   0.88638   0.88419   0.00000  Uiso   1.00
H219   H     0.77244   0.57519   0.88034   0.00000  Uiso   1.00
H220   H     0.68522   0.04345   0.78763   0.00000  Uiso   1.00
H221   H     0.13852   0.91803   0.89031   0.00000  Uiso   1.00
O222   O     0.77417   0.46296   0.83027   0.00000  Uiso   1.00
O223   O     0.65975   0.07730   0.70863   0.00000  Uiso   1.00
O224   O     0.25448   0.91275   0.84335   0.00000  Uiso   1.00
N225   N     0.82579   0.54988   0.78831   0.00000  Uiso   1.00
N226   N     0.74424   0.98766   0.70162   0.00000  Uiso   1.00
N227   N     0.16804   0.87042   0.79762   0.00000  Uiso   1.00
N228   N     0.79270   0.57990   0.85145   0.00000  Uiso   1.00
N229   N     0.71115   0.01768   0.76476   0.00000  Uiso   1.00
N230   N     0.13495   0.90044   0.86076   0.00000  Uiso   1.00
C231   C     0.41562   0.29997   0.25697   0.00000  Uiso   1.00
C232   C     0.38279   0.23838   0.28104   0.00000  Uiso   1.00
C233   C     0.37361   0.16987   0.26610   0.00000  Uiso   1.00
C234   C     0.34250   0.12116   0.29296   0.00000  Uiso   1.00
C235   C     0.29470   0.02262   0.32419   0.00000  Uiso   1.00
C236   C     0.36030   0.35903   0.25715   0.00000  Uiso   1.00
C237   C     0.33222   0.39197   0.22212   0.00000  Uiso   1.00
C238   C     0.28219   0.44482   0.22887   0.00000  Uiso   1.00
C239   C     0.19952   0.53363   0.22301   0.00000  Uiso   1.00
C240   C     0.47710   0.32671   0.28361   0.00000  Uiso   1.00
C241   C     0.54723   0.33249   0.27083   0.00000  Uiso   1.00
C242   C     0.59553   0.35815   0.29984   0.00000  Uiso   1.00
C243   C     0.69421   0.39676   0.33506   0.00000  Uiso   1.00
C244   C     0.37671   0.33528   0.33122   0.00000  Uiso   1.00
C245   C     0.36165   0.25756   0.32137   0.00000  Uiso   1.00
C246   C     0.33055   0.20894   0.34826   0.00000  Uiso   1.00
C247   C     0.32133   0.14037   0.33336   0.00000  Uiso   1.00
C248   C     0.33916   0.37821   0.29748   0.00000  Uiso   1.00
C249   C     0.28916   0.43103   0.30428   0.00000  Uiso   1.00
C250   C     0.26101   0.46404   0.26927   0.00000  Uiso   1.00
C251   C     0.45597   0.34589   0.32394   0.00000  Uiso   1.00
C252   C     0.50417   0.37155   0.35298   0.00000  Uiso   1.00
C253   C     0.57435   0.37736   0.34025   0.00000  Uiso   1.00
H254   H     0.43208   0.28505   0.22557   0.00000  Uiso   1.00
H255   H     0.38997   0.15505   0.23489   0.00000  Uiso   1.00
H256   H     0.34859   0.37712   0.19092   0.00000  Uiso   1.00
H257   H     0.56356   0.31764   0.23961   0.00000  Uiso   1.00
H258   H     0.33394   0.01940   0.26300   0.00000  Uiso   1.00
H259   H     0.24671   0.48765   0.17028   0.00000  Uiso   1.00
H260   H     0.70002   0.36223   0.27297   0.00000  Uiso   1.00
H261   H     0.36025   0.35022   0.36263   0.00000  Uiso   1.00
H262   H     0.31420   0.22380   0.37947   0.00000  Uiso   1.00
H263   H     0.27282   0.44586   0.33549   0.00000  Uiso   1.00
H264   H     0.48779   0.38638   0.38419   0.00000  Uiso   1.00
H265   H     0.27244   0.07519   0.38034   0.00000  Uiso   1.00
H266   H     0.18522   0.54345   0.28763   0.00000  Uiso   1.00
H267   H     0.63852   0.41803   0.39031   0.00000  Uiso   1.00
O268   O     0.27417   0.96296   0.33027   0.00000  Uiso   1.00
O269   O     0.15975   0.57730   0.20863   0.00000  Uiso   1.00
O270   O     0.75448   0.41275   0.34335   0.00000  Uiso   1.00
N271   N     0.32579   0.04988   0.28831   0.00000  Uiso   1.00
N272   N     0.24424   0.48766   0.20162   0.00000  Uiso   1.00
N273   N     0.66804   0.37042   0.29762   0.00000  Uiso   1.00
N274   N     0.29270   0.07990   0.35145   0.00000  Uiso   1.00
N275   N     0.21115   0.51768   0.26476   0.00000  Uiso   1.00
N276   N     0.63495   0.40044   0.36076   0.00000  Uiso   1.00
C277   C     0.58438   0.70003   0.25697   0.00000  Uiso   1.00
C278   C     0.61721   0.76162   0.28104   0.00000  Uiso   1.00
C279   C     0.62639   0.83013   0.26610   0.00000  Uiso   1.00
C280   C     0.65750   0.87884   0.29296   0.00000  Uiso   1.00
C281   C     0.70530   0.97738   0.32419   0.00000  Uiso   1.00
C282   C     0.63970   0.64097   0.25715   0.00000  Uiso   1.00
C283   C     0.66778   0.60803   0.22212   0.00000  Uiso   1.00
C284   C     0.71781   0.55518   0.22887   0.00000  Uiso   1.00
C285   C     0.80048   0.46637   0.22301   0.00000  Uiso   1.00
C286   C     0.52290   0.67329   0.28361   0.00000  Uiso   1.00
C287   C     0.45277   0.66751   0.27083   0.00000  Uiso   1.00
C288   C     0.40447   0.64185   0.29984   0.00000  Uiso   1.00
C289   C     0.30579   0.60324   0.33506   0.00000  Uiso   1.00
C290   C     0.62329   0.66472   0.33122   0.00000  Uiso   1.00
C291   C     0.63835   0.74244   0.32137   0.00000  Uiso   1.00
C292   C     0.66945   0.79106   0.34826   0.00000  Uiso   1.00
C293   C     0.67867   0.85963   0.33336   0.00000  Uiso   1.00
C294   C     0.66084   0.62179   0.29748   0.00000  Uiso   1.00
C295   C     0.71084   0.56897   0.30428   0.00000  Uiso   1.00
C296   C     0.73899   0.53596   0.26927   0.00000  Uiso   1.00
C297   C     0.54403   0.65411   0.32394   0.00000  Uiso   1.00
C298   C     0.49583   0.62845   0.35298   0.00000  Uiso   1.00
C299   C     0.42565   0.62264   0.34025   0.00000  Uiso   1.00
H300   H     0.56792   0.71495   0.22557   0.00000  Uiso   1.00
H301   H     0.61003   0.84495   0.23489   0.00000  Uiso   1.00
H302   H     0.65141   0.62288   0.19092   0.00000  Uiso   1.00
H303   H     0.43644   0.68236   0.23961   0.00000  Uiso   1.00
H304   H     0.66606   0.98060   0.26300   0.00000  Uiso   1.00
H305   H     0.75329   0.51235   0.17028   0.00000  Uiso   1.00
H306   H     0.29998   0.63777   0.27297   0.00000  Uiso   1.00
H307   H     0.63975   0.64978   0.36263   0.00000  Uiso   1.00
H308   H     0.68580   0.77620   0.37947   0.00000  Uiso   1.00
H309   H     0.72718   0.55414   0.33549   0.00000  Uiso   1.00
H310   H     0.51221   0.61362   0.38419   0.00000  Uiso   1.00
H311   H     0.72756   0.92481   0.38034   0.00000  Uiso   1.00
H312   H     0.81478   0.45655   0.28763   0.00000  Uiso   1.00
H313   H     0.36148   0.58197   0.39031   0.00000  Uiso   1.00
O314   O     0.72583   0.03704   0.33027   0.00000  Uiso   1.00
O315   O     0.84025   0.42270   0.20863   0.00000  Uiso   1.00
O316   O     0.24552   0.58725   0.34335   0.00000  Uiso   1.00
N317   N     0.67421   0.95012   0.28831   0.00000  Uiso   1.00
N318   N     0.75576   0.51234   0.20162   0.00000  Uiso   1.00
N319   N     0.33196   0.62958   0.29762   0.00000  Uiso   1.00
N320   N     0.70730   0.92010   0.35145   0.00000  Uiso   1.00
N321   N     0.78885   0.48232   0.26476   0.00000  Uiso   1.00
N322   N     0.36505   0.59956   0.36076   0.00000  Uiso   1.00
C323   C     0.08438   0.20003   0.75697   0.00000  Uiso   1.00
C324   C     0.11721   0.26162   0.78104   0.00000  Uiso   1.00
C325   C     0.12639   0.33013   0.76610   0.00000  Uiso   1.00
C326   C     0.15750   0.37884   0.79296   0.00000  Uiso   1.00
C327   C     0.20530   0.47738   0.82419   0.00000  Uiso   1.00
C328   C     0.13970   0.14097   0.75715   0.00000  Uiso   1.00
C329   C     0.16778   0.10803   0.72212   0.00000  Uiso   1.00
C330   C     0.21781   0.05518   0.72887   0.00000  Uiso   1.00
C331   C     0.30048   0.96637   0.72301   0.00000  Uiso   1.00
C332   C     0.02290   0.17329   0.78361   0.00000  Uiso   1.00
C333   C     0.95277   0.16751   0.77083   0.00000  Uiso   1.00
C334   C     0.90447   0.14185   0.79984   0.00000  Uiso   1.00
C335   C     0.80579   0.10324   0.83506   0.00000  Uiso   1.00
C336   C     0.12329   0.16472   0.83122   0.00000  Uiso   1.00
C337   C     0.13835   0.24244   0.82137   0.00000  Uiso   1.00
C338   C     0.16945   0.29106   0.84826   0.00000  Uiso   1.00
C339   C     0.17867   0.35963   0.83336   0.00000  Uiso   1.00
C340   C     0.16084   0.12179   0.79748   0.00000  Uiso   1.00
C341   C     0.21084   0.06897   0.80428   0.00000  Uiso   1.00
C342   C     0.23899   0.03596   0.76927   0.00000  Uiso   1.00
C343   C     0.04403   0.15411   0.82394   0.00000  Uiso   1.00
C344   C     0.99583   0.12845   0.85298   0.00000  Uiso   1.00
C345   C     0.92565   0.12264   0.84025   0.00000  Uiso   1.00
H346   H     0.06792   0.21495   0.72557   0.00000  Uiso   1.00
H347   H     0.11003   0.34495   0.73489   0.00000  Uiso   1.00
H348   H     0.15141   0.12288   0.69092   0.00000  Uiso   1.00
H349   H     0.93644   0.18236   0.73961   0.00000  Uiso   1.00
H350   H     0.16606   0.48060   0.76300   0.00000  Uiso   1.00
H351   H     0.25329   0.01235   0.67028   0.00000  Uiso   1.00
H352   H     0.79998   0.13777   0.77297   0.00000  Uiso   1.00
H353   H     0.13975   0.14978   0.86263   0.00000  Uiso   1.00
H354   H     0.18580   0.27620   0.87947   0.00000  Uiso   1.00
H355   H     0.22718   0.05414   0.83549   0.00000  Uiso   1.00
H356   H     0.01221   0.11362   0.88419   0.00000  Uiso   1.00
H357   H     0.22756   0.42481   0.88034   0.00000  Uiso   1.00
H358   H     0.31478   0.95655   0.78763   0.00000  Uiso   1.00
H359   H     0.86148   0.08197   0.89031   0.00000  Uiso   1.00
O360   O     0.22583   0.53704   0.83027   0.00000  Uiso   1.00
O361   O     0.34025   0.92270   0.70863   0.00000  Uiso   1.00
O362   O     0.74552   0.08725   0.84335   0.00000  Uiso   1.00
N363   N     0.17421   0.45012   0.78831   0.00000  Uiso   1.00
N364   N     0.25576   0.01234   0.70162   0.00000  Uiso   1.00
N365   N     0.83196   0.12958   0.79762   0.00000  Uiso   1.00
N366   N     0.20730   0.42010   0.85145   0.00000  Uiso   1.00
N367   N     0.28885   0.98232   0.76476   0.00000  Uiso   1.00
N368   N     0.86505   0.09956   0.86076   0.00000  Uiso   1.00
C369   C     0.70003   0.41562   0.74303   0.00000  Uiso   1.00
C370   C     0.76162   0.38279   0.71896   0.00000  Uiso   1.00
C371   C     0.83013   0.37361   0.73390   0.00000  Uiso   1.00
C372   C     0.87884   0.34250   0.70704   0.00000  Uiso   1.00
C373   C     0.97738   0.29470   0.67581   0.00000  Uiso   1.00
C374   C     0.64097   0.36030   0.74285   0.00000  Uiso   1.00
C375   C     0.60803   0.33222   0.77788   0.00000  Uiso   1.00
C376   C     0.55518   0.28219   0.77113   0.00000  Uiso   1.00
C377   C     0.46637   0.19952   0.77699   0.00000  Uiso   1.00
C378   C     0.67329   0.47710   0.71639   0.00000  Uiso   1.00
C379   C     0.66751   0.54723   0.72917   0.00000  Uiso   1.00
C380   C     0.64185   0.59553   0.70016   0.00000  Uiso   1.00
C381   C     0.60324   0.69421   0.66494   0.00000  Uiso   1.00
C382   C     0.66472   0.37671   0.66878   0.00000  Uiso   1.00
C383   C     0.74244   0.36165   0.67863   0.00000  Uiso   1.00
C384   C     0.79106   0.33055   0.65174   0.00000  Uiso   1.00
C385   C     0.85963   0.32133   0.66664   0.00000  Uiso   1.00
C386   C     0.62179   0.33916   0.70252   0.00000  Uiso   1.00
C387   C     0.56897   0.28916   0.69572   0.00000  Uiso   1.00
C388   C     0.53596   0.26101   0.73073   0.00000  Uiso   1.00
C389   C     0.65411   0.45597   0.67606   0.00000  Uiso   1.00
C390   C     0.62845   0.50417   0.64702   0.00000  Uiso   1.00
C391   C     0.62264   0.57435   0.65975   0.00000  Uiso   1.00
H392   H     0.71495   0.43208   0.77443   0.00000  Uiso   1.00
H393   H     0.84495   0.38997   0.76511   0.00000  Uiso   1.00
H394   H     0.62288   0.34859   0.80908   0.00000  Uiso   1.00
H395   H     0.68236   0.56356   0.76039   0.00000  Uiso   1.00
H396   H     0.98060   0.33394   0.73700   0.00000  Uiso   1.00
H397   H     0.51235   0.24671   0.82972   0.00000  Uiso   1.00
H398   H     0.63777   0.70002   0.72703   0.00000  Uiso   1.00
H399   H     0.64978   0.36025   0.63737   0.00000  Uiso   1.00
H400   H     0.77620   0.31420   0.62053   0.00000  Uiso   1.00
H401   H     0.55414   0.27282   0.66451   0.00000  Uiso   1.00
H402   H     0.61362   0.48779   0.61581   0.00000  Uiso   1.00
H403   H     0.92481   0.27244   0.61966   0.00000  Uiso   1.00
H404   H     0.45655   0.18522   0.71237   0.00000  Uiso   1.00
H405   H     0.58197   0.63852   0.60969   0.00000  Uiso   1.00
O406   O     0.03704   0.27417   0.66973   0.00000  Uiso   1.00
O407   O     0.42270   0.15975   0.79137   0.00000  Uiso   1.00
O408   O     0.58725   0.75448   0.65665   0.00000  Uiso   1.00
N409   N     0.95012   0.32579   0.71169   0.00000  Uiso   1.00
N410   N     0.51234   0.24424   0.79838   0.00000  Uiso   1.00
N411   N     0.62958   0.66804   0.70238   0.00000  Uiso   1.00
N412   N     0.92010   0.29270   0.64855   0.00000  Uiso   1.00
N413   N     0.48232   0.21115   0.73524   0.00000  Uiso   1.00
N414   N     0.59956   0.63495   0.63924   0.00000  Uiso   1.00
C415   C     0.20003   0.91562   0.24303   0.00000  Uiso   1.00
C416   C     0.26162   0.88279   0.21896   0.00000  Uiso   1.00
C417   C     0.33013   0.87361   0.23390   0.00000  Uiso   1.00
C418   C     0.37884   0.84250   0.20704   0.00000  Uiso   1.00
C419   C     0.47738   0.79470   0.17581   0.00000  Uiso   1.00
C420   C     0.14097   0.86030   0.24285   0.00000  Uiso   1.00
C421   C     0.10803   0.83222   0.27788   0.00000  Uiso   1.00
C422   C     0.05518   0.78219   0.27113   0.00000  Uiso   1.00
C423   C     0.96637   0.69952   0.27699   0.00000  Uiso   1.00
C424   C     0.17329   0.97710   0.21639   0.00000  Uiso   1.00
C425   C     0.16751   0.04723   0.22917   0.00000  Uiso   1.00
C426   C     0.14185   0.09553   0.20016   0.00000  Uiso   1.00
C427   C     0.10324   0.19421   0.16494   0.00000  Uiso   1.00
C428   C     0.16472   0.87671   0.16878   0.00000  Uiso   1.00
C429   C     0.24244   0.86165   0.17863   0.00000  Uiso   1.00
C430   C     0.29106   0.83055   0.15174   0.00000  Uiso   1.00
C431   C     0.35963   0.82133   0.16664   0.00000  Uiso   1.00
C432   C     0.12179   0.83916   0.20252   0.00000  Uiso   1.00
C433   C     0.06897   0.78916   0.19572   0.00000  Uiso   1.00
C434   C     0.03596   0.76101   0.23073   0.00000  Uiso   1.00
C435   C     0.15411   0.95597   0.17606   0.00000  Uiso   1.00
C436   C     0.12845   0.00417   0.14702   0.00000  Uiso   1.00
C437   C     0.12264   0.07435   0.15975   0.00000  Uiso   1.00
H438   H     0.21495   0.93208   0.27443   0.00000  Uiso   1.00
H439   H     0.34495   0.88997   0.26511   0.00000  Uiso   1.00
H440   H     0.12288   0.84859   0.30908   0.00000  Uiso   1.00
H441   H     0.18236   0.06356   0.26039   0.00000  Uiso   1.00
H442   H     0.48060   0.83394   0.23700   0.00000  Uiso   1.00
H443   H     0.01235   0.74671   0.32972   0.00000  Uiso   1.00
H444   H     0.13777   0.20002   0.22703   0.00000  Uiso   1.00
H445   H     0.14978   0.86025   0.13737   0.00000  Uiso   1.00
H446   H     0.27620   0.81420   0.12053   0.00000  Uiso   1.00
H447   H     0.05414   0.77282   0.16451   0.00000  Uiso   1.00
H448   H     0.11362   0.98779   0.11581   0.00000  Uiso   1.00
H449   H     0.42481   0.77244   0.11966   0.00000  Uiso   1.00
H450   H     0.95655   0.68522   0.21237   0.00000  Uiso   1.00
H451   H     0.08197   0.13852   0.10969   0.00000  Uiso   1.00
O452   O     0.53704   0.77417   0.16973   0.00000  Uiso   1.00
O453   O     0.92270   0.65975   0.29137   0.00000  Uiso   1.00
O454   O     0.08725   0.25448   0.15665   0.00000  Uiso   1.00
N455   N     0.45012   0.82579   0.21169   0.00000  Uiso   1.00
N456   N     0.01234   0.74424   0.29838   0.00000  Uiso   1.00
N457   N     0.12958   0.16804   0.20238   0.00000  Uiso   1.00
N458   N     0.42010   0.79270   0.14855   0.00000  Uiso   1.00
N459   N     0.98232   0.71115   0.23524   0.00000  Uiso   1.00
N460   N     0.09956   0.13495   0.13924   0.00000  Uiso   1.00
C461   C     0.79997   0.08438   0.24303   0.00000  Uiso   1.00
C462   C     0.73838   0.11721   0.21896   0.00000  Uiso   1.00
C463   C     0.66987   0.12639   0.23390   0.00000  Uiso   1.00
C464   C     0.62116   0.15750   0.20704   0.00000  Uiso   1.00
C465   C     0.52262   0.20530   0.17581   0.00000  Uiso   1.00
C466   C     0.85903   0.13970   0.24285   0.00000  Uiso   1.00
C467   C     0.89197   0.16778   0.27788   0.00000  Uiso   1.00
C468   C     0.94482   0.21781   0.27113   0.00000  Uiso   1.00
C469   C     0.03363   0.30048   0.27699   0.00000  Uiso   1.00
C470   C     0.82671   0.02290   0.21639   0.00000  Uiso   1.00
C471   C     0.83249   0.95277   0.22917   0.00000  Uiso   1.00
C472   C     0.85815   0.90447   0.20016   0.00000  Uiso   1.00
C473   C     0.89676   0.80579   0.16494   0.00000  Uiso   1.00
C474   C     0.83528   0.12329   0.16878   0.00000  Uiso   1.00
C475   C     0.75756   0.13835   0.17863   0.00000  Uiso   1.00
C476   C     0.70894   0.16945   0.15174   0.00000  Uiso   1.00
C477   C     0.64037   0.17867   0.16664   0.00000  Uiso   1.00
C478   C     0.87821   0.16084   0.20252   0.00000  Uiso   1.00
C479   C     0.93103   0.21084   0.19572   0.00000  Uiso   1.00
C480   C     0.96404   0.23899   0.23073   0.00000  Uiso   1.00
C481   C     0.84589   0.04403   0.17606   0.00000  Uiso   1.00
C482   C     0.87155   0.99583   0.14702   0.00000  Uiso   1.00
C483   C     0.87736   0.92565   0.15975   0.00000  Uiso   1.00
H484   H     0.78505   0.06792   0.27443   0.00000  Uiso   1.00
H485   H     0.65505   0.11003   0.26511   0.00000  Uiso   1.00
H486   H     0.87712   0.15141   0.30908   0.00000  Uiso   1.00
H487   H     0.81764   0.93644   0.26039   0.00000  Uiso   1.00
H488   H     0.51940   0.16606   0.23700   0.00000  Uiso   1.00
H489   H     0.98765   0.25329   0.32972   0.00000  Uiso   1.00
H490   H     0.86223   0.79998   0.22703   0.00000  Uiso   1.00
H491   H     0.85022   0.13975   0.13737   0.00000  Uiso   1.00
H492   H     0.72380   0.18580   0.12053   0.00000  Uiso   1.00
H493   H     0.94586   0.22718   0.16451   0.00000  Uiso   1.00
H494   H     0.88638   0.01221   0.11581   0.00000  Uiso   1.00
H495   H     0.57519   0.22756   0.11966   0.00000  Uiso   1.00
H496   H     0.04345   0.31478   0.21237   0.00000  Uiso   1.00
H497   H     0.91803   0.86148   0.10969   0.00000  Uiso   1.00
O498   O     0.46296   0.22583   0.16973   0.00000  Uiso   1.00
O499   O     0.07730   0.34025   0.29137   0.00000  Uiso   1.00
O500   O     0.91275   0.74552   0.15665   0.00000  Uiso   1.00
N501   N     0.54988   0.17421   0.21169   0.00000  Uiso   1.00
N502   N     0.98766   0.25576   0.29838   0.00000  Uiso   1.00
N503   N     0.87042   0.83196   0.20238   0.00000  Uiso   1.00
N504   N     0.57990   0.20730   0.14855   0.00000  Uiso   1.00
N505   N     0.01768   0.28885   0.23524   0.00000  Uiso   1.00
N506   N     0.90044   0.86505   0.13924   0.00000  Uiso   1.00
C507   C     0.29997   0.58438   0.74303   0.00000  Uiso   1.00
C508   C     0.23838   0.61721   0.71896   0.00000  Uiso   1.00
C509   C     0.16987   0.62639   0.73390   0.00000  Uiso   1.00
C510   C     0.12116   0.65750   0.70704   0.00000  Uiso   1.00
C511   C     0.02262   0.70530   0.67581   0.00000  Uiso   1.00
C512   C     0.35903   0.63970   0.74285   0.00000  Uiso   1.00
C513   C     0.39197   0.66778   0.77788   0.00000  Uiso   1.00
C514   C     0.44482   0.71781   0.77113   0.00000  Uiso   1.00
C515   C     0.53363   0.80048   0.77699   0.00000  Uiso   1.00
C516   C     0.32671   0.52290   0.71639   0.00000  Uiso   1.00
C517   C     0.33249   0.45277   0.72917   0.00000  Uiso   1.00
C518   C     0.35815   0.40447   0.70016   0.00000  Uiso   1.00
C519   C     0.39676   0.30579   0.66494   0.00000  Uiso   1.00
C520   C     0.33528   0.62329   0.66878   0.00000  Uiso   1.00
C521   C     0.25756   0.63835   0.67863   0.00000  Uiso   1.00
C522   C     0.20894   0.66945   0.65174   0.00000  Uiso   1.00
C523   C     0.14037   0.67867   0.66664   0.00000  Uiso   1.00
C524   C     0.37821   0.66084   0.70252   0.00000  Uiso   1.00
C525   C     0.43103   0.71084   0.69572   0.00000  Uiso   1.00
C526   C     0.46404   0.73899   0.73073   0.00000  Uiso   1.00
C527   C     0.34589   0.54403   0.67606   0.00000  Uiso   1.00
C528   C     0.37155   0.49583   0.64702   0.00000  Uiso   1.00
C529   C     0.37736   0.42565   0.65975   0.00000  Uiso   1.00
H530   H     0.28505   0.56792   0.77443   0.00000  Uiso   1.00
H531   H     0.15505   0.61003   0.76511   0.00000  Uiso   1.00
H532   H     0.37712   0.65141   0.80908   0.00000  Uiso   1.00
H533   H     0.31764   0.43644   0.76039   0.00000  Uiso   1.00
H534   H     0.01940   0.66606   0.73700   0.00000  Uiso   1.00
H535   H     0.48765   0.75329   0.82972   0.00000  Uiso   1.00
H536   H     0.36223   0.29998   0.72703   0.00000  Uiso   1.00
H537   H     0.35022   0.63975   0.63737   0.00000  Uiso   1.00
H538   H     0.22380   0.68580   0.62053   0.00000  Uiso   1.00
H539   H     0.44586   0.72718   0.66451   0.00000  Uiso   1.00
H540   H     0.38638   0.51221   0.61581   0.00000  Uiso   1.00
H541   H     0.07519   0.72756   0.61966   0.00000  Uiso   1.00
H542   H     0.54345   0.81478   0.71237   0.00000  Uiso   1.00
H543   H     0.41803   0.36148   0.60969   0.00000  Uiso   1.00
O544   O     0.96296   0.72583   0.66973   0.00000  Uiso   1.00
O545   O     0.57730   0.84025   0.79137   0.00000  Uiso   1.00
O546   O     0.41275   0.24552   0.65665   0.00000  Uiso   1.00
N547   N     0.04988   0.67421   0.71169   0.00000  Uiso   1.00
N548   N     0.48766   0.75576   0.79838   0.00000  Uiso   1.00
N549   N     0.37042   0.33196   0.70238   0.00000  Uiso   1.00
N550   N     0.07990   0.70730   0.64855   0.00000  Uiso   1.00
N551   N     0.51768   0.78885   0.73524   0.00000  Uiso   1.00
N552   N     0.40044   0.36505   0.63924   0.00000  Uiso   1.00
C553   C     0.08438   0.70003   0.49303   0.00000  Uiso   1.00
C554   C     0.11721   0.76162   0.46896   0.00000  Uiso   1.00
C555   C     0.12639   0.83013   0.48390   0.00000  Uiso   1.00
C556   C     0.15750   0.87884   0.45704   0.00000  Uiso   1.00
C557   C     0.20530   0.97738   0.42581   0.00000  Uiso   1.00
C558   C     0.13970   0.64097   0.49285   0.00000  Uiso   1.00
C559   C     0.16778   0.60803   0.52788   0.00000  Uiso   1.00
C560   C     0.21781   0.55518   0.52113   0.00000  Uiso   1.00
C561   C     0.30048   0.46637   0.52699   0.00000  Uiso   1.00
C562   C     0.02290   0.67329   0.46639   0.00000  Uiso   1.00
C563   C     0.95277   0.66751   0.47917   0.00000  Uiso   1.00
C564   C     0.90447   0.64186   0.45016   0.00000  Uiso   1.00
C565   C     0.80579   0.60324   0.41494   0.00000  Uiso   1.00
C566   C     0.12329   0.66472   0.41878   0.00000  Uiso   1.00
C567   C     0.13835   0.74244   0.42863   0.00000  Uiso   1.00
C568   C     0.16945   0.79106   0.40174   0.00000  Uiso   1.00
C569   C     0.17867   0.85963   0.41664   0.00000  Uiso   1.00
C570   C     0.16084   0.62179   0.45252   0.00000  Uiso   1.00
C571   C     0.21084   0.56897   0.44572   0.00000  Uiso   1.00
C572   C     0.23899   0.53596   0.48073   0.00000  Uiso   1.00
C573   C     0.04403   0.65411   0.42606   0.00000  Uiso   1.00
C574   C     0.99583   0.62845   0.39702   0.00000  Uiso   1.00
C575   C     0.92565   0.62264   0.40975   0.00000  Uiso   1.00
H576   H     0.06792   0.71495   0.52443   0.00000  Uiso   1.00
H577   H     0.11003   0.84495   0.51511   0.00000  Uiso   1.00
H578   H     0.15141   0.62288   0.55908   0.00000  Uiso   1.00
H579   H     0.93644   0.68236   0.51039   0.00000  Uiso   1.00
H580   H     0.16606   0.98060   0.48700   0.00000  Uiso   1.00
H581   H     0.25329   0.51235   0.57972   0.00000  Uiso   1.00
H582   H     0.79998   0.63777   0.47703   0.00000  Uiso   1.00
H583   H     0.13975   0.64978   0.38737   0.00000  Uiso   1.00
H584   H     0.18580   0.77620   0.37053   0.00000  Uiso   1.00
H585   H     0.22718   0.55414   0.41451   0.00000  Uiso   1.00
H586   H     0.01221   0.61362   0.36581   0.00000  Uiso   1.00
H587   H     0.22756   0.92481   0.36966   0.00000  Uiso   1.00
H588   H     0.31478   0.45655   0.46237   0.00000  Uiso   1.00
H589   H     0.86148   0.58197   0.35969   0.00000  Uiso   1.00
O590   O     0.22583   0.03704   0.41973   0.00000  Uiso   1.00
O591   O     0.34025   0.42270   0.54137   0.00000  Uiso   1.00
O592   O     0.74552   0.58725   0.40665   0.00000  Uiso   1.00
N593   N     0.17421   0.95012   0.46169   0.00000  Uiso   1.00
N594   N     0.25576   0.51234   0.54838   0.00000  Uiso   1.00
N595   N     0.83196   0.62958   0.45238   0.00000  Uiso   1.00
N596   N     0.20730   0.92010   0.39855   0.00000  Uiso   1.00
N597   N     0.28885   0.48232   0.48524   0.00000  Uiso   1.00
N598   N     0.86505   0.59956   0.38924   0.00000  Uiso   1.00
C599   C     0.58438   0.20003   0.99303   0.00000  Uiso   1.00
C600   C     0.61721   0.26162   0.96896   0.00000  Uiso   1.00
C601   C     0.62639   0.33013   0.98390   0.00000  Uiso   1.00
C602   C     0.65750   0.37884   0.95704   0.00000  Uiso   1.00
C603   C     0.70530   0.47738   0.92581   0.00000  Uiso   1.00
C604   C     0.63970   0.14097   0.99285   0.00000  Uiso   1.00
C605   C     0.66778   0.10803   0.02788   0.00000  Uiso   1.00
C606   C     0.71781   0.05518   0.02113   0.00000  Uiso   1.00
C607   C     0.80048   0.96637   0.02699   0.00000  Uiso   1.00
C608   C     0.52290   0.17329   0.96639   0.00000  Uiso   1.00
C609   C     0.45277   0.16751   0.97917   0.00000  Uiso   1.00
C610   C     0.40447   0.14185   0.95016   0.00000  Uiso   1.00
C611   C     0.30579   0.10324   0.91494   0.00000  Uiso   1.00
C612   C     0.62329   0.16472   0.91878   0.00000  Uiso   1.00
C613   C     0.63835   0.24244   0.92863   0.00000  Uiso   1.00
C614   C     0.66945   0.29106   0.90174   0.00000  Uiso   1.00
C615   C     0.67867   0.35963   0.91664   0.00000  Uiso   1.00
C616   C     0.66084   0.12179   0.95252   0.00000  Uiso   1.00
C617   C     0.71084   0.06897   0.94572   0.00000  Uiso   1.00
C618   C     0.73899   0.03596   0.98073   0.00000  Uiso   1.00
C619   C     0.54403   0.15411   0.92606   0.00000  Uiso   1.00
C620   C     0.49583   0.12845   0.89702   0.00000  Uiso   1.00
C621   C     0.42565   0.12264   0.90975   0.00000  Uiso   1.00
H622   H     0.56792   0.21495   0.02443   0.00000  Uiso   1.00
H623   H     0.61003   0.34495   0.01511   0.00000  Uiso   1.00
H624   H     0.65141   0.12288   0.05908   0.00000  Uiso   1.00
H625   H     0.43644   0.18236   0.01039   0.00000  Uiso   1.00
H626   H     0.66606   0.48060   0.98700   0.00000  Uiso   1.00
H627   H     0.75329   0.01235   0.07972   0.00000  Uiso   1.00
H628   H     0.29998   0.13777   0.97703   0.00000  Uiso   1.00
H629   H     0.63975   0.14978   0.88737   0.00000  Uiso   1.00
H630   H     0.68580   0.27620   0.87053   0.00000  Uiso   1.00
H631   H     0.72718   0.05414   0.91451   0.00000  Uiso   1.00
H632   H     0.51221   0.11362   0.86581   0.00000  Uiso   1.00
H633   H     0.72756   0.42481   0.86966   0.00000  Uiso   1.00
H634   H     0.81478   0.95655   0.96237   0.00000  Uiso   1.00
H635   H     0.36148   0.08197   0.85969   0.00000  Uiso   1.00
O636   O     0.72583   0.53704   0.91973   0.00000  Uiso   1.00
O637   O     0.84025   0.92270   0.04137   0.00000  Uiso   1.00
O638   O     0.24552   0.08725   0.90665   0.00000  Uiso   1.00
N639   N     0.67421   0.45012   0.96169   0.00000  Uiso   1.00
N640   N     0.75576   0.01234   0.04838   0.00000  Uiso   1.00
N641   N     0.33196   0.12958   0.95238   0.00000  Uiso   1.00
N642   N     0.70730   0.42010   0.89855   0.00000  Uiso   1.00
N643   N     0.78885   0.98232   0.98524   0.00000  Uiso   1.00
N644   N     0.36505   0.09956   0.88924   0.00000  Uiso   1.00
C645   C     0.41562   0.79997   0.99303   0.00000  Uiso   1.00
C646   C     0.38279   0.73838   0.96896   0.00000  Uiso   1.00
C647   C     0.37361   0.66987   0.98390   0.00000  Uiso   1.00
C648   C     0.34250   0.62116   0.95704   0.00000  Uiso   1.00
C649   C     0.29470   0.52262   0.92581   0.00000  Uiso   1.00
C650   C     0.36030   0.85903   0.99285   0.00000  Uiso   1.00
C651   C     0.33222   0.89197   0.02788   0.00000  Uiso   1.00
C652   C     0.28219   0.94482   0.02113   0.00000  Uiso   1.00
C653   C     0.19952   0.03363   0.02699   0.00000  Uiso   1.00
C654   C     0.47710   0.82671   0.96639   0.00000  Uiso   1.00
C655   C     0.54723   0.83249   0.97917   0.00000  Uiso   1.00
C656   C     0.59553   0.85815   0.95016   0.00000  Uiso   1.00
C657   C     0.69421   0.89676   0.91494   0.00000  Uiso   1.00
C658   C     0.37671   0.83528   0.91878   0.00000  Uiso   1.00
C659   C     0.36165   0.75756   0.92863   0.00000  Uiso   1.00
C660   C     0.33055   0.70894   0.90174   0.00000  Uiso   1.00
C661   C     0.32133   0.64037   0.91664   0.00000  Uiso   1.00
C662   C     0.33916   0.87821   0.95252   0.00000  Uiso   1.00
C663   C     0.28916   0.93103   0.94572   0.00000  Uiso   1.00
C664   C     0.26101   0.96404   0.98073   0.00000  Uiso   1.00
C665   C     0.45597   0.84589   0.92606   0.00000  Uiso   1.00
C666   C     0.50417   0.87155   0.89702   0.00000  Uiso   1.00
C667   C     0.57435   0.87736   0.90975   0.00000  Uiso   1.00
H668   H     0.43208   0.78505   0.02443   0.00000  Uiso   1.00
H669   H     0.38997   0.65505   0.01511   0.00000  Uiso   1.00
H670   H     0.34859   0.87712   0.05908   0.00000  Uiso   1.00
H671   H     0.56356   0.81764   0.01039   0.00000  Uiso   1.00
H672   H     0.33394   0.51940   0.98700   0.00000  Uiso   1.00
H673   H     0.24671   0.98765   0.07972   0.00000  Uiso   1.00
H674   H     0.70002   0.86223   0.97703   0.00000  Uiso   1.00
H675   H     0.36025   0.85022   0.88737   0.00000  Uiso   1.00
H676   H     0.31420   0.72380   0.87053   0.00000  Uiso   1.00
H677   H     0.27282   0.94586   0.91451   0.00000  Uiso   1.00
H678   H     0.48779   0.88638   0.86581   0.00000  Uiso   1.00
H679   H     0.27244   0.57519   0.86966   0.00000  Uiso   1.00
H680   H     0.18522   0.04345   0.96237   0.00000  Uiso   1.00
H681   H     0.63852   0.91803   0.85969   0.00000  Uiso   1.00
O682   O     0.27417   0.46296   0.91973   0.00000  Uiso   1.00
O683   O     0.15975   0.07730   0.04137   0.00000  Uiso   1.00
O684   O     0.75448   0.91275   0.90665   0.00000  Uiso   1.00
N685   N     0.32579   0.54988   0.96169   0.00000  Uiso   1.00
N686   N     0.24424   0.98766   0.04838   0.00000  Uiso   1.00
N687   N     0.66804   0.87042   0.95238   0.00000  Uiso   1.00
N688   N     0.29270   0.57990   0.89855   0.00000  Uiso   1.00
N689   N     0.21115   0.01768   0.98524   0.00000  Uiso   1.00
N690   N     0.63495   0.90044   0.88924   0.00000  Uiso   1.00
C691   C     0.91562   0.29997   0.49303   0.00000  Uiso   1.00
C692   C     0.88279   0.23838   0.46896   0.00000  Uiso   1.00
C693   C     0.87361   0.16987   0.48390   0.00000  Uiso   1.00
C694   C     0.84250   0.12116   0.45704   0.00000  Uiso   1.00
C695   C     0.79470   0.02262   0.42581   0.00000  Uiso   1.00
C696   C     0.86030   0.35903   0.49285   0.00000  Uiso   1.00
C697   C     0.83222   0.39197   0.52788   0.00000  Uiso   1.00
C698   C     0.78219   0.44482   0.52113   0.00000  Uiso   1.00
C699   C     0.69952   0.53363   0.52699   0.00000  Uiso   1.00
C700   C     0.97710   0.32671   0.46639   0.00000  Uiso   1.00
C701   C     0.04723   0.33249   0.47917   0.00000  Uiso   1.00
C702   C     0.09553   0.35815   0.45016   0.00000  Uiso   1.00
C703   C     0.19421   0.39676   0.41494   0.00000  Uiso   1.00
C704   C     0.87671   0.33528   0.41878   0.00000  Uiso   1.00
C705   C     0.86165   0.25756   0.42863   0.00000  Uiso   1.00
C706   C     0.83055   0.20894   0.40174   0.00000  Uiso   1.00
C707   C     0.82133   0.14037   0.41664   0.00000  Uiso   1.00
C708   C     0.83916   0.37821   0.45252   0.00000  Uiso   1.00
C709   C     0.78916   0.43103   0.44572   0.00000  Uiso   1.00
C710   C     0.76101   0.46404   0.48073   0.00000  Uiso   1.00
C711   C     0.95597   0.34589   0.42606   0.00000  Uiso   1.00
C712   C     0.00417   0.37155   0.39702   0.00000  Uiso   1.00
C713   C     0.07435   0.37736   0.40975   0.00000  Uiso   1.00
H714   H     0.93208   0.28505   0.52443   0.00000  Uiso   1.00
H715   H     0.88997   0.15505   0.51511   0.00000  Uiso   1.00
H716   H     0.84859   0.37712   0.55908   0.00000  Uiso   1.00
H717   H     0.06356   0.31764   0.51039   0.00000  Uiso   1.00
H718   H     0.83394   0.01940   0.48700   0.00000  Uiso   1.00
H719   H     0.74671   0.48765   0.57972   0.00000  Uiso   1.00
H720   H     0.20002   0.36223   0.47703   0.00000  Uiso   1.00
H721   H     0.86025   0.35022   0.38737   0.00000  Uiso   1.00
H722   H     0.81420   0.22380   0.37053   0.00000  Uiso   1.00
H723   H     0.77282   0.44586   0.41451   0.00000  Uiso   1.00
H724   H     0.98779   0.38638   0.36581   0.00000  Uiso   1.00
H725   H     0.77244   0.07519   0.36966   0.00000  Uiso   1.00
H726   H     0.68522   0.54345   0.46237   0.00000  Uiso   1.00
H727   H     0.13852   0.41803   0.35969   0.00000  Uiso   1.00
O728   O     0.77417   0.96296   0.41973   0.00000  Uiso   1.00
O729   O     0.65975   0.57730   0.54137   0.00000  Uiso   1.00
O730   O     0.25448   0.41275   0.40665   0.00000  Uiso   1.00
N731   N     0.82579   0.04988   0.46169   0.00000  Uiso   1.00
N732   N     0.74424   0.48766   0.54838   0.00000  Uiso   1.00
N733   N     0.16804   0.37042   0.45238   0.00000  Uiso   1.00
N734   N     0.79270   0.07990   0.39855   0.00000  Uiso   1.00
N735   N     0.71115   0.51768   0.48524   0.00000  Uiso   1.00
N736   N     0.13495   0.40044   0.38924   0.00000  Uiso   1.00
