data_job_05640
_audit_creation_date              2018-12-19
_audit_creation_method            'Materials Studio'
_symmetry_space_group_name_H-M    'P1'
_symmetry_Int_Tables_number       1
_symmetry_cell_setting            triclinic
loop_
_symmetry_equiv_pos_as_xyz
  x,y,z
_cell_length_a                    16.8608
_cell_length_b                    16.8608
_cell_length_c                    38.7584
_cell_angle_alpha                 90.0000
_cell_angle_beta                  90.0000
_cell_angle_gamma                 90.0000
loop_
_atom_site_label
_atom_site_type_symbol
_atom_site_fract_x
_atom_site_fract_y
_atom_site_fract_z
_atom_site_U_iso_or_equiv
_atom_site_adp_type
_atom_site_occupancy
C1     C     0.07673   0.91107   0.32120   0.00000  Uiso   1.00
C2     C     0.16268   0.93148   0.31275   0.00000  Uiso   1.00
C3     C     0.19654   0.00635   0.31478   0.00000  Uiso   1.00
C4     C     0.27609   0.01272   0.30595   0.00000  Uiso   1.00
C5     C     0.40283   0.05449   0.29441   0.00000  Uiso   1.00
C6     C     0.04302   0.87180   0.28893   0.00000  Uiso   1.00
C7     C     0.97626   0.89649   0.27094   0.00000  Uiso   1.00
C8     C     0.95508   0.85260   0.24207   0.00000  Uiso   1.00
C9     C     0.89601   0.80167   0.19357   0.00000  Uiso   1.00
C10    C     0.08006   0.84644   0.34868   0.00000  Uiso   1.00
C11    C     0.04443   0.84979   0.38092   0.00000  Uiso   1.00
C12    C     0.05441   0.78455   0.40235   0.00000  Uiso   1.00
C13    C     0.05285   0.69425   0.44661   0.00000  Uiso   1.00
C14    C     0.15780   0.78923   0.30190   0.00000  Uiso   1.00
C15    C     0.20670   0.86530   0.30227   0.00000  Uiso   1.00
C16    C     0.28622   0.87155   0.29343   0.00000  Uiso   1.00
C17    C     0.32020   0.94642   0.29545   0.00000  Uiso   1.00
C18    C     0.08704   0.80562   0.27845   0.00000  Uiso   1.00
C19    C     0.06595   0.76169   0.24959   0.00000  Uiso   1.00
C20    C     0.99918   0.78630   0.23157   0.00000  Uiso   1.00
C21    C     0.12409   0.78026   0.33820   0.00000  Uiso   1.00
C22    C     0.13412   0.71500   0.35957   0.00000  Uiso   1.00
C23    C     0.09852   0.71825   0.39184   0.00000  Uiso   1.00
H24    H     0.04245   0.96259   0.32935   0.00000  Uiso   1.00
H25    H     0.16244   0.05756   0.32289   0.00000  Uiso   1.00
H26    H     0.94220   0.94770   0.27906   0.00000  Uiso   1.00
H27    H     0.01036   0.90102   0.38903   0.00000  Uiso   1.00
H28    H     0.31488   0.13366   0.31109   0.00000  Uiso   1.00
H29    H     0.85047   0.90200   0.21869   0.00000  Uiso   1.00
H30    H     0.99420   0.80357   0.45056   0.00000  Uiso   1.00
H31    H     0.19207   0.73771   0.29374   0.00000  Uiso   1.00
H32    H     0.32028   0.82033   0.28532   0.00000  Uiso   1.00
H33    H     0.10003   0.71047   0.24149   0.00000  Uiso   1.00
H34    H     0.16819   0.66379   0.35145   0.00000  Uiso   1.00
H35    H     0.44299   0.94112   0.28060   0.00000  Uiso   1.00
H36    H     0.97857   0.70946   0.18819   0.00000  Uiso   1.00
H37    H     0.12230   0.61103   0.42006   0.00000  Uiso   1.00
O38    O     0.46057   0.09581   0.29094   0.00000  Uiso   1.00
O39    O     0.85126   0.79187   0.16971   0.00000  Uiso   1.00
O40    O     0.03984   0.66273   0.47392   0.00000  Uiso   1.00
N41    N     0.32744   0.07701   0.30508   0.00000  Uiso   1.00
N42    N     0.89325   0.86043   0.21868   0.00000  Uiso   1.00
N43    N     0.02760   0.76839   0.43546   0.00000  Uiso   1.00
N44    N     0.39638   0.97340   0.28867   0.00000  Uiso   1.00
N45    N     0.96218   0.75682   0.20227   0.00000  Uiso   1.00
N46    N     0.09654   0.66478   0.41905   0.00000  Uiso   1.00
C47    C     0.57673   0.41107   0.82120   0.00000  Uiso   1.00
C48    C     0.66268   0.43148   0.81275   0.00000  Uiso   1.00
C49    C     0.69654   0.50635   0.81478   0.00000  Uiso   1.00
C50    C     0.77609   0.51272   0.80595   0.00000  Uiso   1.00
C51    C     0.90283   0.55449   0.79441   0.00000  Uiso   1.00
C52    C     0.54302   0.37180   0.78893   0.00000  Uiso   1.00
C53    C     0.47626   0.39649   0.77094   0.00000  Uiso   1.00
C54    C     0.45508   0.35260   0.74207   0.00000  Uiso   1.00
C55    C     0.39601   0.30167   0.69357   0.00000  Uiso   1.00
C56    C     0.58006   0.34644   0.84868   0.00000  Uiso   1.00
C57    C     0.54443   0.34979   0.88092   0.00000  Uiso   1.00
C58    C     0.55441   0.28455   0.90235   0.00000  Uiso   1.00
C59    C     0.55285   0.19425   0.94661   0.00000  Uiso   1.00
C60    C     0.65780   0.28923   0.80190   0.00000  Uiso   1.00
C61    C     0.70670   0.36530   0.80227   0.00000  Uiso   1.00
C62    C     0.78622   0.37155   0.79343   0.00000  Uiso   1.00
C63    C     0.82020   0.44642   0.79545   0.00000  Uiso   1.00
C64    C     0.58704   0.30562   0.77845   0.00000  Uiso   1.00
C65    C     0.56595   0.26169   0.74959   0.00000  Uiso   1.00
C66    C     0.49918   0.28630   0.73157   0.00000  Uiso   1.00
C67    C     0.62409   0.28026   0.83820   0.00000  Uiso   1.00
C68    C     0.63412   0.21500   0.85957   0.00000  Uiso   1.00
C69    C     0.59852   0.21825   0.89184   0.00000  Uiso   1.00
H70    H     0.54245   0.46259   0.82935   0.00000  Uiso   1.00
H71    H     0.66244   0.55756   0.82289   0.00000  Uiso   1.00
H72    H     0.44220   0.44770   0.77906   0.00000  Uiso   1.00
H73    H     0.51036   0.40102   0.88903   0.00000  Uiso   1.00
H74    H     0.81488   0.63366   0.81109   0.00000  Uiso   1.00
H75    H     0.35047   0.40200   0.71869   0.00000  Uiso   1.00
H76    H     0.49420   0.30357   0.95056   0.00000  Uiso   1.00
H77    H     0.69207   0.23771   0.79374   0.00000  Uiso   1.00
H78    H     0.82028   0.32033   0.78532   0.00000  Uiso   1.00
H79    H     0.60003   0.21047   0.74149   0.00000  Uiso   1.00
H80    H     0.66819   0.16379   0.85145   0.00000  Uiso   1.00
H81    H     0.94299   0.44112   0.78060   0.00000  Uiso   1.00
H82    H     0.47857   0.20946   0.68819   0.00000  Uiso   1.00
H83    H     0.62230   0.11103   0.92006   0.00000  Uiso   1.00
O84    O     0.96057   0.59581   0.79094   0.00000  Uiso   1.00
O85    O     0.35126   0.29187   0.66971   0.00000  Uiso   1.00
O86    O     0.53984   0.16273   0.97392   0.00000  Uiso   1.00
N87    N     0.82744   0.57701   0.80508   0.00000  Uiso   1.00
N88    N     0.39325   0.36043   0.71868   0.00000  Uiso   1.00
N89    N     0.52760   0.26839   0.93546   0.00000  Uiso   1.00
N90    N     0.89638   0.47340   0.78867   0.00000  Uiso   1.00
N91    N     0.46218   0.25682   0.70227   0.00000  Uiso   1.00
N92    N     0.59654   0.16478   0.91905   0.00000  Uiso   1.00
C93    C     0.42327   0.58893   0.82120   0.00000  Uiso   1.00
C94    C     0.33732   0.56852   0.81275   0.00000  Uiso   1.00
C95    C     0.30346   0.49365   0.81478   0.00000  Uiso   1.00
C96    C     0.22391   0.48728   0.80595   0.00000  Uiso   1.00
C97    C     0.09717   0.44551   0.79441   0.00000  Uiso   1.00
C98    C     0.45698   0.62820   0.78893   0.00000  Uiso   1.00
C99    C     0.52374   0.60351   0.77094   0.00000  Uiso   1.00
C100   C     0.54492   0.64740   0.74207   0.00000  Uiso   1.00
C101   C     0.60399   0.69833   0.69357   0.00000  Uiso   1.00
C102   C     0.41994   0.65356   0.84868   0.00000  Uiso   1.00
C103   C     0.45557   0.65021   0.88092   0.00000  Uiso   1.00
C104   C     0.44559   0.71545   0.90235   0.00000  Uiso   1.00
C105   C     0.44715   0.80575   0.94661   0.00000  Uiso   1.00
C106   C     0.34220   0.71077   0.80190   0.00000  Uiso   1.00
C107   C     0.29330   0.63470   0.80227   0.00000  Uiso   1.00
C108   C     0.21378   0.62845   0.79343   0.00000  Uiso   1.00
C109   C     0.17980   0.55358   0.79545   0.00000  Uiso   1.00
C110   C     0.41296   0.69438   0.77845   0.00000  Uiso   1.00
C111   C     0.43405   0.73831   0.74959   0.00000  Uiso   1.00
C112   C     0.50082   0.71370   0.73157   0.00000  Uiso   1.00
C113   C     0.37591   0.71974   0.83820   0.00000  Uiso   1.00
C114   C     0.36588   0.78500   0.85957   0.00000  Uiso   1.00
C115   C     0.40148   0.78175   0.89184   0.00000  Uiso   1.00
H116   H     0.45755   0.53741   0.82935   0.00000  Uiso   1.00
H117   H     0.33756   0.44244   0.82289   0.00000  Uiso   1.00
H118   H     0.55780   0.55230   0.77906   0.00000  Uiso   1.00
H119   H     0.48964   0.59898   0.88903   0.00000  Uiso   1.00
H120   H     0.18512   0.36634   0.81109   0.00000  Uiso   1.00
H121   H     0.64953   0.59800   0.71869   0.00000  Uiso   1.00
H122   H     0.50580   0.69643   0.95056   0.00000  Uiso   1.00
H123   H     0.30793   0.76229   0.79374   0.00000  Uiso   1.00
H124   H     0.17972   0.67967   0.78532   0.00000  Uiso   1.00
H125   H     0.39997   0.78953   0.74149   0.00000  Uiso   1.00
H126   H     0.33181   0.83621   0.85145   0.00000  Uiso   1.00
H127   H     0.05701   0.55888   0.78060   0.00000  Uiso   1.00
H128   H     0.52143   0.79054   0.68819   0.00000  Uiso   1.00
H129   H     0.37770   0.88897   0.92006   0.00000  Uiso   1.00
O130   O     0.03943   0.40419   0.79094   0.00000  Uiso   1.00
O131   O     0.64874   0.70813   0.66971   0.00000  Uiso   1.00
O132   O     0.46016   0.83727   0.97392   0.00000  Uiso   1.00
N133   N     0.17256   0.42299   0.80508   0.00000  Uiso   1.00
N134   N     0.60675   0.63957   0.71868   0.00000  Uiso   1.00
N135   N     0.47240   0.73161   0.93546   0.00000  Uiso   1.00
N136   N     0.10362   0.52660   0.78867   0.00000  Uiso   1.00
N137   N     0.53782   0.74318   0.70227   0.00000  Uiso   1.00
N138   N     0.40346   0.83522   0.91905   0.00000  Uiso   1.00
C139   C     0.92327   0.08893   0.32120   0.00000  Uiso   1.00
C140   C     0.83732   0.06852   0.31275   0.00000  Uiso   1.00
C141   C     0.80346   0.99365   0.31478   0.00000  Uiso   1.00
C142   C     0.72391   0.98728   0.30595   0.00000  Uiso   1.00
C143   C     0.59717   0.94551   0.29441   0.00000  Uiso   1.00
C144   C     0.95698   0.12820   0.28893   0.00000  Uiso   1.00
C145   C     0.02374   0.10351   0.27094   0.00000  Uiso   1.00
C146   C     0.04492   0.14740   0.24207   0.00000  Uiso   1.00
C147   C     0.10399   0.19833   0.19357   0.00000  Uiso   1.00
C148   C     0.91994   0.15356   0.34868   0.00000  Uiso   1.00
C149   C     0.95557   0.15021   0.38092   0.00000  Uiso   1.00
C150   C     0.94559   0.21545   0.40235   0.00000  Uiso   1.00
C151   C     0.94715   0.30575   0.44661   0.00000  Uiso   1.00
C152   C     0.84220   0.21077   0.30190   0.00000  Uiso   1.00
C153   C     0.79330   0.13470   0.30227   0.00000  Uiso   1.00
C154   C     0.71378   0.12845   0.29343   0.00000  Uiso   1.00
C155   C     0.67980   0.05358   0.29545   0.00000  Uiso   1.00
C156   C     0.91296   0.19438   0.27845   0.00000  Uiso   1.00
C157   C     0.93405   0.23831   0.24959   0.00000  Uiso   1.00
C158   C     0.00082   0.21370   0.23157   0.00000  Uiso   1.00
C159   C     0.87591   0.21974   0.33820   0.00000  Uiso   1.00
C160   C     0.86588   0.28500   0.35957   0.00000  Uiso   1.00
C161   C     0.90148   0.28175   0.39184   0.00000  Uiso   1.00
H162   H     0.95755   0.03741   0.32935   0.00000  Uiso   1.00
H163   H     0.83756   0.94244   0.32289   0.00000  Uiso   1.00
H164   H     0.05780   0.05230   0.27906   0.00000  Uiso   1.00
H165   H     0.98964   0.09898   0.38903   0.00000  Uiso   1.00
H166   H     0.68512   0.86634   0.31109   0.00000  Uiso   1.00
H167   H     0.14953   0.09800   0.21869   0.00000  Uiso   1.00
H168   H     0.00580   0.19643   0.45056   0.00000  Uiso   1.00
H169   H     0.80793   0.26229   0.29374   0.00000  Uiso   1.00
H170   H     0.67972   0.17967   0.28532   0.00000  Uiso   1.00
H171   H     0.89997   0.28953   0.24149   0.00000  Uiso   1.00
H172   H     0.83181   0.33621   0.35145   0.00000  Uiso   1.00
H173   H     0.55701   0.05888   0.28060   0.00000  Uiso   1.00
H174   H     0.02143   0.29054   0.18819   0.00000  Uiso   1.00
H175   H     0.87770   0.38897   0.42006   0.00000  Uiso   1.00
O176   O     0.53943   0.90419   0.29094   0.00000  Uiso   1.00
O177   O     0.14874   0.20813   0.16971   0.00000  Uiso   1.00
O178   O     0.96016   0.33727   0.47392   0.00000  Uiso   1.00
N179   N     0.67256   0.92299   0.30508   0.00000  Uiso   1.00
N180   N     0.10675   0.13957   0.21868   0.00000  Uiso   1.00
N181   N     0.97240   0.23161   0.43546   0.00000  Uiso   1.00
N182   N     0.60362   0.02660   0.28867   0.00000  Uiso   1.00
N183   N     0.03782   0.24318   0.20227   0.00000  Uiso   1.00
N184   N     0.90346   0.33522   0.41905   0.00000  Uiso   1.00
C185   C     0.08893   0.57673   0.57120   0.00000  Uiso   1.00
C186   C     0.06852   0.66268   0.56275   0.00000  Uiso   1.00
C187   C     0.99365   0.69654   0.56478   0.00000  Uiso   1.00
C188   C     0.98728   0.77609   0.55595   0.00000  Uiso   1.00
C189   C     0.94551   0.90283   0.54441   0.00000  Uiso   1.00
C190   C     0.12820   0.54302   0.53893   0.00000  Uiso   1.00
C191   C     0.10351   0.47626   0.52094   0.00000  Uiso   1.00
C192   C     0.14740   0.45508   0.49207   0.00000  Uiso   1.00
C193   C     0.19833   0.39601   0.44357   0.00000  Uiso   1.00
C194   C     0.15356   0.58006   0.59868   0.00000  Uiso   1.00
C195   C     0.15021   0.54443   0.63092   0.00000  Uiso   1.00
C196   C     0.21545   0.55441   0.65235   0.00000  Uiso   1.00
C197   C     0.30575   0.55285   0.69661   0.00000  Uiso   1.00
C198   C     0.21077   0.65780   0.55190   0.00000  Uiso   1.00
C199   C     0.13470   0.70670   0.55227   0.00000  Uiso   1.00
C200   C     0.12845   0.78622   0.54343   0.00000  Uiso   1.00
C201   C     0.05358   0.82020   0.54545   0.00000  Uiso   1.00
C202   C     0.19438   0.58704   0.52845   0.00000  Uiso   1.00
C203   C     0.23831   0.56595   0.49959   0.00000  Uiso   1.00
C204   C     0.21370   0.49918   0.48157   0.00000  Uiso   1.00
C205   C     0.21974   0.62409   0.58820   0.00000  Uiso   1.00
C206   C     0.28500   0.63412   0.60957   0.00000  Uiso   1.00
C207   C     0.28175   0.59852   0.64184   0.00000  Uiso   1.00
H208   H     0.03741   0.54245   0.57935   0.00000  Uiso   1.00
H209   H     0.94244   0.66244   0.57289   0.00000  Uiso   1.00
H210   H     0.05230   0.44220   0.52906   0.00000  Uiso   1.00
H211   H     0.09898   0.51036   0.63903   0.00000  Uiso   1.00
H212   H     0.86634   0.81488   0.56109   0.00000  Uiso   1.00
H213   H     0.09800   0.35047   0.46869   0.00000  Uiso   1.00
H214   H     0.19643   0.49420   0.70056   0.00000  Uiso   1.00
H215   H     0.26229   0.69207   0.54374   0.00000  Uiso   1.00
H216   H     0.17967   0.82028   0.53532   0.00000  Uiso   1.00
H217   H     0.28953   0.60003   0.49149   0.00000  Uiso   1.00
H218   H     0.33621   0.66819   0.60145   0.00000  Uiso   1.00
H219   H     0.05888   0.94299   0.53060   0.00000  Uiso   1.00
H220   H     0.29054   0.47857   0.43819   0.00000  Uiso   1.00
H221   H     0.38897   0.62230   0.67006   0.00000  Uiso   1.00
O222   O     0.90419   0.96057   0.54094   0.00000  Uiso   1.00
O223   O     0.20813   0.35126   0.41971   0.00000  Uiso   1.00
O224   O     0.33727   0.53984   0.72392   0.00000  Uiso   1.00
N225   N     0.92299   0.82744   0.55508   0.00000  Uiso   1.00
N226   N     0.13957   0.39325   0.46868   0.00000  Uiso   1.00
N227   N     0.23161   0.52760   0.68546   0.00000  Uiso   1.00
N228   N     0.02660   0.89638   0.53867   0.00000  Uiso   1.00
N229   N     0.24318   0.46218   0.45227   0.00000  Uiso   1.00
N230   N     0.33522   0.59654   0.66905   0.00000  Uiso   1.00
C231   C     0.58893   0.07673   0.07120   0.00000  Uiso   1.00
C232   C     0.56852   0.16268   0.06275   0.00000  Uiso   1.00
C233   C     0.49365   0.19654   0.06478   0.00000  Uiso   1.00
C234   C     0.48728   0.27609   0.05595   0.00000  Uiso   1.00
C235   C     0.44551   0.40283   0.04441   0.00000  Uiso   1.00
C236   C     0.62820   0.04302   0.03893   0.00000  Uiso   1.00
C237   C     0.60351   0.97626   0.02094   0.00000  Uiso   1.00
C238   C     0.64740   0.95508   0.99207   0.00000  Uiso   1.00
C239   C     0.69833   0.89601   0.94357   0.00000  Uiso   1.00
C240   C     0.65356   0.08006   0.09868   0.00000  Uiso   1.00
C241   C     0.65021   0.04443   0.13092   0.00000  Uiso   1.00
C242   C     0.71545   0.05441   0.15235   0.00000  Uiso   1.00
C243   C     0.80575   0.05285   0.19661   0.00000  Uiso   1.00
C244   C     0.71077   0.15780   0.05190   0.00000  Uiso   1.00
C245   C     0.63470   0.20670   0.05227   0.00000  Uiso   1.00
C246   C     0.62845   0.28622   0.04343   0.00000  Uiso   1.00
C247   C     0.55358   0.32020   0.04545   0.00000  Uiso   1.00
C248   C     0.69438   0.08704   0.02845   0.00000  Uiso   1.00
C249   C     0.73831   0.06595   0.99959   0.00000  Uiso   1.00
C250   C     0.71370   0.99918   0.98157   0.00000  Uiso   1.00
C251   C     0.71974   0.12409   0.08820   0.00000  Uiso   1.00
C252   C     0.78500   0.13412   0.10957   0.00000  Uiso   1.00
C253   C     0.78175   0.09852   0.14184   0.00000  Uiso   1.00
H254   H     0.53741   0.04245   0.07935   0.00000  Uiso   1.00
H255   H     0.44244   0.16244   0.07289   0.00000  Uiso   1.00
H256   H     0.55230   0.94220   0.02906   0.00000  Uiso   1.00
H257   H     0.59898   0.01036   0.13903   0.00000  Uiso   1.00
H258   H     0.36634   0.31488   0.06109   0.00000  Uiso   1.00
H259   H     0.59800   0.85047   0.96869   0.00000  Uiso   1.00
H260   H     0.69643   0.99420   0.20056   0.00000  Uiso   1.00
H261   H     0.76229   0.19207   0.04374   0.00000  Uiso   1.00
H262   H     0.67967   0.32028   0.03532   0.00000  Uiso   1.00
H263   H     0.78953   0.10003   0.99149   0.00000  Uiso   1.00
H264   H     0.83621   0.16819   0.10145   0.00000  Uiso   1.00
H265   H     0.55888   0.44299   0.03060   0.00000  Uiso   1.00
H266   H     0.79054   0.97857   0.93819   0.00000  Uiso   1.00
H267   H     0.88897   0.12230   0.17006   0.00000  Uiso   1.00
O268   O     0.40419   0.46057   0.04094   0.00000  Uiso   1.00
O269   O     0.70813   0.85126   0.91971   0.00000  Uiso   1.00
O270   O     0.83727   0.03984   0.22392   0.00000  Uiso   1.00
N271   N     0.42299   0.32744   0.05508   0.00000  Uiso   1.00
N272   N     0.63957   0.89325   0.96868   0.00000  Uiso   1.00
N273   N     0.73161   0.02760   0.18546   0.00000  Uiso   1.00
N274   N     0.52660   0.39638   0.03867   0.00000  Uiso   1.00
N275   N     0.74318   0.96218   0.95227   0.00000  Uiso   1.00
N276   N     0.83522   0.09654   0.16905   0.00000  Uiso   1.00
C277   C     0.41107   0.92327   0.07120   0.00000  Uiso   1.00
C278   C     0.43148   0.83732   0.06275   0.00000  Uiso   1.00
C279   C     0.50635   0.80346   0.06478   0.00000  Uiso   1.00
C280   C     0.51272   0.72391   0.05595   0.00000  Uiso   1.00
C281   C     0.55449   0.59717   0.04441   0.00000  Uiso   1.00
C282   C     0.37180   0.95698   0.03893   0.00000  Uiso   1.00
C283   C     0.39649   0.02374   0.02094   0.00000  Uiso   1.00
C284   C     0.35260   0.04492   0.99207   0.00000  Uiso   1.00
C285   C     0.30167   0.10399   0.94357   0.00000  Uiso   1.00
C286   C     0.34644   0.91994   0.09868   0.00000  Uiso   1.00
C287   C     0.34979   0.95557   0.13092   0.00000  Uiso   1.00
C288   C     0.28455   0.94559   0.15235   0.00000  Uiso   1.00
C289   C     0.19425   0.94715   0.19661   0.00000  Uiso   1.00
C290   C     0.28923   0.84220   0.05190   0.00000  Uiso   1.00
C291   C     0.36530   0.79330   0.05227   0.00000  Uiso   1.00
C292   C     0.37155   0.71378   0.04343   0.00000  Uiso   1.00
C293   C     0.44642   0.67980   0.04545   0.00000  Uiso   1.00
C294   C     0.30562   0.91296   0.02845   0.00000  Uiso   1.00
C295   C     0.26169   0.93405   0.99959   0.00000  Uiso   1.00
C296   C     0.28630   0.00082   0.98157   0.00000  Uiso   1.00
C297   C     0.28026   0.87591   0.08820   0.00000  Uiso   1.00
C298   C     0.21500   0.86588   0.10957   0.00000  Uiso   1.00
C299   C     0.21825   0.90148   0.14184   0.00000  Uiso   1.00
H300   H     0.46259   0.95755   0.07935   0.00000  Uiso   1.00
H301   H     0.55756   0.83756   0.07289   0.00000  Uiso   1.00
H302   H     0.44770   0.05780   0.02906   0.00000  Uiso   1.00
H303   H     0.40102   0.98964   0.13903   0.00000  Uiso   1.00
H304   H     0.63366   0.68512   0.06109   0.00000  Uiso   1.00
H305   H     0.40200   0.14953   0.96869   0.00000  Uiso   1.00
H306   H     0.30357   0.00580   0.20056   0.00000  Uiso   1.00
H307   H     0.23771   0.80793   0.04374   0.00000  Uiso   1.00
H308   H     0.32033   0.67972   0.03532   0.00000  Uiso   1.00
H309   H     0.21047   0.89997   0.99149   0.00000  Uiso   1.00
H310   H     0.16379   0.83181   0.10145   0.00000  Uiso   1.00
H311   H     0.44112   0.55701   0.03060   0.00000  Uiso   1.00
H312   H     0.20946   0.02143   0.93819   0.00000  Uiso   1.00
H313   H     0.11103   0.87770   0.17006   0.00000  Uiso   1.00
O314   O     0.59581   0.53943   0.04094   0.00000  Uiso   1.00
O315   O     0.29187   0.14874   0.91971   0.00000  Uiso   1.00
O316   O     0.16273   0.96016   0.22392   0.00000  Uiso   1.00
N317   N     0.57701   0.67256   0.05508   0.00000  Uiso   1.00
N318   N     0.36043   0.10675   0.96868   0.00000  Uiso   1.00
N319   N     0.26839   0.97240   0.18546   0.00000  Uiso   1.00
N320   N     0.47340   0.60362   0.03867   0.00000  Uiso   1.00
N321   N     0.25682   0.03782   0.95227   0.00000  Uiso   1.00
N322   N     0.16478   0.90346   0.16905   0.00000  Uiso   1.00
C323   C     0.91107   0.42327   0.57120   0.00000  Uiso   1.00
C324   C     0.93148   0.33732   0.56275   0.00000  Uiso   1.00
C325   C     0.00635   0.30346   0.56478   0.00000  Uiso   1.00
C326   C     0.01272   0.22391   0.55595   0.00000  Uiso   1.00
C327   C     0.05449   0.09717   0.54441   0.00000  Uiso   1.00
C328   C     0.87180   0.45698   0.53893   0.00000  Uiso   1.00
C329   C     0.89649   0.52374   0.52094   0.00000  Uiso   1.00
C330   C     0.85260   0.54492   0.49207   0.00000  Uiso   1.00
C331   C     0.80167   0.60399   0.44357   0.00000  Uiso   1.00
C332   C     0.84644   0.41994   0.59868   0.00000  Uiso   1.00
C333   C     0.84979   0.45557   0.63092   0.00000  Uiso   1.00
C334   C     0.78455   0.44559   0.65235   0.00000  Uiso   1.00
C335   C     0.69425   0.44715   0.69661   0.00000  Uiso   1.00
C336   C     0.78923   0.34220   0.55190   0.00000  Uiso   1.00
C337   C     0.86530   0.29330   0.55227   0.00000  Uiso   1.00
C338   C     0.87155   0.21378   0.54343   0.00000  Uiso   1.00
C339   C     0.94642   0.17980   0.54545   0.00000  Uiso   1.00
C340   C     0.80562   0.41296   0.52845   0.00000  Uiso   1.00
C341   C     0.76169   0.43405   0.49959   0.00000  Uiso   1.00
C342   C     0.78630   0.50082   0.48157   0.00000  Uiso   1.00
C343   C     0.78026   0.37591   0.58820   0.00000  Uiso   1.00
C344   C     0.71500   0.36588   0.60957   0.00000  Uiso   1.00
C345   C     0.71825   0.40148   0.64184   0.00000  Uiso   1.00
H346   H     0.96259   0.45755   0.57935   0.00000  Uiso   1.00
H347   H     0.05756   0.33756   0.57289   0.00000  Uiso   1.00
H348   H     0.94770   0.55780   0.52906   0.00000  Uiso   1.00
H349   H     0.90102   0.48964   0.63903   0.00000  Uiso   1.00
H350   H     0.13366   0.18512   0.56109   0.00000  Uiso   1.00
H351   H     0.90200   0.64953   0.46869   0.00000  Uiso   1.00
H352   H     0.80357   0.50580   0.70056   0.00000  Uiso   1.00
H353   H     0.73771   0.30793   0.54374   0.00000  Uiso   1.00
H354   H     0.82033   0.17972   0.53532   0.00000  Uiso   1.00
H355   H     0.71047   0.39997   0.49149   0.00000  Uiso   1.00
H356   H     0.66379   0.33181   0.60145   0.00000  Uiso   1.00
H357   H     0.94112   0.05701   0.53060   0.00000  Uiso   1.00
H358   H     0.70946   0.52143   0.43819   0.00000  Uiso   1.00
H359   H     0.61103   0.37770   0.67006   0.00000  Uiso   1.00
O360   O     0.09581   0.03943   0.54094   0.00000  Uiso   1.00
O361   O     0.79187   0.64874   0.41971   0.00000  Uiso   1.00
O362   O     0.66273   0.46016   0.72392   0.00000  Uiso   1.00
N363   N     0.07701   0.17256   0.55508   0.00000  Uiso   1.00
N364   N     0.86043   0.60675   0.46868   0.00000  Uiso   1.00
N365   N     0.76839   0.47240   0.68546   0.00000  Uiso   1.00
N366   N     0.97340   0.10362   0.53867   0.00000  Uiso   1.00
N367   N     0.75682   0.53782   0.45227   0.00000  Uiso   1.00
N368   N     0.66478   0.40346   0.66905   0.00000  Uiso   1.00
C369   C     0.42327   0.91107   0.42880   0.00000  Uiso   1.00
C370   C     0.33732   0.93148   0.43725   0.00000  Uiso   1.00
C371   C     0.30346   0.00635   0.43522   0.00000  Uiso   1.00
C372   C     0.22391   0.01272   0.44405   0.00000  Uiso   1.00
C373   C     0.09717   0.05449   0.45559   0.00000  Uiso   1.00
C374   C     0.45698   0.87180   0.46107   0.00000  Uiso   1.00
C375   C     0.52374   0.89649   0.47906   0.00000  Uiso   1.00
C376   C     0.54492   0.85260   0.50793   0.00000  Uiso   1.00
C377   C     0.60399   0.80167   0.55643   0.00000  Uiso   1.00
C378   C     0.41994   0.84644   0.40132   0.00000  Uiso   1.00
C379   C     0.45557   0.84979   0.36908   0.00000  Uiso   1.00
C380   C     0.44559   0.78455   0.34765   0.00000  Uiso   1.00
C381   C     0.44715   0.69425   0.30339   0.00000  Uiso   1.00
C382   C     0.34220   0.78923   0.44810   0.00000  Uiso   1.00
C383   C     0.29330   0.86530   0.44773   0.00000  Uiso   1.00
C384   C     0.21378   0.87155   0.45657   0.00000  Uiso   1.00
C385   C     0.17980   0.94642   0.45455   0.00000  Uiso   1.00
C386   C     0.41296   0.80562   0.47155   0.00000  Uiso   1.00
C387   C     0.43405   0.76169   0.50041   0.00000  Uiso   1.00
C388   C     0.50082   0.78630   0.51843   0.00000  Uiso   1.00
C389   C     0.37591   0.78026   0.41180   0.00000  Uiso   1.00
C390   C     0.36588   0.71500   0.39043   0.00000  Uiso   1.00
C391   C     0.40148   0.71825   0.35816   0.00000  Uiso   1.00
H392   H     0.45755   0.96259   0.42065   0.00000  Uiso   1.00
H393   H     0.33756   0.05756   0.42711   0.00000  Uiso   1.00
H394   H     0.55780   0.94770   0.47094   0.00000  Uiso   1.00
H395   H     0.48964   0.90102   0.36097   0.00000  Uiso   1.00
H396   H     0.18512   0.13366   0.43891   0.00000  Uiso   1.00
H397   H     0.64953   0.90200   0.53131   0.00000  Uiso   1.00
H398   H     0.50580   0.80357   0.29944   0.00000  Uiso   1.00
H399   H     0.30793   0.73771   0.45626   0.00000  Uiso   1.00
H400   H     0.17972   0.82033   0.46468   0.00000  Uiso   1.00
H401   H     0.39997   0.71047   0.50851   0.00000  Uiso   1.00
H402   H     0.33181   0.66379   0.39855   0.00000  Uiso   1.00
H403   H     0.05701   0.94112   0.46940   0.00000  Uiso   1.00
H404   H     0.52143   0.70946   0.56181   0.00000  Uiso   1.00
H405   H     0.37770   0.61103   0.32994   0.00000  Uiso   1.00
O406   O     0.03943   0.09581   0.45906   0.00000  Uiso   1.00
O407   O     0.64874   0.79187   0.58029   0.00000  Uiso   1.00
O408   O     0.46016   0.66273   0.27608   0.00000  Uiso   1.00
N409   N     0.17256   0.07701   0.44492   0.00000  Uiso   1.00
N410   N     0.60675   0.86043   0.53132   0.00000  Uiso   1.00
N411   N     0.47240   0.76839   0.31454   0.00000  Uiso   1.00
N412   N     0.10362   0.97340   0.46133   0.00000  Uiso   1.00
N413   N     0.53782   0.75682   0.54773   0.00000  Uiso   1.00
N414   N     0.40346   0.66478   0.33095   0.00000  Uiso   1.00
C415   C     0.92327   0.41107   0.92880   0.00000  Uiso   1.00
C416   C     0.83732   0.43148   0.93725   0.00000  Uiso   1.00
C417   C     0.80346   0.50635   0.93522   0.00000  Uiso   1.00
C418   C     0.72391   0.51272   0.94405   0.00000  Uiso   1.00
C419   C     0.59717   0.55449   0.95559   0.00000  Uiso   1.00
C420   C     0.95698   0.37180   0.96107   0.00000  Uiso   1.00
C421   C     0.02374   0.39649   0.97906   0.00000  Uiso   1.00
C422   C     0.04492   0.35260   0.00793   0.00000  Uiso   1.00
C423   C     0.10399   0.30167   0.05643   0.00000  Uiso   1.00
C424   C     0.91994   0.34644   0.90132   0.00000  Uiso   1.00
C425   C     0.95557   0.34979   0.86908   0.00000  Uiso   1.00
C426   C     0.94559   0.28455   0.84765   0.00000  Uiso   1.00
C427   C     0.94715   0.19425   0.80339   0.00000  Uiso   1.00
C428   C     0.84220   0.28923   0.94810   0.00000  Uiso   1.00
C429   C     0.79330   0.36530   0.94773   0.00000  Uiso   1.00
C430   C     0.71378   0.37155   0.95657   0.00000  Uiso   1.00
C431   C     0.67980   0.44642   0.95455   0.00000  Uiso   1.00
C432   C     0.91296   0.30562   0.97155   0.00000  Uiso   1.00
C433   C     0.93405   0.26169   0.00041   0.00000  Uiso   1.00
C434   C     0.00082   0.28630   0.01843   0.00000  Uiso   1.00
C435   C     0.87591   0.28026   0.91180   0.00000  Uiso   1.00
C436   C     0.86588   0.21500   0.89043   0.00000  Uiso   1.00
C437   C     0.90148   0.21825   0.85816   0.00000  Uiso   1.00
H438   H     0.95755   0.46259   0.92065   0.00000  Uiso   1.00
H439   H     0.83756   0.55756   0.92711   0.00000  Uiso   1.00
H440   H     0.05780   0.44770   0.97094   0.00000  Uiso   1.00
H441   H     0.98964   0.40102   0.86097   0.00000  Uiso   1.00
H442   H     0.68512   0.63366   0.93891   0.00000  Uiso   1.00
H443   H     0.14953   0.40200   0.03131   0.00000  Uiso   1.00
H444   H     0.00580   0.30357   0.79944   0.00000  Uiso   1.00
H445   H     0.80793   0.23771   0.95626   0.00000  Uiso   1.00
H446   H     0.67972   0.32033   0.96468   0.00000  Uiso   1.00
H447   H     0.89997   0.21047   0.00851   0.00000  Uiso   1.00
H448   H     0.83181   0.16379   0.89855   0.00000  Uiso   1.00
H449   H     0.55701   0.44112   0.96940   0.00000  Uiso   1.00
H450   H     0.02143   0.20946   0.06181   0.00000  Uiso   1.00
H451   H     0.87770   0.11103   0.82994   0.00000  Uiso   1.00
O452   O     0.53943   0.59581   0.95906   0.00000  Uiso   1.00
O453   O     0.14874   0.29187   0.08029   0.00000  Uiso   1.00
O454   O     0.96016   0.16273   0.77608   0.00000  Uiso   1.00
N455   N     0.67256   0.57701   0.94492   0.00000  Uiso   1.00
N456   N     0.10675   0.36043   0.03132   0.00000  Uiso   1.00
N457   N     0.97240   0.26839   0.81454   0.00000  Uiso   1.00
N458   N     0.60362   0.47340   0.96133   0.00000  Uiso   1.00
N459   N     0.03782   0.25682   0.04773   0.00000  Uiso   1.00
N460   N     0.90346   0.16478   0.83095   0.00000  Uiso   1.00
C461   C     0.07673   0.58893   0.92880   0.00000  Uiso   1.00
C462   C     0.16268   0.56852   0.93725   0.00000  Uiso   1.00
C463   C     0.19654   0.49365   0.93522   0.00000  Uiso   1.00
C464   C     0.27609   0.48728   0.94405   0.00000  Uiso   1.00
C465   C     0.40283   0.44551   0.95559   0.00000  Uiso   1.00
C466   C     0.04302   0.62820   0.96107   0.00000  Uiso   1.00
C467   C     0.97626   0.60351   0.97906   0.00000  Uiso   1.00
C468   C     0.95508   0.64740   0.00793   0.00000  Uiso   1.00
C469   C     0.89601   0.69833   0.05643   0.00000  Uiso   1.00
C470   C     0.08006   0.65356   0.90132   0.00000  Uiso   1.00
C471   C     0.04443   0.65021   0.86908   0.00000  Uiso   1.00
C472   C     0.05441   0.71545   0.84765   0.00000  Uiso   1.00
C473   C     0.05285   0.80575   0.80339   0.00000  Uiso   1.00
C474   C     0.15780   0.71077   0.94810   0.00000  Uiso   1.00
C475   C     0.20670   0.63470   0.94773   0.00000  Uiso   1.00
C476   C     0.28622   0.62845   0.95657   0.00000  Uiso   1.00
C477   C     0.32020   0.55358   0.95455   0.00000  Uiso   1.00
C478   C     0.08704   0.69438   0.97155   0.00000  Uiso   1.00
C479   C     0.06595   0.73831   0.00041   0.00000  Uiso   1.00
C480   C     0.99918   0.71370   0.01843   0.00000  Uiso   1.00
C481   C     0.12409   0.71974   0.91180   0.00000  Uiso   1.00
C482   C     0.13412   0.78500   0.89043   0.00000  Uiso   1.00
C483   C     0.09852   0.78175   0.85816   0.00000  Uiso   1.00
H484   H     0.04245   0.53741   0.92065   0.00000  Uiso   1.00
H485   H     0.16244   0.44244   0.92711   0.00000  Uiso   1.00
H486   H     0.94220   0.55230   0.97094   0.00000  Uiso   1.00
H487   H     0.01036   0.59898   0.86097   0.00000  Uiso   1.00
H488   H     0.31488   0.36634   0.93891   0.00000  Uiso   1.00
H489   H     0.85047   0.59800   0.03131   0.00000  Uiso   1.00
H490   H     0.99420   0.69643   0.79944   0.00000  Uiso   1.00
H491   H     0.19207   0.76229   0.95626   0.00000  Uiso   1.00
H492   H     0.32028   0.67967   0.96468   0.00000  Uiso   1.00
H493   H     0.10003   0.78953   0.00851   0.00000  Uiso   1.00
H494   H     0.16819   0.83621   0.89855   0.00000  Uiso   1.00
H495   H     0.44299   0.55888   0.96940   0.00000  Uiso   1.00
H496   H     0.97857   0.79054   0.06181   0.00000  Uiso   1.00
H497   H     0.12230   0.88897   0.82994   0.00000  Uiso   1.00
O498   O     0.46057   0.40419   0.95906   0.00000  Uiso   1.00
O499   O     0.85126   0.70813   0.08029   0.00000  Uiso   1.00
O500   O     0.03984   0.83727   0.77608   0.00000  Uiso   1.00
N501   N     0.32744   0.42299   0.94492   0.00000  Uiso   1.00
N502   N     0.89325   0.63957   0.03132   0.00000  Uiso   1.00
N503   N     0.02760   0.73161   0.81454   0.00000  Uiso   1.00
N504   N     0.39638   0.52660   0.96133   0.00000  Uiso   1.00
N505   N     0.96218   0.74318   0.04773   0.00000  Uiso   1.00
N506   N     0.09654   0.83522   0.83095   0.00000  Uiso   1.00
C507   C     0.57673   0.08893   0.42880   0.00000  Uiso   1.00
C508   C     0.66268   0.06852   0.43725   0.00000  Uiso   1.00
C509   C     0.69654   0.99365   0.43522   0.00000  Uiso   1.00
C510   C     0.77609   0.98728   0.44405   0.00000  Uiso   1.00
C511   C     0.90283   0.94551   0.45559   0.00000  Uiso   1.00
C512   C     0.54302   0.12820   0.46107   0.00000  Uiso   1.00
C513   C     0.47626   0.10351   0.47906   0.00000  Uiso   1.00
C514   C     0.45508   0.14740   0.50793   0.00000  Uiso   1.00
C515   C     0.39601   0.19833   0.55643   0.00000  Uiso   1.00
C516   C     0.58006   0.15356   0.40132   0.00000  Uiso   1.00
C517   C     0.54443   0.15021   0.36908   0.00000  Uiso   1.00
C518   C     0.55441   0.21545   0.34765   0.00000  Uiso   1.00
C519   C     0.55285   0.30575   0.30339   0.00000  Uiso   1.00
C520   C     0.65780   0.21077   0.44810   0.00000  Uiso   1.00
C521   C     0.70670   0.13470   0.44773   0.00000  Uiso   1.00
C522   C     0.78622   0.12845   0.45657   0.00000  Uiso   1.00
C523   C     0.82020   0.05358   0.45455   0.00000  Uiso   1.00
C524   C     0.58704   0.19438   0.47155   0.00000  Uiso   1.00
C525   C     0.56595   0.23831   0.50041   0.00000  Uiso   1.00
C526   C     0.49918   0.21370   0.51843   0.00000  Uiso   1.00
C527   C     0.62409   0.21974   0.41180   0.00000  Uiso   1.00
C528   C     0.63412   0.28500   0.39043   0.00000  Uiso   1.00
C529   C     0.59852   0.28175   0.35816   0.00000  Uiso   1.00
H530   H     0.54245   0.03741   0.42065   0.00000  Uiso   1.00
H531   H     0.66244   0.94244   0.42711   0.00000  Uiso   1.00
H532   H     0.44220   0.05230   0.47094   0.00000  Uiso   1.00
H533   H     0.51036   0.09898   0.36097   0.00000  Uiso   1.00
H534   H     0.81488   0.86634   0.43891   0.00000  Uiso   1.00
H535   H     0.35047   0.09800   0.53131   0.00000  Uiso   1.00
H536   H     0.49420   0.19643   0.29944   0.00000  Uiso   1.00
H537   H     0.69207   0.26229   0.45626   0.00000  Uiso   1.00
H538   H     0.82028   0.17967   0.46468   0.00000  Uiso   1.00
H539   H     0.60003   0.28953   0.50851   0.00000  Uiso   1.00
H540   H     0.66819   0.33621   0.39855   0.00000  Uiso   1.00
H541   H     0.94299   0.05888   0.46940   0.00000  Uiso   1.00
H542   H     0.47857   0.29054   0.56181   0.00000  Uiso   1.00
H543   H     0.62230   0.38897   0.32994   0.00000  Uiso   1.00
O544   O     0.96057   0.90419   0.45906   0.00000  Uiso   1.00
O545   O     0.35126   0.20813   0.58029   0.00000  Uiso   1.00
O546   O     0.53984   0.33727   0.27608   0.00000  Uiso   1.00
N547   N     0.82744   0.92299   0.44492   0.00000  Uiso   1.00
N548   N     0.39325   0.13957   0.53132   0.00000  Uiso   1.00
N549   N     0.52760   0.23161   0.31454   0.00000  Uiso   1.00
N550   N     0.89638   0.02660   0.46133   0.00000  Uiso   1.00
N551   N     0.46218   0.24318   0.54773   0.00000  Uiso   1.00
N552   N     0.59654   0.33522   0.33095   0.00000  Uiso   1.00
C553   C     0.41107   0.57673   0.17880   0.00000  Uiso   1.00
C554   C     0.43148   0.66268   0.18725   0.00000  Uiso   1.00
C555   C     0.50635   0.69654   0.18522   0.00000  Uiso   1.00
C556   C     0.51272   0.77609   0.19405   0.00000  Uiso   1.00
C557   C     0.55449   0.90283   0.20559   0.00000  Uiso   1.00
C558   C     0.37180   0.54302   0.21107   0.00000  Uiso   1.00
C559   C     0.39649   0.47626   0.22906   0.00000  Uiso   1.00
C560   C     0.35260   0.45508   0.25793   0.00000  Uiso   1.00
C561   C     0.30167   0.39601   0.30643   0.00000  Uiso   1.00
C562   C     0.34644   0.58006   0.15132   0.00000  Uiso   1.00
C563   C     0.34979   0.54443   0.11908   0.00000  Uiso   1.00
C564   C     0.28455   0.55441   0.09765   0.00000  Uiso   1.00
C565   C     0.19425   0.55285   0.05339   0.00000  Uiso   1.00
C566   C     0.28923   0.65780   0.19810   0.00000  Uiso   1.00
C567   C     0.36530   0.70670   0.19773   0.00000  Uiso   1.00
C568   C     0.37155   0.78622   0.20657   0.00000  Uiso   1.00
C569   C     0.44642   0.82020   0.20455   0.00000  Uiso   1.00
C570   C     0.30562   0.58704   0.22155   0.00000  Uiso   1.00
C571   C     0.26169   0.56595   0.25041   0.00000  Uiso   1.00
C572   C     0.28630   0.49918   0.26843   0.00000  Uiso   1.00
C573   C     0.28026   0.62409   0.16180   0.00000  Uiso   1.00
C574   C     0.21500   0.63412   0.14043   0.00000  Uiso   1.00
C575   C     0.21825   0.59852   0.10816   0.00000  Uiso   1.00
H576   H     0.46259   0.54245   0.17065   0.00000  Uiso   1.00
H577   H     0.55756   0.66244   0.17711   0.00000  Uiso   1.00
H578   H     0.44770   0.44220   0.22094   0.00000  Uiso   1.00
H579   H     0.40102   0.51036   0.11097   0.00000  Uiso   1.00
H580   H     0.63366   0.81488   0.18891   0.00000  Uiso   1.00
H581   H     0.40200   0.35047   0.28131   0.00000  Uiso   1.00
H582   H     0.30357   0.49420   0.04944   0.00000  Uiso   1.00
H583   H     0.23771   0.69207   0.20626   0.00000  Uiso   1.00
H584   H     0.32033   0.82028   0.21468   0.00000  Uiso   1.00
H585   H     0.21047   0.60003   0.25851   0.00000  Uiso   1.00
H586   H     0.16379   0.66819   0.14855   0.00000  Uiso   1.00
H587   H     0.44112   0.94299   0.21940   0.00000  Uiso   1.00
H588   H     0.20946   0.47857   0.31181   0.00000  Uiso   1.00
H589   H     0.11103   0.62230   0.07994   0.00000  Uiso   1.00
O590   O     0.59581   0.96057   0.20906   0.00000  Uiso   1.00
O591   O     0.29187   0.35126   0.33029   0.00000  Uiso   1.00
O592   O     0.16273   0.53984   0.02608   0.00000  Uiso   1.00
N593   N     0.57701   0.82744   0.19492   0.00000  Uiso   1.00
N594   N     0.36043   0.39325   0.28132   0.00000  Uiso   1.00
N595   N     0.26839   0.52760   0.06454   0.00000  Uiso   1.00
N596   N     0.47340   0.89638   0.21133   0.00000  Uiso   1.00
N597   N     0.25682   0.46218   0.29773   0.00000  Uiso   1.00
N598   N     0.16478   0.59654   0.08095   0.00000  Uiso   1.00
C599   C     0.91107   0.07673   0.67880   0.00000  Uiso   1.00
C600   C     0.93148   0.16268   0.68725   0.00000  Uiso   1.00
C601   C     0.00635   0.19654   0.68522   0.00000  Uiso   1.00
C602   C     0.01272   0.27609   0.69405   0.00000  Uiso   1.00
C603   C     0.05449   0.40283   0.70559   0.00000  Uiso   1.00
C604   C     0.87180   0.04302   0.71107   0.00000  Uiso   1.00
C605   C     0.89649   0.97626   0.72906   0.00000  Uiso   1.00
C606   C     0.85260   0.95508   0.75793   0.00000  Uiso   1.00
C607   C     0.80167   0.89601   0.80643   0.00000  Uiso   1.00
C608   C     0.84644   0.08006   0.65132   0.00000  Uiso   1.00
C609   C     0.84979   0.04443   0.61908   0.00000  Uiso   1.00
C610   C     0.78455   0.05441   0.59765   0.00000  Uiso   1.00
C611   C     0.69425   0.05285   0.55339   0.00000  Uiso   1.00
C612   C     0.78923   0.15780   0.69810   0.00000  Uiso   1.00
C613   C     0.86530   0.20670   0.69773   0.00000  Uiso   1.00
C614   C     0.87155   0.28622   0.70657   0.00000  Uiso   1.00
C615   C     0.94642   0.32020   0.70455   0.00000  Uiso   1.00
C616   C     0.80562   0.08704   0.72155   0.00000  Uiso   1.00
C617   C     0.76169   0.06595   0.75041   0.00000  Uiso   1.00
C618   C     0.78630   0.99918   0.76843   0.00000  Uiso   1.00
C619   C     0.78026   0.12409   0.66180   0.00000  Uiso   1.00
C620   C     0.71500   0.13412   0.64043   0.00000  Uiso   1.00
C621   C     0.71825   0.09852   0.60816   0.00000  Uiso   1.00
H622   H     0.96259   0.04245   0.67065   0.00000  Uiso   1.00
H623   H     0.05756   0.16244   0.67711   0.00000  Uiso   1.00
H624   H     0.94770   0.94220   0.72094   0.00000  Uiso   1.00
H625   H     0.90102   0.01036   0.61097   0.00000  Uiso   1.00
H626   H     0.13366   0.31488   0.68891   0.00000  Uiso   1.00
H627   H     0.90200   0.85047   0.78131   0.00000  Uiso   1.00
H628   H     0.80357   0.99420   0.54944   0.00000  Uiso   1.00
H629   H     0.73771   0.19207   0.70626   0.00000  Uiso   1.00
H630   H     0.82033   0.32028   0.71468   0.00000  Uiso   1.00
H631   H     0.71047   0.10003   0.75851   0.00000  Uiso   1.00
H632   H     0.66379   0.16819   0.64855   0.00000  Uiso   1.00
H633   H     0.94112   0.44299   0.71940   0.00000  Uiso   1.00
H634   H     0.70946   0.97857   0.81181   0.00000  Uiso   1.00
H635   H     0.61103   0.12230   0.57994   0.00000  Uiso   1.00
O636   O     0.09581   0.46057   0.70906   0.00000  Uiso   1.00
O637   O     0.79187   0.85126   0.83029   0.00000  Uiso   1.00
O638   O     0.66273   0.03984   0.52608   0.00000  Uiso   1.00
N639   N     0.07701   0.32744   0.69492   0.00000  Uiso   1.00
N640   N     0.86043   0.89325   0.78132   0.00000  Uiso   1.00
N641   N     0.76839   0.02760   0.56454   0.00000  Uiso   1.00
N642   N     0.97340   0.39638   0.71133   0.00000  Uiso   1.00
N643   N     0.75682   0.96218   0.79773   0.00000  Uiso   1.00
N644   N     0.66478   0.09654   0.58095   0.00000  Uiso   1.00
C645   C     0.08893   0.92327   0.67880   0.00000  Uiso   1.00
C646   C     0.06852   0.83732   0.68725   0.00000  Uiso   1.00
C647   C     0.99365   0.80346   0.68522   0.00000  Uiso   1.00
C648   C     0.98728   0.72391   0.69405   0.00000  Uiso   1.00
C649   C     0.94551   0.59717   0.70559   0.00000  Uiso   1.00
C650   C     0.12820   0.95698   0.71107   0.00000  Uiso   1.00
C651   C     0.10351   0.02374   0.72906   0.00000  Uiso   1.00
C652   C     0.14740   0.04492   0.75793   0.00000  Uiso   1.00
C653   C     0.19833   0.10399   0.80643   0.00000  Uiso   1.00
C654   C     0.15356   0.91994   0.65132   0.00000  Uiso   1.00
C655   C     0.15021   0.95557   0.61908   0.00000  Uiso   1.00
C656   C     0.21545   0.94559   0.59765   0.00000  Uiso   1.00
C657   C     0.30575   0.94715   0.55339   0.00000  Uiso   1.00
C658   C     0.21077   0.84220   0.69810   0.00000  Uiso   1.00
C659   C     0.13470   0.79330   0.69773   0.00000  Uiso   1.00
C660   C     0.12845   0.71378   0.70657   0.00000  Uiso   1.00
C661   C     0.05358   0.67980   0.70455   0.00000  Uiso   1.00
C662   C     0.19438   0.91296   0.72155   0.00000  Uiso   1.00
C663   C     0.23831   0.93405   0.75041   0.00000  Uiso   1.00
C664   C     0.21370   0.00082   0.76843   0.00000  Uiso   1.00
C665   C     0.21974   0.87591   0.66180   0.00000  Uiso   1.00
C666   C     0.28500   0.86588   0.64043   0.00000  Uiso   1.00
C667   C     0.28175   0.90148   0.60816   0.00000  Uiso   1.00
H668   H     0.03741   0.95755   0.67065   0.00000  Uiso   1.00
H669   H     0.94244   0.83756   0.67711   0.00000  Uiso   1.00
H670   H     0.05230   0.05780   0.72094   0.00000  Uiso   1.00
H671   H     0.09898   0.98964   0.61097   0.00000  Uiso   1.00
H672   H     0.86634   0.68512   0.68891   0.00000  Uiso   1.00
H673   H     0.09800   0.14953   0.78131   0.00000  Uiso   1.00
H674   H     0.19643   0.00580   0.54944   0.00000  Uiso   1.00
H675   H     0.26229   0.80793   0.70626   0.00000  Uiso   1.00
H676   H     0.17967   0.67972   0.71468   0.00000  Uiso   1.00
H677   H     0.28953   0.89997   0.75851   0.00000  Uiso   1.00
H678   H     0.33621   0.83181   0.64855   0.00000  Uiso   1.00
H679   H     0.05888   0.55701   0.71940   0.00000  Uiso   1.00
H680   H     0.29054   0.02143   0.81181   0.00000  Uiso   1.00
H681   H     0.38897   0.87770   0.57994   0.00000  Uiso   1.00
O682   O     0.90419   0.53943   0.70906   0.00000  Uiso   1.00
O683   O     0.20813   0.14874   0.83029   0.00000  Uiso   1.00
O684   O     0.33727   0.96016   0.52608   0.00000  Uiso   1.00
N685   N     0.92299   0.67256   0.69492   0.00000  Uiso   1.00
N686   N     0.13957   0.10675   0.78132   0.00000  Uiso   1.00
N687   N     0.23161   0.97240   0.56454   0.00000  Uiso   1.00
N688   N     0.02660   0.60362   0.71133   0.00000  Uiso   1.00
N689   N     0.24318   0.03782   0.79773   0.00000  Uiso   1.00
N690   N     0.33522   0.90346   0.58095   0.00000  Uiso   1.00
C691   C     0.58893   0.42327   0.17880   0.00000  Uiso   1.00
C692   C     0.56852   0.33732   0.18725   0.00000  Uiso   1.00
C693   C     0.49365   0.30346   0.18522   0.00000  Uiso   1.00
C694   C     0.48728   0.22391   0.19405   0.00000  Uiso   1.00
C695   C     0.44551   0.09717   0.20559   0.00000  Uiso   1.00
C696   C     0.62820   0.45698   0.21107   0.00000  Uiso   1.00
C697   C     0.60351   0.52374   0.22906   0.00000  Uiso   1.00
C698   C     0.64740   0.54492   0.25793   0.00000  Uiso   1.00
C699   C     0.69833   0.60399   0.30643   0.00000  Uiso   1.00
C700   C     0.65356   0.41994   0.15132   0.00000  Uiso   1.00
C701   C     0.65021   0.45557   0.11908   0.00000  Uiso   1.00
C702   C     0.71545   0.44559   0.09765   0.00000  Uiso   1.00
C703   C     0.80575   0.44715   0.05339   0.00000  Uiso   1.00
C704   C     0.71077   0.34220   0.19810   0.00000  Uiso   1.00
C705   C     0.63470   0.29330   0.19773   0.00000  Uiso   1.00
C706   C     0.62845   0.21378   0.20657   0.00000  Uiso   1.00
C707   C     0.55358   0.17980   0.20455   0.00000  Uiso   1.00
C708   C     0.69438   0.41296   0.22155   0.00000  Uiso   1.00
C709   C     0.73831   0.43405   0.25041   0.00000  Uiso   1.00
C710   C     0.71370   0.50082   0.26843   0.00000  Uiso   1.00
C711   C     0.71974   0.37591   0.16180   0.00000  Uiso   1.00
C712   C     0.78500   0.36588   0.14043   0.00000  Uiso   1.00
C713   C     0.78175   0.40148   0.10816   0.00000  Uiso   1.00
H714   H     0.53741   0.45755   0.17065   0.00000  Uiso   1.00
H715   H     0.44244   0.33756   0.17711   0.00000  Uiso   1.00
H716   H     0.55230   0.55780   0.22094   0.00000  Uiso   1.00
H717   H     0.59898   0.48964   0.11097   0.00000  Uiso   1.00
H718   H     0.36634   0.18512   0.18891   0.00000  Uiso   1.00
H719   H     0.59800   0.64953   0.28131   0.00000  Uiso   1.00
H720   H     0.69643   0.50580   0.04944   0.00000  Uiso   1.00
H721   H     0.76229   0.30793   0.20626   0.00000  Uiso   1.00
H722   H     0.67967   0.17972   0.21468   0.00000  Uiso   1.00
H723   H     0.78953   0.39997   0.25851   0.00000  Uiso   1.00
H724   H     0.83621   0.33181   0.14855   0.00000  Uiso   1.00
H725   H     0.55888   0.05701   0.21940   0.00000  Uiso   1.00
H726   H     0.79054   0.52143   0.31181   0.00000  Uiso   1.00
H727   H     0.88897   0.37770   0.07994   0.00000  Uiso   1.00
O728   O     0.40419   0.03943   0.20906   0.00000  Uiso   1.00
O729   O     0.70813   0.64874   0.33029   0.00000  Uiso   1.00
O730   O     0.83727   0.46016   0.02608   0.00000  Uiso   1.00
N731   N     0.42299   0.17256   0.19492   0.00000  Uiso   1.00
N732   N     0.63957   0.60675   0.28132   0.00000  Uiso   1.00
N733   N     0.73161   0.47240   0.06454   0.00000  Uiso   1.00
N734   N     0.52660   0.10362   0.21133   0.00000  Uiso   1.00
N735   N     0.74318   0.53782   0.29773   0.00000  Uiso   1.00
N736   N     0.83522   0.40346   0.08095   0.00000  Uiso   1.00
