data_job_02887
_audit_creation_date              2018-12-19
_audit_creation_method            'Materials Studio'
_symmetry_space_group_name_H-M    'P1'
_symmetry_Int_Tables_number       1
_symmetry_cell_setting            triclinic
loop_
_symmetry_equiv_pos_as_xyz
  x,y,z
_cell_length_a                    24.0334
_cell_length_b                    41.6721
_cell_length_c                    11.7494
_cell_angle_alpha                 90.0000
_cell_angle_beta                  90.0000
_cell_angle_gamma                 90.0000
loop_
_atom_site_label
_atom_site_type_symbol
_atom_site_fract_x
_atom_site_fract_y
_atom_site_fract_z
_atom_site_U_iso_or_equiv
_atom_site_adp_type
_atom_site_occupancy
C1     C     0.61783   0.55687   0.45230   0.00000  Uiso   1.00
C2     C     0.60972   0.54692   0.57609   0.00000  Uiso   1.00
C3     C     0.56642   0.55657   0.64632   0.00000  Uiso   1.00
C4     C     0.56644   0.54482   0.75689   0.00000  Uiso   1.00
C5     C     0.54751   0.53252   0.94321   0.00000  Uiso   1.00
C6     C     0.67563   0.57184   0.44569   0.00000  Uiso   1.00
C7     C     0.68775   0.60245   0.40627   0.00000  Uiso   1.00
C8     C     0.74326   0.61167   0.40705   0.00000  Uiso   1.00
C9     C     0.82666   0.63806   0.39085   0.00000  Uiso   1.00
C10    C     0.62092   0.52579   0.38411   0.00000  Uiso   1.00
C11    C     0.58705   0.51768   0.29288   0.00000  Uiso   1.00
C12    C     0.59650   0.48813   0.24180   0.00000  Uiso   1.00
C13    C     0.59496   0.44302   0.12998   0.00000  Uiso   1.00
C14    C     0.69488   0.51883   0.52377   0.00000  Uiso   1.00
C15    C     0.65158   0.52625   0.61491   0.00000  Uiso   1.00
C16    C     0.65166   0.51448   0.72540   0.00000  Uiso   1.00
C17    C     0.60837   0.52411   0.79578   0.00000  Uiso   1.00
C18    C     0.71748   0.55118   0.48451   0.00000  Uiso   1.00
C19    C     0.77299   0.56036   0.48534   0.00000  Uiso   1.00
C20    C     0.78519   0.59097   0.44594   0.00000  Uiso   1.00
C21    C     0.66277   0.50512   0.42293   0.00000  Uiso   1.00
C22    C     0.67229   0.47559   0.37197   0.00000  Uiso   1.00
C23    C     0.63843   0.46743   0.28069   0.00000  Uiso   1.00
H24    H     0.58525   0.57296   0.42207   0.00000  Uiso   1.00
H25    H     0.53404   0.57257   0.61625   0.00000  Uiso   1.00
H26    H     0.65535   0.61843   0.37622   0.00000  Uiso   1.00
H27    H     0.55466   0.53368   0.26286   0.00000  Uiso   1.00
H28    H     0.49574   0.56302   0.84865   0.00000  Uiso   1.00
H29    H     0.75153   0.65973   0.34251   0.00000  Uiso   1.00
H30    H     0.53921   0.48101   0.10346   0.00000  Uiso   1.00
H31    H     0.72746   0.50274   0.55400   0.00000  Uiso   1.00
H32    H     0.68406   0.49849   0.75541   0.00000  Uiso   1.00
H33    H     0.80537   0.54436   0.51539   0.00000  Uiso   1.00
H34    H     0.70468   0.45960   0.40203   0.00000  Uiso   1.00
H35    H     0.61750   0.50290   0.96161   0.00000  Uiso   1.00
H36    H     0.87329   0.59961   0.45546   0.00000  Uiso   1.00
H37    H     0.66097   0.42089   0.21642   0.00000  Uiso   1.00
O38    O     0.52551   0.53144   0.03526   0.00000  Uiso   1.00
O39    O     0.86110   0.65832   0.37120   0.00000  Uiso   1.00
O40    O     0.58254   0.42384   0.05758   0.00000  Uiso   1.00
N41    N     0.53035   0.54945   0.84759   0.00000  Uiso   1.00
N42    N     0.76949   0.63987   0.37439   0.00000  Uiso   1.00
N43    N     0.57100   0.47278   0.15089   0.00000  Uiso   1.00
N44    N     0.59586   0.51710   0.90837   0.00000  Uiso   1.00
N45    N     0.83501   0.60752   0.43517   0.00000  Uiso   1.00
N46    N     0.63652   0.44043   0.21167   0.00000  Uiso   1.00
C47    C     0.61783   0.05687   0.95230   0.00000  Uiso   1.00
C48    C     0.60972   0.04692   0.07609   0.00000  Uiso   1.00
C49    C     0.56642   0.05657   0.14632   0.00000  Uiso   1.00
C50    C     0.56644   0.04482   0.25689   0.00000  Uiso   1.00
C51    C     0.54751   0.03252   0.44321   0.00000  Uiso   1.00
C52    C     0.67563   0.07184   0.94569   0.00000  Uiso   1.00
C53    C     0.68775   0.10245   0.90627   0.00000  Uiso   1.00
C54    C     0.74326   0.11167   0.90705   0.00000  Uiso   1.00
C55    C     0.82666   0.13806   0.89085   0.00000  Uiso   1.00
C56    C     0.62092   0.02579   0.88411   0.00000  Uiso   1.00
C57    C     0.58705   0.01768   0.79288   0.00000  Uiso   1.00
C58    C     0.59650   0.98813   0.74180   0.00000  Uiso   1.00
C59    C     0.59496   0.94302   0.62998   0.00000  Uiso   1.00
C60    C     0.69488   0.01883   0.02377   0.00000  Uiso   1.00
C61    C     0.65158   0.02625   0.11491   0.00000  Uiso   1.00
C62    C     0.65166   0.01448   0.22540   0.00000  Uiso   1.00
C63    C     0.60837   0.02411   0.29578   0.00000  Uiso   1.00
C64    C     0.71748   0.05118   0.98451   0.00000  Uiso   1.00
C65    C     0.77299   0.06036   0.98534   0.00000  Uiso   1.00
C66    C     0.78519   0.09097   0.94594   0.00000  Uiso   1.00
C67    C     0.66277   0.00512   0.92293   0.00000  Uiso   1.00
C68    C     0.67229   0.97559   0.87197   0.00000  Uiso   1.00
C69    C     0.63843   0.96743   0.78069   0.00000  Uiso   1.00
H70    H     0.58525   0.07296   0.92207   0.00000  Uiso   1.00
H71    H     0.53404   0.07257   0.11625   0.00000  Uiso   1.00
H72    H     0.65535   0.11843   0.87622   0.00000  Uiso   1.00
H73    H     0.55466   0.03368   0.76286   0.00000  Uiso   1.00
H74    H     0.49574   0.06302   0.34865   0.00000  Uiso   1.00
H75    H     0.75153   0.15973   0.84251   0.00000  Uiso   1.00
H76    H     0.53921   0.98101   0.60346   0.00000  Uiso   1.00
H77    H     0.72746   0.00274   0.05400   0.00000  Uiso   1.00
H78    H     0.68406   0.99849   0.25541   0.00000  Uiso   1.00
H79    H     0.80537   0.04436   0.01539   0.00000  Uiso   1.00
H80    H     0.70468   0.95960   0.90203   0.00000  Uiso   1.00
H81    H     0.61750   0.00290   0.46161   0.00000  Uiso   1.00
H82    H     0.87329   0.09961   0.95546   0.00000  Uiso   1.00
H83    H     0.66097   0.92089   0.71642   0.00000  Uiso   1.00
O84    O     0.52551   0.03144   0.53526   0.00000  Uiso   1.00
O85    O     0.86110   0.15832   0.87120   0.00000  Uiso   1.00
O86    O     0.58254   0.92384   0.55758   0.00000  Uiso   1.00
N87    N     0.53035   0.04945   0.34759   0.00000  Uiso   1.00
N88    N     0.76949   0.13987   0.87439   0.00000  Uiso   1.00
N89    N     0.57100   0.97278   0.65089   0.00000  Uiso   1.00
N90    N     0.59586   0.01710   0.40837   0.00000  Uiso   1.00
N91    N     0.83501   0.10752   0.93517   0.00000  Uiso   1.00
N92    N     0.63652   0.94043   0.71167   0.00000  Uiso   1.00
C93    C     0.11783   0.55687   0.95230   0.00000  Uiso   1.00
C94    C     0.10972   0.54692   0.07609   0.00000  Uiso   1.00
C95    C     0.06642   0.55657   0.14632   0.00000  Uiso   1.00
C96    C     0.06644   0.54482   0.25689   0.00000  Uiso   1.00
C97    C     0.04751   0.53252   0.44321   0.00000  Uiso   1.00
C98    C     0.17563   0.57184   0.94569   0.00000  Uiso   1.00
C99    C     0.18775   0.60245   0.90627   0.00000  Uiso   1.00
C100   C     0.24326   0.61167   0.90705   0.00000  Uiso   1.00
C101   C     0.32666   0.63806   0.89085   0.00000  Uiso   1.00
C102   C     0.12092   0.52579   0.88411   0.00000  Uiso   1.00
C103   C     0.08705   0.51768   0.79288   0.00000  Uiso   1.00
C104   C     0.09650   0.48813   0.74180   0.00000  Uiso   1.00
C105   C     0.09496   0.44302   0.62998   0.00000  Uiso   1.00
C106   C     0.19488   0.51883   0.02377   0.00000  Uiso   1.00
C107   C     0.15158   0.52625   0.11491   0.00000  Uiso   1.00
C108   C     0.15166   0.51448   0.22540   0.00000  Uiso   1.00
C109   C     0.10837   0.52411   0.29578   0.00000  Uiso   1.00
C110   C     0.21748   0.55118   0.98451   0.00000  Uiso   1.00
C111   C     0.27299   0.56036   0.98534   0.00000  Uiso   1.00
C112   C     0.28519   0.59097   0.94594   0.00000  Uiso   1.00
C113   C     0.16277   0.50512   0.92293   0.00000  Uiso   1.00
C114   C     0.17229   0.47559   0.87197   0.00000  Uiso   1.00
C115   C     0.13843   0.46743   0.78069   0.00000  Uiso   1.00
H116   H     0.08525   0.57296   0.92207   0.00000  Uiso   1.00
H117   H     0.03404   0.57257   0.11625   0.00000  Uiso   1.00
H118   H     0.15535   0.61843   0.87622   0.00000  Uiso   1.00
H119   H     0.05466   0.53368   0.76286   0.00000  Uiso   1.00
H120   H     0.99574   0.56302   0.34865   0.00000  Uiso   1.00
H121   H     0.25153   0.65973   0.84251   0.00000  Uiso   1.00
H122   H     0.03921   0.48101   0.60346   0.00000  Uiso   1.00
H123   H     0.22746   0.50274   0.05400   0.00000  Uiso   1.00
H124   H     0.18406   0.49849   0.25541   0.00000  Uiso   1.00
H125   H     0.30537   0.54436   0.01539   0.00000  Uiso   1.00
H126   H     0.20468   0.45960   0.90203   0.00000  Uiso   1.00
H127   H     0.11750   0.50290   0.46161   0.00000  Uiso   1.00
H128   H     0.37329   0.59961   0.95546   0.00000  Uiso   1.00
H129   H     0.16097   0.42089   0.71642   0.00000  Uiso   1.00
O130   O     0.02551   0.53144   0.53526   0.00000  Uiso   1.00
O131   O     0.36110   0.65832   0.87120   0.00000  Uiso   1.00
O132   O     0.08254   0.42384   0.55758   0.00000  Uiso   1.00
N133   N     0.03035   0.54945   0.34759   0.00000  Uiso   1.00
N134   N     0.26949   0.63987   0.87439   0.00000  Uiso   1.00
N135   N     0.07100   0.47278   0.65089   0.00000  Uiso   1.00
N136   N     0.09586   0.51710   0.40837   0.00000  Uiso   1.00
N137   N     0.33501   0.60752   0.93517   0.00000  Uiso   1.00
N138   N     0.13652   0.44043   0.71167   0.00000  Uiso   1.00
C139   C     0.11783   0.05687   0.45230   0.00000  Uiso   1.00
C140   C     0.10972   0.04692   0.57609   0.00000  Uiso   1.00
C141   C     0.06642   0.05657   0.64632   0.00000  Uiso   1.00
C142   C     0.06644   0.04482   0.75689   0.00000  Uiso   1.00
C143   C     0.04751   0.03252   0.94321   0.00000  Uiso   1.00
C144   C     0.17563   0.07184   0.44569   0.00000  Uiso   1.00
C145   C     0.18775   0.10245   0.40627   0.00000  Uiso   1.00
C146   C     0.24326   0.11167   0.40705   0.00000  Uiso   1.00
C147   C     0.32666   0.13806   0.39085   0.00000  Uiso   1.00
C148   C     0.12092   0.02579   0.38411   0.00000  Uiso   1.00
C149   C     0.08705   0.01768   0.29288   0.00000  Uiso   1.00
C150   C     0.09650   0.98813   0.24180   0.00000  Uiso   1.00
C151   C     0.09496   0.94302   0.12998   0.00000  Uiso   1.00
C152   C     0.19488   0.01883   0.52377   0.00000  Uiso   1.00
C153   C     0.15158   0.02625   0.61491   0.00000  Uiso   1.00
C154   C     0.15166   0.01448   0.72540   0.00000  Uiso   1.00
C155   C     0.10837   0.02411   0.79578   0.00000  Uiso   1.00
C156   C     0.21748   0.05118   0.48451   0.00000  Uiso   1.00
C157   C     0.27299   0.06036   0.48534   0.00000  Uiso   1.00
C158   C     0.28519   0.09097   0.44594   0.00000  Uiso   1.00
C159   C     0.16277   0.00512   0.42293   0.00000  Uiso   1.00
C160   C     0.17229   0.97559   0.37197   0.00000  Uiso   1.00
C161   C     0.13843   0.96743   0.28069   0.00000  Uiso   1.00
H162   H     0.08525   0.07296   0.42207   0.00000  Uiso   1.00
H163   H     0.03404   0.07257   0.61625   0.00000  Uiso   1.00
H164   H     0.15535   0.11843   0.37622   0.00000  Uiso   1.00
H165   H     0.05466   0.03368   0.26286   0.00000  Uiso   1.00
H166   H     0.99574   0.06302   0.84865   0.00000  Uiso   1.00
H167   H     0.25153   0.15973   0.34251   0.00000  Uiso   1.00
H168   H     0.03921   0.98101   0.10346   0.00000  Uiso   1.00
H169   H     0.22746   0.00274   0.55400   0.00000  Uiso   1.00
H170   H     0.18406   0.99849   0.75541   0.00000  Uiso   1.00
H171   H     0.30537   0.04436   0.51539   0.00000  Uiso   1.00
H172   H     0.20468   0.95960   0.40203   0.00000  Uiso   1.00
H173   H     0.11750   0.00290   0.96161   0.00000  Uiso   1.00
H174   H     0.37329   0.09961   0.45546   0.00000  Uiso   1.00
H175   H     0.16097   0.92089   0.21642   0.00000  Uiso   1.00
O176   O     0.02551   0.03144   0.03526   0.00000  Uiso   1.00
O177   O     0.36110   0.15832   0.37120   0.00000  Uiso   1.00
O178   O     0.08254   0.92384   0.05758   0.00000  Uiso   1.00
N179   N     0.03035   0.04945   0.84759   0.00000  Uiso   1.00
N180   N     0.26949   0.13987   0.37439   0.00000  Uiso   1.00
N181   N     0.07100   0.97278   0.15089   0.00000  Uiso   1.00
N182   N     0.09586   0.01710   0.90837   0.00000  Uiso   1.00
N183   N     0.33501   0.10752   0.43517   0.00000  Uiso   1.00
N184   N     0.13652   0.94043   0.21167   0.00000  Uiso   1.00
C185   C     0.38217   0.44313   0.45230   0.00000  Uiso   1.00
C186   C     0.39028   0.45308   0.57609   0.00000  Uiso   1.00
C187   C     0.43358   0.44343   0.64632   0.00000  Uiso   1.00
C188   C     0.43356   0.45518   0.75689   0.00000  Uiso   1.00
C189   C     0.45249   0.46748   0.94321   0.00000  Uiso   1.00
C190   C     0.32437   0.42816   0.44569   0.00000  Uiso   1.00
C191   C     0.31225   0.39755   0.40627   0.00000  Uiso   1.00
C192   C     0.25674   0.38833   0.40705   0.00000  Uiso   1.00
C193   C     0.17334   0.36194   0.39085   0.00000  Uiso   1.00
C194   C     0.37908   0.47421   0.38411   0.00000  Uiso   1.00
C195   C     0.41295   0.48232   0.29288   0.00000  Uiso   1.00
C196   C     0.40350   0.51187   0.24180   0.00000  Uiso   1.00
C197   C     0.40504   0.55698   0.12998   0.00000  Uiso   1.00
C198   C     0.30512   0.48117   0.52377   0.00000  Uiso   1.00
C199   C     0.34842   0.47375   0.61491   0.00000  Uiso   1.00
C200   C     0.34834   0.48552   0.72540   0.00000  Uiso   1.00
C201   C     0.39163   0.47589   0.79578   0.00000  Uiso   1.00
C202   C     0.28252   0.44882   0.48451   0.00000  Uiso   1.00
C203   C     0.22701   0.43964   0.48534   0.00000  Uiso   1.00
C204   C     0.21481   0.40903   0.44594   0.00000  Uiso   1.00
C205   C     0.33723   0.49488   0.42293   0.00000  Uiso   1.00
C206   C     0.32771   0.52441   0.37197   0.00000  Uiso   1.00
C207   C     0.36157   0.53257   0.28069   0.00000  Uiso   1.00
H208   H     0.41475   0.42704   0.42207   0.00000  Uiso   1.00
H209   H     0.46596   0.42743   0.61625   0.00000  Uiso   1.00
H210   H     0.34465   0.38157   0.37622   0.00000  Uiso   1.00
H211   H     0.44534   0.46632   0.26286   0.00000  Uiso   1.00
H212   H     0.50426   0.43698   0.84865   0.00000  Uiso   1.00
H213   H     0.24847   0.34027   0.34251   0.00000  Uiso   1.00
H214   H     0.46079   0.51899   0.10346   0.00000  Uiso   1.00
H215   H     0.27254   0.49726   0.55400   0.00000  Uiso   1.00
H216   H     0.31594   0.50151   0.75541   0.00000  Uiso   1.00
H217   H     0.19463   0.45564   0.51539   0.00000  Uiso   1.00
H218   H     0.29532   0.54040   0.40203   0.00000  Uiso   1.00
H219   H     0.38250   0.49710   0.96161   0.00000  Uiso   1.00
H220   H     0.12671   0.40039   0.45546   0.00000  Uiso   1.00
H221   H     0.33903   0.57911   0.21642   0.00000  Uiso   1.00
O222   O     0.47449   0.46856   0.03526   0.00000  Uiso   1.00
O223   O     0.13890   0.34168   0.37120   0.00000  Uiso   1.00
O224   O     0.41746   0.57616   0.05758   0.00000  Uiso   1.00
N225   N     0.46965   0.45055   0.84759   0.00000  Uiso   1.00
N226   N     0.23051   0.36013   0.37439   0.00000  Uiso   1.00
N227   N     0.42900   0.52722   0.15089   0.00000  Uiso   1.00
N228   N     0.40414   0.48290   0.90837   0.00000  Uiso   1.00
N229   N     0.16499   0.39248   0.43517   0.00000  Uiso   1.00
N230   N     0.36348   0.55957   0.21167   0.00000  Uiso   1.00
C231   C     0.38217   0.94313   0.95230   0.00000  Uiso   1.00
C232   C     0.39028   0.95308   0.07609   0.00000  Uiso   1.00
C233   C     0.43358   0.94343   0.14632   0.00000  Uiso   1.00
C234   C     0.43356   0.95518   0.25689   0.00000  Uiso   1.00
C235   C     0.45249   0.96748   0.44321   0.00000  Uiso   1.00
C236   C     0.32437   0.92816   0.94569   0.00000  Uiso   1.00
C237   C     0.31225   0.89755   0.90627   0.00000  Uiso   1.00
C238   C     0.25674   0.88833   0.90705   0.00000  Uiso   1.00
C239   C     0.17334   0.86194   0.89085   0.00000  Uiso   1.00
C240   C     0.37908   0.97421   0.88411   0.00000  Uiso   1.00
C241   C     0.41295   0.98232   0.79288   0.00000  Uiso   1.00
C242   C     0.40350   0.01187   0.74180   0.00000  Uiso   1.00
C243   C     0.40504   0.05698   0.62998   0.00000  Uiso   1.00
C244   C     0.30512   0.98117   0.02377   0.00000  Uiso   1.00
C245   C     0.34842   0.97375   0.11491   0.00000  Uiso   1.00
C246   C     0.34834   0.98552   0.22540   0.00000  Uiso   1.00
C247   C     0.39163   0.97589   0.29578   0.00000  Uiso   1.00
C248   C     0.28252   0.94882   0.98451   0.00000  Uiso   1.00
C249   C     0.22701   0.93964   0.98534   0.00000  Uiso   1.00
C250   C     0.21481   0.90903   0.94594   0.00000  Uiso   1.00
C251   C     0.33723   0.99488   0.92293   0.00000  Uiso   1.00
C252   C     0.32771   0.02441   0.87197   0.00000  Uiso   1.00
C253   C     0.36157   0.03257   0.78069   0.00000  Uiso   1.00
H254   H     0.41475   0.92704   0.92207   0.00000  Uiso   1.00
H255   H     0.46596   0.92743   0.11625   0.00000  Uiso   1.00
H256   H     0.34465   0.88157   0.87622   0.00000  Uiso   1.00
H257   H     0.44534   0.96632   0.76286   0.00000  Uiso   1.00
H258   H     0.50426   0.93698   0.34865   0.00000  Uiso   1.00
H259   H     0.24847   0.84027   0.84251   0.00000  Uiso   1.00
H260   H     0.46079   0.01899   0.60346   0.00000  Uiso   1.00
H261   H     0.27254   0.99726   0.05400   0.00000  Uiso   1.00
H262   H     0.31594   0.00151   0.25541   0.00000  Uiso   1.00
H263   H     0.19463   0.95564   0.01539   0.00000  Uiso   1.00
H264   H     0.29532   0.04040   0.90203   0.00000  Uiso   1.00
H265   H     0.38250   0.99710   0.46161   0.00000  Uiso   1.00
H266   H     0.12671   0.90039   0.95546   0.00000  Uiso   1.00
H267   H     0.33903   0.07911   0.71642   0.00000  Uiso   1.00
O268   O     0.47449   0.96856   0.53526   0.00000  Uiso   1.00
O269   O     0.13890   0.84168   0.87120   0.00000  Uiso   1.00
O270   O     0.41746   0.07616   0.55758   0.00000  Uiso   1.00
N271   N     0.46965   0.95055   0.34759   0.00000  Uiso   1.00
N272   N     0.23051   0.86013   0.87439   0.00000  Uiso   1.00
N273   N     0.42900   0.02722   0.65089   0.00000  Uiso   1.00
N274   N     0.40414   0.98290   0.40837   0.00000  Uiso   1.00
N275   N     0.16499   0.89248   0.93517   0.00000  Uiso   1.00
N276   N     0.36348   0.05957   0.71167   0.00000  Uiso   1.00
C277   C     0.88217   0.44313   0.95230   0.00000  Uiso   1.00
C278   C     0.89028   0.45308   0.07609   0.00000  Uiso   1.00
C279   C     0.93358   0.44343   0.14632   0.00000  Uiso   1.00
C280   C     0.93356   0.45518   0.25689   0.00000  Uiso   1.00
C281   C     0.95249   0.46748   0.44321   0.00000  Uiso   1.00
C282   C     0.82437   0.42816   0.94569   0.00000  Uiso   1.00
C283   C     0.81225   0.39755   0.90627   0.00000  Uiso   1.00
C284   C     0.75674   0.38833   0.90705   0.00000  Uiso   1.00
C285   C     0.67334   0.36194   0.89085   0.00000  Uiso   1.00
C286   C     0.87908   0.47421   0.88411   0.00000  Uiso   1.00
C287   C     0.91295   0.48232   0.79288   0.00000  Uiso   1.00
C288   C     0.90350   0.51187   0.74180   0.00000  Uiso   1.00
C289   C     0.90504   0.55698   0.62998   0.00000  Uiso   1.00
C290   C     0.80512   0.48117   0.02377   0.00000  Uiso   1.00
C291   C     0.84842   0.47375   0.11491   0.00000  Uiso   1.00
C292   C     0.84834   0.48552   0.22540   0.00000  Uiso   1.00
C293   C     0.89163   0.47589   0.29578   0.00000  Uiso   1.00
C294   C     0.78252   0.44882   0.98451   0.00000  Uiso   1.00
C295   C     0.72701   0.43964   0.98534   0.00000  Uiso   1.00
C296   C     0.71481   0.40903   0.94594   0.00000  Uiso   1.00
C297   C     0.83723   0.49488   0.92293   0.00000  Uiso   1.00
C298   C     0.82771   0.52441   0.87197   0.00000  Uiso   1.00
C299   C     0.86157   0.53257   0.78069   0.00000  Uiso   1.00
H300   H     0.91475   0.42704   0.92207   0.00000  Uiso   1.00
H301   H     0.96596   0.42743   0.11625   0.00000  Uiso   1.00
H302   H     0.84465   0.38157   0.87622   0.00000  Uiso   1.00
H303   H     0.94534   0.46632   0.76286   0.00000  Uiso   1.00
H304   H     0.00426   0.43698   0.34865   0.00000  Uiso   1.00
H305   H     0.74847   0.34027   0.84251   0.00000  Uiso   1.00
H306   H     0.96079   0.51899   0.60346   0.00000  Uiso   1.00
H307   H     0.77254   0.49726   0.05400   0.00000  Uiso   1.00
H308   H     0.81594   0.50151   0.25541   0.00000  Uiso   1.00
H309   H     0.69463   0.45564   0.01539   0.00000  Uiso   1.00
H310   H     0.79532   0.54040   0.90203   0.00000  Uiso   1.00
H311   H     0.88250   0.49710   0.46161   0.00000  Uiso   1.00
H312   H     0.62671   0.40039   0.95546   0.00000  Uiso   1.00
H313   H     0.83903   0.57911   0.71642   0.00000  Uiso   1.00
O314   O     0.97449   0.46856   0.53526   0.00000  Uiso   1.00
O315   O     0.63890   0.34168   0.87120   0.00000  Uiso   1.00
O316   O     0.91746   0.57616   0.55758   0.00000  Uiso   1.00
N317   N     0.96965   0.45055   0.34759   0.00000  Uiso   1.00
N318   N     0.73051   0.36013   0.87439   0.00000  Uiso   1.00
N319   N     0.92900   0.52722   0.65089   0.00000  Uiso   1.00
N320   N     0.90414   0.48290   0.40837   0.00000  Uiso   1.00
N321   N     0.66499   0.39248   0.93517   0.00000  Uiso   1.00
N322   N     0.86348   0.55957   0.71167   0.00000  Uiso   1.00
C323   C     0.88217   0.94313   0.45230   0.00000  Uiso   1.00
C324   C     0.89028   0.95308   0.57609   0.00000  Uiso   1.00
C325   C     0.93358   0.94343   0.64632   0.00000  Uiso   1.00
C326   C     0.93356   0.95518   0.75689   0.00000  Uiso   1.00
C327   C     0.95249   0.96748   0.94321   0.00000  Uiso   1.00
C328   C     0.82437   0.92816   0.44569   0.00000  Uiso   1.00
C329   C     0.81225   0.89755   0.40627   0.00000  Uiso   1.00
C330   C     0.75674   0.88833   0.40705   0.00000  Uiso   1.00
C331   C     0.67334   0.86194   0.39085   0.00000  Uiso   1.00
C332   C     0.87908   0.97421   0.38411   0.00000  Uiso   1.00
C333   C     0.91295   0.98232   0.29288   0.00000  Uiso   1.00
C334   C     0.90350   0.01187   0.24180   0.00000  Uiso   1.00
C335   C     0.90504   0.05698   0.12998   0.00000  Uiso   1.00
C336   C     0.80512   0.98117   0.52377   0.00000  Uiso   1.00
C337   C     0.84842   0.97375   0.61491   0.00000  Uiso   1.00
C338   C     0.84834   0.98552   0.72540   0.00000  Uiso   1.00
C339   C     0.89163   0.97589   0.79578   0.00000  Uiso   1.00
C340   C     0.78252   0.94882   0.48451   0.00000  Uiso   1.00
C341   C     0.72701   0.93964   0.48534   0.00000  Uiso   1.00
C342   C     0.71481   0.90903   0.44594   0.00000  Uiso   1.00
C343   C     0.83723   0.99488   0.42293   0.00000  Uiso   1.00
C344   C     0.82771   0.02441   0.37197   0.00000  Uiso   1.00
C345   C     0.86157   0.03257   0.28069   0.00000  Uiso   1.00
H346   H     0.91475   0.92704   0.42207   0.00000  Uiso   1.00
H347   H     0.96596   0.92743   0.61625   0.00000  Uiso   1.00
H348   H     0.84465   0.88157   0.37622   0.00000  Uiso   1.00
H349   H     0.94534   0.96632   0.26286   0.00000  Uiso   1.00
H350   H     0.00426   0.93698   0.84865   0.00000  Uiso   1.00
H351   H     0.74847   0.84027   0.34251   0.00000  Uiso   1.00
H352   H     0.96079   0.01899   0.10346   0.00000  Uiso   1.00
H353   H     0.77254   0.99726   0.55400   0.00000  Uiso   1.00
H354   H     0.81594   0.00151   0.75541   0.00000  Uiso   1.00
H355   H     0.69463   0.95564   0.51539   0.00000  Uiso   1.00
H356   H     0.79532   0.04040   0.40203   0.00000  Uiso   1.00
H357   H     0.88250   0.99710   0.96161   0.00000  Uiso   1.00
H358   H     0.62671   0.90039   0.45546   0.00000  Uiso   1.00
H359   H     0.83903   0.07911   0.21642   0.00000  Uiso   1.00
O360   O     0.97449   0.96856   0.03526   0.00000  Uiso   1.00
O361   O     0.63890   0.84168   0.37120   0.00000  Uiso   1.00
O362   O     0.91746   0.07616   0.05758   0.00000  Uiso   1.00
N363   N     0.96965   0.95055   0.84759   0.00000  Uiso   1.00
N364   N     0.73051   0.86013   0.37439   0.00000  Uiso   1.00
N365   N     0.92900   0.02722   0.15089   0.00000  Uiso   1.00
N366   N     0.90414   0.98290   0.90837   0.00000  Uiso   1.00
N367   N     0.66499   0.89248   0.43517   0.00000  Uiso   1.00
N368   N     0.86348   0.05957   0.21167   0.00000  Uiso   1.00
C369   C     0.86783   0.69313   0.70230   0.00000  Uiso   1.00
C370   C     0.85972   0.70308   0.82609   0.00000  Uiso   1.00
C371   C     0.81642   0.69343   0.89632   0.00000  Uiso   1.00
C372   C     0.81644   0.70518   0.00689   0.00000  Uiso   1.00
C373   C     0.79751   0.71748   0.19321   0.00000  Uiso   1.00
C374   C     0.92563   0.67816   0.69569   0.00000  Uiso   1.00
C375   C     0.93775   0.64755   0.65627   0.00000  Uiso   1.00
C376   C     0.99326   0.63833   0.65705   0.00000  Uiso   1.00
C377   C     0.07666   0.61194   0.64085   0.00000  Uiso   1.00
C378   C     0.87092   0.72421   0.63411   0.00000  Uiso   1.00
C379   C     0.83705   0.73232   0.54288   0.00000  Uiso   1.00
C380   C     0.84650   0.76187   0.49180   0.00000  Uiso   1.00
C381   C     0.84496   0.80698   0.37998   0.00000  Uiso   1.00
C382   C     0.94488   0.73117   0.77377   0.00000  Uiso   1.00
C383   C     0.90158   0.72375   0.86491   0.00000  Uiso   1.00
C384   C     0.90166   0.73552   0.97540   0.00000  Uiso   1.00
C385   C     0.85837   0.72589   0.04578   0.00000  Uiso   1.00
C386   C     0.96748   0.69882   0.73451   0.00000  Uiso   1.00
C387   C     0.02299   0.68964   0.73534   0.00000  Uiso   1.00
C388   C     0.03519   0.65903   0.69594   0.00000  Uiso   1.00
C389   C     0.91277   0.74488   0.67293   0.00000  Uiso   1.00
C390   C     0.92229   0.77441   0.62197   0.00000  Uiso   1.00
C391   C     0.88843   0.78257   0.53069   0.00000  Uiso   1.00
H392   H     0.83525   0.67704   0.67207   0.00000  Uiso   1.00
H393   H     0.78404   0.67743   0.86625   0.00000  Uiso   1.00
H394   H     0.90535   0.63157   0.62622   0.00000  Uiso   1.00
H395   H     0.80466   0.71632   0.51286   0.00000  Uiso   1.00
H396   H     0.74574   0.68698   0.09865   0.00000  Uiso   1.00
H397   H     0.00153   0.59027   0.59251   0.00000  Uiso   1.00
H398   H     0.78921   0.76899   0.35346   0.00000  Uiso   1.00
H399   H     0.97746   0.74726   0.80400   0.00000  Uiso   1.00
H400   H     0.93406   0.75151   0.00541   0.00000  Uiso   1.00
H401   H     0.05537   0.70564   0.76539   0.00000  Uiso   1.00
H402   H     0.95468   0.79040   0.65203   0.00000  Uiso   1.00
H403   H     0.86750   0.74710   0.21161   0.00000  Uiso   1.00
H404   H     0.12329   0.65039   0.70546   0.00000  Uiso   1.00
H405   H     0.91097   0.82911   0.46642   0.00000  Uiso   1.00
O406   O     0.77551   0.71856   0.28526   0.00000  Uiso   1.00
O407   O     0.11110   0.59168   0.62120   0.00000  Uiso   1.00
O408   O     0.83254   0.82616   0.30758   0.00000  Uiso   1.00
N409   N     0.78035   0.70055   0.09759   0.00000  Uiso   1.00
N410   N     0.01949   0.61013   0.62439   0.00000  Uiso   1.00
N411   N     0.82100   0.77722   0.40089   0.00000  Uiso   1.00
N412   N     0.84586   0.73290   0.15837   0.00000  Uiso   1.00
N413   N     0.08501   0.64248   0.68517   0.00000  Uiso   1.00
N414   N     0.88652   0.80957   0.46167   0.00000  Uiso   1.00
C415   C     0.86783   0.19313   0.20230   0.00000  Uiso   1.00
C416   C     0.85972   0.20308   0.32609   0.00000  Uiso   1.00
C417   C     0.81642   0.19343   0.39632   0.00000  Uiso   1.00
C418   C     0.81644   0.20518   0.50689   0.00000  Uiso   1.00
C419   C     0.79751   0.21748   0.69321   0.00000  Uiso   1.00
C420   C     0.92563   0.17816   0.19569   0.00000  Uiso   1.00
C421   C     0.93775   0.14755   0.15627   0.00000  Uiso   1.00
C422   C     0.99326   0.13833   0.15705   0.00000  Uiso   1.00
C423   C     0.07666   0.11194   0.14085   0.00000  Uiso   1.00
C424   C     0.87092   0.22421   0.13411   0.00000  Uiso   1.00
C425   C     0.83705   0.23232   0.04288   0.00000  Uiso   1.00
C426   C     0.84650   0.26187   0.99180   0.00000  Uiso   1.00
C427   C     0.84496   0.30698   0.87998   0.00000  Uiso   1.00
C428   C     0.94488   0.23117   0.27377   0.00000  Uiso   1.00
C429   C     0.90158   0.22375   0.36491   0.00000  Uiso   1.00
C430   C     0.90166   0.23552   0.47540   0.00000  Uiso   1.00
C431   C     0.85837   0.22589   0.54578   0.00000  Uiso   1.00
C432   C     0.96748   0.19882   0.23451   0.00000  Uiso   1.00
C433   C     0.02299   0.18964   0.23534   0.00000  Uiso   1.00
C434   C     0.03519   0.15903   0.19594   0.00000  Uiso   1.00
C435   C     0.91277   0.24488   0.17293   0.00000  Uiso   1.00
C436   C     0.92229   0.27441   0.12197   0.00000  Uiso   1.00
C437   C     0.88843   0.28257   0.03069   0.00000  Uiso   1.00
H438   H     0.83525   0.17704   0.17207   0.00000  Uiso   1.00
H439   H     0.78404   0.17743   0.36625   0.00000  Uiso   1.00
H440   H     0.90535   0.13157   0.12622   0.00000  Uiso   1.00
H441   H     0.80466   0.21632   0.01286   0.00000  Uiso   1.00
H442   H     0.74574   0.18698   0.59865   0.00000  Uiso   1.00
H443   H     0.00153   0.09027   0.09251   0.00000  Uiso   1.00
H444   H     0.78921   0.26899   0.85346   0.00000  Uiso   1.00
H445   H     0.97746   0.24726   0.30400   0.00000  Uiso   1.00
H446   H     0.93406   0.25151   0.50541   0.00000  Uiso   1.00
H447   H     0.05537   0.20564   0.26539   0.00000  Uiso   1.00
H448   H     0.95468   0.29040   0.15203   0.00000  Uiso   1.00
H449   H     0.86750   0.24710   0.71161   0.00000  Uiso   1.00
H450   H     0.12329   0.15039   0.20546   0.00000  Uiso   1.00
H451   H     0.91097   0.32911   0.96642   0.00000  Uiso   1.00
O452   O     0.77551   0.21856   0.78526   0.00000  Uiso   1.00
O453   O     0.11110   0.09168   0.12120   0.00000  Uiso   1.00
O454   O     0.83254   0.32616   0.80758   0.00000  Uiso   1.00
N455   N     0.78035   0.20055   0.59759   0.00000  Uiso   1.00
N456   N     0.01949   0.11013   0.12439   0.00000  Uiso   1.00
N457   N     0.82100   0.27722   0.90089   0.00000  Uiso   1.00
N458   N     0.84586   0.23290   0.65837   0.00000  Uiso   1.00
N459   N     0.08501   0.14248   0.18517   0.00000  Uiso   1.00
N460   N     0.88652   0.30957   0.96167   0.00000  Uiso   1.00
C461   C     0.36783   0.69313   0.20230   0.00000  Uiso   1.00
C462   C     0.35972   0.70308   0.32609   0.00000  Uiso   1.00
C463   C     0.31642   0.69343   0.39632   0.00000  Uiso   1.00
C464   C     0.31644   0.70518   0.50689   0.00000  Uiso   1.00
C465   C     0.29751   0.71748   0.69321   0.00000  Uiso   1.00
C466   C     0.42563   0.67816   0.19569   0.00000  Uiso   1.00
C467   C     0.43775   0.64755   0.15627   0.00000  Uiso   1.00
C468   C     0.49326   0.63833   0.15705   0.00000  Uiso   1.00
C469   C     0.57666   0.61194   0.14085   0.00000  Uiso   1.00
C470   C     0.37092   0.72421   0.13411   0.00000  Uiso   1.00
C471   C     0.33705   0.73232   0.04288   0.00000  Uiso   1.00
C472   C     0.34650   0.76187   0.99180   0.00000  Uiso   1.00
C473   C     0.34496   0.80698   0.87998   0.00000  Uiso   1.00
C474   C     0.44488   0.73117   0.27377   0.00000  Uiso   1.00
C475   C     0.40158   0.72375   0.36491   0.00000  Uiso   1.00
C476   C     0.40166   0.73552   0.47540   0.00000  Uiso   1.00
C477   C     0.35837   0.72589   0.54578   0.00000  Uiso   1.00
C478   C     0.46748   0.69882   0.23451   0.00000  Uiso   1.00
C479   C     0.52299   0.68964   0.23534   0.00000  Uiso   1.00
C480   C     0.53519   0.65903   0.19594   0.00000  Uiso   1.00
C481   C     0.41277   0.74488   0.17293   0.00000  Uiso   1.00
C482   C     0.42229   0.77441   0.12197   0.00000  Uiso   1.00
C483   C     0.38843   0.78257   0.03069   0.00000  Uiso   1.00
H484   H     0.33525   0.67704   0.17207   0.00000  Uiso   1.00
H485   H     0.28404   0.67743   0.36625   0.00000  Uiso   1.00
H486   H     0.40535   0.63157   0.12622   0.00000  Uiso   1.00
H487   H     0.30466   0.71632   0.01286   0.00000  Uiso   1.00
H488   H     0.24574   0.68698   0.59865   0.00000  Uiso   1.00
H489   H     0.50153   0.59027   0.09251   0.00000  Uiso   1.00
H490   H     0.28921   0.76899   0.85346   0.00000  Uiso   1.00
H491   H     0.47746   0.74726   0.30400   0.00000  Uiso   1.00
H492   H     0.43406   0.75151   0.50541   0.00000  Uiso   1.00
H493   H     0.55537   0.70564   0.26539   0.00000  Uiso   1.00
H494   H     0.45468   0.79040   0.15203   0.00000  Uiso   1.00
H495   H     0.36750   0.74710   0.71161   0.00000  Uiso   1.00
H496   H     0.62329   0.65039   0.20546   0.00000  Uiso   1.00
H497   H     0.41097   0.82911   0.96642   0.00000  Uiso   1.00
O498   O     0.27551   0.71856   0.78526   0.00000  Uiso   1.00
O499   O     0.61110   0.59168   0.12120   0.00000  Uiso   1.00
O500   O     0.33254   0.82616   0.80758   0.00000  Uiso   1.00
N501   N     0.28035   0.70055   0.59759   0.00000  Uiso   1.00
N502   N     0.51949   0.61013   0.12439   0.00000  Uiso   1.00
N503   N     0.32100   0.77722   0.90089   0.00000  Uiso   1.00
N504   N     0.34586   0.73290   0.65837   0.00000  Uiso   1.00
N505   N     0.58501   0.64248   0.18517   0.00000  Uiso   1.00
N506   N     0.38652   0.80957   0.96167   0.00000  Uiso   1.00
C507   C     0.36783   0.19313   0.70230   0.00000  Uiso   1.00
C508   C     0.35972   0.20308   0.82609   0.00000  Uiso   1.00
C509   C     0.31642   0.19343   0.89632   0.00000  Uiso   1.00
C510   C     0.31644   0.20518   0.00689   0.00000  Uiso   1.00
C511   C     0.29751   0.21748   0.19321   0.00000  Uiso   1.00
C512   C     0.42563   0.17816   0.69569   0.00000  Uiso   1.00
C513   C     0.43775   0.14755   0.65627   0.00000  Uiso   1.00
C514   C     0.49326   0.13833   0.65705   0.00000  Uiso   1.00
C515   C     0.57666   0.11194   0.64085   0.00000  Uiso   1.00
C516   C     0.37092   0.22421   0.63411   0.00000  Uiso   1.00
C517   C     0.33705   0.23232   0.54288   0.00000  Uiso   1.00
C518   C     0.34650   0.26187   0.49180   0.00000  Uiso   1.00
C519   C     0.34496   0.30698   0.37998   0.00000  Uiso   1.00
C520   C     0.44488   0.23117   0.77377   0.00000  Uiso   1.00
C521   C     0.40158   0.22375   0.86491   0.00000  Uiso   1.00
C522   C     0.40166   0.23552   0.97540   0.00000  Uiso   1.00
C523   C     0.35837   0.22589   0.04578   0.00000  Uiso   1.00
C524   C     0.46748   0.19882   0.73451   0.00000  Uiso   1.00
C525   C     0.52299   0.18964   0.73534   0.00000  Uiso   1.00
C526   C     0.53519   0.15903   0.69594   0.00000  Uiso   1.00
C527   C     0.41277   0.24488   0.67293   0.00000  Uiso   1.00
C528   C     0.42229   0.27441   0.62197   0.00000  Uiso   1.00
C529   C     0.38843   0.28257   0.53069   0.00000  Uiso   1.00
H530   H     0.33525   0.17704   0.67207   0.00000  Uiso   1.00
H531   H     0.28404   0.17743   0.86625   0.00000  Uiso   1.00
H532   H     0.40535   0.13157   0.62622   0.00000  Uiso   1.00
H533   H     0.30466   0.21632   0.51286   0.00000  Uiso   1.00
H534   H     0.24574   0.18698   0.09865   0.00000  Uiso   1.00
H535   H     0.50153   0.09027   0.59251   0.00000  Uiso   1.00
H536   H     0.28921   0.26899   0.35346   0.00000  Uiso   1.00
H537   H     0.47746   0.24726   0.80400   0.00000  Uiso   1.00
H538   H     0.43406   0.25151   0.00541   0.00000  Uiso   1.00
H539   H     0.55537   0.20564   0.76539   0.00000  Uiso   1.00
H540   H     0.45468   0.29040   0.65203   0.00000  Uiso   1.00
H541   H     0.36750   0.24710   0.21161   0.00000  Uiso   1.00
H542   H     0.62329   0.15039   0.70546   0.00000  Uiso   1.00
H543   H     0.41097   0.32911   0.46642   0.00000  Uiso   1.00
O544   O     0.27551   0.21856   0.28526   0.00000  Uiso   1.00
O545   O     0.61110   0.09168   0.62120   0.00000  Uiso   1.00
O546   O     0.33254   0.32616   0.30758   0.00000  Uiso   1.00
N547   N     0.28035   0.20055   0.09759   0.00000  Uiso   1.00
N548   N     0.51949   0.11013   0.62439   0.00000  Uiso   1.00
N549   N     0.32100   0.27722   0.40089   0.00000  Uiso   1.00
N550   N     0.34586   0.23290   0.15837   0.00000  Uiso   1.00
N551   N     0.58501   0.14248   0.68517   0.00000  Uiso   1.00
N552   N     0.38652   0.30957   0.46167   0.00000  Uiso   1.00
C553   C     0.63217   0.80687   0.70230   0.00000  Uiso   1.00
C554   C     0.64028   0.79692   0.82609   0.00000  Uiso   1.00
C555   C     0.68358   0.80657   0.89632   0.00000  Uiso   1.00
C556   C     0.68356   0.79482   0.00689   0.00000  Uiso   1.00
C557   C     0.70249   0.78252   0.19321   0.00000  Uiso   1.00
C558   C     0.57437   0.82184   0.69569   0.00000  Uiso   1.00
C559   C     0.56225   0.85245   0.65627   0.00000  Uiso   1.00
C560   C     0.50674   0.86167   0.65705   0.00000  Uiso   1.00
C561   C     0.42334   0.88806   0.64085   0.00000  Uiso   1.00
C562   C     0.62908   0.77579   0.63411   0.00000  Uiso   1.00
C563   C     0.66295   0.76768   0.54288   0.00000  Uiso   1.00
C564   C     0.65350   0.73813   0.49180   0.00000  Uiso   1.00
C565   C     0.65504   0.69302   0.37998   0.00000  Uiso   1.00
C566   C     0.55512   0.76883   0.77377   0.00000  Uiso   1.00
C567   C     0.59842   0.77625   0.86491   0.00000  Uiso   1.00
C568   C     0.59834   0.76448   0.97540   0.00000  Uiso   1.00
C569   C     0.64163   0.77411   0.04578   0.00000  Uiso   1.00
C570   C     0.53252   0.80118   0.73451   0.00000  Uiso   1.00
C571   C     0.47701   0.81036   0.73534   0.00000  Uiso   1.00
C572   C     0.46481   0.84097   0.69594   0.00000  Uiso   1.00
C573   C     0.58723   0.75512   0.67293   0.00000  Uiso   1.00
C574   C     0.57771   0.72559   0.62197   0.00000  Uiso   1.00
C575   C     0.61157   0.71743   0.53069   0.00000  Uiso   1.00
H576   H     0.66475   0.82296   0.67207   0.00000  Uiso   1.00
H577   H     0.71596   0.82257   0.86625   0.00000  Uiso   1.00
H578   H     0.59465   0.86843   0.62622   0.00000  Uiso   1.00
H579   H     0.69534   0.78368   0.51286   0.00000  Uiso   1.00
H580   H     0.75426   0.81302   0.09865   0.00000  Uiso   1.00
H581   H     0.49847   0.90973   0.59251   0.00000  Uiso   1.00
H582   H     0.71079   0.73101   0.35346   0.00000  Uiso   1.00
H583   H     0.52254   0.75274   0.80400   0.00000  Uiso   1.00
H584   H     0.56594   0.74849   0.00541   0.00000  Uiso   1.00
H585   H     0.44463   0.79436   0.76539   0.00000  Uiso   1.00
H586   H     0.54532   0.70960   0.65203   0.00000  Uiso   1.00
H587   H     0.63250   0.75290   0.21161   0.00000  Uiso   1.00
H588   H     0.37671   0.84961   0.70546   0.00000  Uiso   1.00
H589   H     0.58903   0.67089   0.46642   0.00000  Uiso   1.00
O590   O     0.72449   0.78144   0.28526   0.00000  Uiso   1.00
O591   O     0.38890   0.90832   0.62120   0.00000  Uiso   1.00
O592   O     0.66746   0.67384   0.30758   0.00000  Uiso   1.00
N593   N     0.71965   0.79945   0.09759   0.00000  Uiso   1.00
N594   N     0.48051   0.88987   0.62439   0.00000  Uiso   1.00
N595   N     0.67900   0.72278   0.40089   0.00000  Uiso   1.00
N596   N     0.65414   0.76710   0.15837   0.00000  Uiso   1.00
N597   N     0.41499   0.85752   0.68517   0.00000  Uiso   1.00
N598   N     0.61348   0.69043   0.46167   0.00000  Uiso   1.00
C599   C     0.63217   0.30687   0.20230   0.00000  Uiso   1.00
C600   C     0.64028   0.29692   0.32609   0.00000  Uiso   1.00
C601   C     0.68358   0.30657   0.39632   0.00000  Uiso   1.00
C602   C     0.68356   0.29482   0.50689   0.00000  Uiso   1.00
C603   C     0.70249   0.28252   0.69321   0.00000  Uiso   1.00
C604   C     0.57437   0.32184   0.19569   0.00000  Uiso   1.00
C605   C     0.56225   0.35245   0.15627   0.00000  Uiso   1.00
C606   C     0.50674   0.36167   0.15705   0.00000  Uiso   1.00
C607   C     0.42334   0.38806   0.14085   0.00000  Uiso   1.00
C608   C     0.62908   0.27579   0.13411   0.00000  Uiso   1.00
C609   C     0.66295   0.26768   0.04288   0.00000  Uiso   1.00
C610   C     0.65350   0.23813   0.99180   0.00000  Uiso   1.00
C611   C     0.65504   0.19302   0.87998   0.00000  Uiso   1.00
C612   C     0.55512   0.26883   0.27377   0.00000  Uiso   1.00
C613   C     0.59842   0.27625   0.36491   0.00000  Uiso   1.00
C614   C     0.59834   0.26448   0.47540   0.00000  Uiso   1.00
C615   C     0.64163   0.27411   0.54578   0.00000  Uiso   1.00
C616   C     0.53252   0.30118   0.23451   0.00000  Uiso   1.00
C617   C     0.47701   0.31036   0.23534   0.00000  Uiso   1.00
C618   C     0.46481   0.34097   0.19594   0.00000  Uiso   1.00
C619   C     0.58723   0.25512   0.17293   0.00000  Uiso   1.00
C620   C     0.57771   0.22559   0.12197   0.00000  Uiso   1.00
C621   C     0.61157   0.21743   0.03069   0.00000  Uiso   1.00
H622   H     0.66475   0.32296   0.17207   0.00000  Uiso   1.00
H623   H     0.71596   0.32257   0.36625   0.00000  Uiso   1.00
H624   H     0.59465   0.36843   0.12622   0.00000  Uiso   1.00
H625   H     0.69534   0.28368   0.01286   0.00000  Uiso   1.00
H626   H     0.75426   0.31302   0.59865   0.00000  Uiso   1.00
H627   H     0.49847   0.40973   0.09251   0.00000  Uiso   1.00
H628   H     0.71079   0.23101   0.85346   0.00000  Uiso   1.00
H629   H     0.52254   0.25274   0.30400   0.00000  Uiso   1.00
H630   H     0.56594   0.24849   0.50541   0.00000  Uiso   1.00
H631   H     0.44463   0.29436   0.26539   0.00000  Uiso   1.00
H632   H     0.54532   0.20960   0.15203   0.00000  Uiso   1.00
H633   H     0.63250   0.25290   0.71161   0.00000  Uiso   1.00
H634   H     0.37671   0.34961   0.20546   0.00000  Uiso   1.00
H635   H     0.58903   0.17089   0.96642   0.00000  Uiso   1.00
O636   O     0.72449   0.28144   0.78526   0.00000  Uiso   1.00
O637   O     0.38890   0.40832   0.12120   0.00000  Uiso   1.00
O638   O     0.66746   0.17384   0.80758   0.00000  Uiso   1.00
N639   N     0.71965   0.29945   0.59759   0.00000  Uiso   1.00
N640   N     0.48051   0.38987   0.12439   0.00000  Uiso   1.00
N641   N     0.67900   0.22278   0.90089   0.00000  Uiso   1.00
N642   N     0.65414   0.26710   0.65837   0.00000  Uiso   1.00
N643   N     0.41499   0.35752   0.18517   0.00000  Uiso   1.00
N644   N     0.61348   0.19043   0.96167   0.00000  Uiso   1.00
C645   C     0.13217   0.80687   0.20230   0.00000  Uiso   1.00
C646   C     0.14028   0.79692   0.32609   0.00000  Uiso   1.00
C647   C     0.18358   0.80657   0.39632   0.00000  Uiso   1.00
C648   C     0.18356   0.79482   0.50689   0.00000  Uiso   1.00
C649   C     0.20249   0.78252   0.69321   0.00000  Uiso   1.00
C650   C     0.07437   0.82184   0.19569   0.00000  Uiso   1.00
C651   C     0.06225   0.85245   0.15627   0.00000  Uiso   1.00
C652   C     0.00674   0.86167   0.15705   0.00000  Uiso   1.00
C653   C     0.92334   0.88806   0.14085   0.00000  Uiso   1.00
C654   C     0.12908   0.77579   0.13411   0.00000  Uiso   1.00
C655   C     0.16295   0.76768   0.04288   0.00000  Uiso   1.00
C656   C     0.15350   0.73813   0.99180   0.00000  Uiso   1.00
C657   C     0.15504   0.69302   0.87998   0.00000  Uiso   1.00
C658   C     0.05512   0.76883   0.27377   0.00000  Uiso   1.00
C659   C     0.09842   0.77625   0.36491   0.00000  Uiso   1.00
C660   C     0.09834   0.76448   0.47540   0.00000  Uiso   1.00
C661   C     0.14163   0.77411   0.54578   0.00000  Uiso   1.00
C662   C     0.03252   0.80118   0.23451   0.00000  Uiso   1.00
C663   C     0.97701   0.81036   0.23534   0.00000  Uiso   1.00
C664   C     0.96481   0.84097   0.19594   0.00000  Uiso   1.00
C665   C     0.08723   0.75512   0.17293   0.00000  Uiso   1.00
C666   C     0.07771   0.72559   0.12197   0.00000  Uiso   1.00
C667   C     0.11157   0.71743   0.03069   0.00000  Uiso   1.00
H668   H     0.16475   0.82296   0.17207   0.00000  Uiso   1.00
H669   H     0.21596   0.82257   0.36625   0.00000  Uiso   1.00
H670   H     0.09465   0.86843   0.12622   0.00000  Uiso   1.00
H671   H     0.19534   0.78368   0.01286   0.00000  Uiso   1.00
H672   H     0.25426   0.81302   0.59865   0.00000  Uiso   1.00
H673   H     0.99847   0.90973   0.09251   0.00000  Uiso   1.00
H674   H     0.21079   0.73101   0.85346   0.00000  Uiso   1.00
H675   H     0.02254   0.75274   0.30400   0.00000  Uiso   1.00
H676   H     0.06594   0.74849   0.50541   0.00000  Uiso   1.00
H677   H     0.94463   0.79436   0.26539   0.00000  Uiso   1.00
H678   H     0.04532   0.70960   0.15203   0.00000  Uiso   1.00
H679   H     0.13250   0.75290   0.71161   0.00000  Uiso   1.00
H680   H     0.87671   0.84961   0.20546   0.00000  Uiso   1.00
H681   H     0.08903   0.67089   0.96642   0.00000  Uiso   1.00
O682   O     0.22449   0.78144   0.78526   0.00000  Uiso   1.00
O683   O     0.88890   0.90832   0.12120   0.00000  Uiso   1.00
O684   O     0.16746   0.67384   0.80758   0.00000  Uiso   1.00
N685   N     0.21965   0.79945   0.59759   0.00000  Uiso   1.00
N686   N     0.98051   0.88987   0.12439   0.00000  Uiso   1.00
N687   N     0.17900   0.72278   0.90089   0.00000  Uiso   1.00
N688   N     0.15414   0.76710   0.65837   0.00000  Uiso   1.00
N689   N     0.91499   0.85752   0.18517   0.00000  Uiso   1.00
N690   N     0.11348   0.69043   0.96167   0.00000  Uiso   1.00
C691   C     0.13217   0.30687   0.70230   0.00000  Uiso   1.00
C692   C     0.14028   0.29692   0.82609   0.00000  Uiso   1.00
C693   C     0.18358   0.30657   0.89632   0.00000  Uiso   1.00
C694   C     0.18356   0.29482   0.00689   0.00000  Uiso   1.00
C695   C     0.20249   0.28252   0.19321   0.00000  Uiso   1.00
C696   C     0.07437   0.32184   0.69569   0.00000  Uiso   1.00
C697   C     0.06225   0.35245   0.65627   0.00000  Uiso   1.00
C698   C     0.00674   0.36167   0.65705   0.00000  Uiso   1.00
C699   C     0.92334   0.38806   0.64085   0.00000  Uiso   1.00
C700   C     0.12908   0.27579   0.63411   0.00000  Uiso   1.00
C701   C     0.16295   0.26768   0.54288   0.00000  Uiso   1.00
C702   C     0.15350   0.23813   0.49180   0.00000  Uiso   1.00
C703   C     0.15504   0.19302   0.37998   0.00000  Uiso   1.00
C704   C     0.05512   0.26883   0.77377   0.00000  Uiso   1.00
C705   C     0.09842   0.27625   0.86491   0.00000  Uiso   1.00
C706   C     0.09834   0.26448   0.97540   0.00000  Uiso   1.00
C707   C     0.14163   0.27411   0.04578   0.00000  Uiso   1.00
C708   C     0.03252   0.30118   0.73451   0.00000  Uiso   1.00
C709   C     0.97701   0.31036   0.73534   0.00000  Uiso   1.00
C710   C     0.96481   0.34097   0.69594   0.00000  Uiso   1.00
C711   C     0.08723   0.25512   0.67293   0.00000  Uiso   1.00
C712   C     0.07771   0.22559   0.62197   0.00000  Uiso   1.00
C713   C     0.11157   0.21743   0.53069   0.00000  Uiso   1.00
H714   H     0.16475   0.32296   0.67207   0.00000  Uiso   1.00
H715   H     0.21596   0.32257   0.86625   0.00000  Uiso   1.00
H716   H     0.09465   0.36843   0.62622   0.00000  Uiso   1.00
H717   H     0.19534   0.28368   0.51286   0.00000  Uiso   1.00
H718   H     0.25426   0.31302   0.09865   0.00000  Uiso   1.00
H719   H     0.99847   0.40973   0.59251   0.00000  Uiso   1.00
H720   H     0.21079   0.23101   0.35346   0.00000  Uiso   1.00
H721   H     0.02254   0.25274   0.80400   0.00000  Uiso   1.00
H722   H     0.06594   0.24849   0.00541   0.00000  Uiso   1.00
H723   H     0.94463   0.29436   0.76539   0.00000  Uiso   1.00
H724   H     0.04532   0.20960   0.65203   0.00000  Uiso   1.00
H725   H     0.13250   0.25290   0.21161   0.00000  Uiso   1.00
H726   H     0.87671   0.34961   0.70546   0.00000  Uiso   1.00
H727   H     0.08903   0.17089   0.46642   0.00000  Uiso   1.00
O728   O     0.22449   0.28144   0.28526   0.00000  Uiso   1.00
O729   O     0.88890   0.40832   0.62120   0.00000  Uiso   1.00
O730   O     0.16746   0.17384   0.30758   0.00000  Uiso   1.00
N731   N     0.21965   0.29945   0.09759   0.00000  Uiso   1.00
N732   N     0.98051   0.38987   0.62439   0.00000  Uiso   1.00
N733   N     0.17900   0.22278   0.40089   0.00000  Uiso   1.00
N734   N     0.15414   0.26710   0.15837   0.00000  Uiso   1.00
N735   N     0.91499   0.35752   0.68517   0.00000  Uiso   1.00
N736   N     0.11348   0.19043   0.46167   0.00000  Uiso   1.00
