data_job_01712
_audit_creation_date              2018-12-19
_audit_creation_method            'Materials Studio'
_symmetry_space_group_name_H-M    'P1'
_symmetry_Int_Tables_number       1
_symmetry_cell_setting            triclinic
loop_
_symmetry_equiv_pos_as_xyz
  x,y,z
_cell_length_a                    23.7791
_cell_length_b                    23.7791
_cell_length_c                    16.0815
_cell_angle_alpha                 90.0000
_cell_angle_beta                  90.0000
_cell_angle_gamma                 90.0000
loop_
_atom_site_label
_atom_site_type_symbol
_atom_site_fract_x
_atom_site_fract_y
_atom_site_fract_z
_atom_site_U_iso_or_equiv
_atom_site_adp_type
_atom_site_occupancy
C1     C     0.76954   0.41555   0.18970   0.00000  Uiso   1.00
C2     C     0.79003   0.44584   0.11180   0.00000  Uiso   1.00
C3     C     0.76093   0.48730   0.06895   0.00000  Uiso   1.00
C4     C     0.78686   0.50978   0.99911   0.00000  Uiso   1.00
C5     C     0.81058   0.55957   0.88207   0.00000  Uiso   1.00
C6     C     0.77077   0.35297   0.16910   0.00000  Uiso   1.00
C7     C     0.72546   0.31635   0.17444   0.00000  Uiso   1.00
C8     C     0.73518   0.26066   0.15284   0.00000  Uiso   1.00
C9     C     0.72901   0.16627   0.12483   0.00000  Uiso   1.00
C10    C     0.81485   0.42469   0.25542   0.00000  Uiso   1.00
C11    C     0.80662   0.44837   0.33336   0.00000  Uiso   1.00
C12    C     0.85345   0.45305   0.38445   0.00000  Uiso   1.00
C13    C     0.91573   0.47002   0.49046   0.00000  Uiso   1.00
C14    C     0.86736   0.38176   0.14187   0.00000  Uiso   1.00
C15    C     0.84316   0.42748   0.08582   0.00000  Uiso   1.00
C16    C     0.86915   0.44991   0.01603   0.00000  Uiso   1.00
C17    C     0.84009   0.49140   0.97308   0.00000  Uiso   1.00
C18    C     0.82389   0.33461   0.14312   0.00000  Uiso   1.00
C19    C     0.83368   0.27896   0.12152   0.00000  Uiso   1.00
C20    C     0.78841   0.24227   0.12681   0.00000  Uiso   1.00
C21    C     0.86798   0.40634   0.22944   0.00000  Uiso   1.00
C22    C     0.91484   0.41098   0.28043   0.00000  Uiso   1.00
C23    C     0.90668   0.43466   0.35842   0.00000  Uiso   1.00
H24    H     0.72818   0.42984   0.20993   0.00000  Uiso   1.00
H25    H     0.71981   0.50149   0.08907   0.00000  Uiso   1.00
H26    H     0.68436   0.33057   0.19455   0.00000  Uiso   1.00
H27    H     0.76550   0.46257   0.35344   0.00000  Uiso   1.00
H28    H     0.73395   0.57281   0.94360   0.00000  Uiso   1.00
H29    H     0.65920   0.21241   0.16604   0.00000  Uiso   1.00
H30    H     0.83030   0.49076   0.50110   0.00000  Uiso   1.00
H31    H     0.90872   0.36747   0.12164   0.00000  Uiso   1.00
H32    H     0.91026   0.43569   0.99593   0.00000  Uiso   1.00
H33    H     0.87481   0.26477   0.10142   0.00000  Uiso   1.00
H34    H     0.95595   0.39677   0.26030   0.00000  Uiso   1.00
H35    H     0.88853   0.51941   0.86801   0.00000  Uiso   1.00
H36    H     0.81378   0.15901   0.09045   0.00000  Uiso   1.00
H37    H     0.98488   0.43736   0.42550   0.00000  Uiso   1.00
O38    O     0.80899   0.59210   0.82469   0.00000  Uiso   1.00
O39    O     0.71092   0.11927   0.11654   0.00000  Uiso   1.00
O40    O     0.93540   0.48446   0.55611   0.00000  Uiso   1.00
N41    N     0.77013   0.55089   0.94307   0.00000  Uiso   1.00
N42    N     0.70023   0.21394   0.15103   0.00000  Uiso   1.00
N43    N     0.86020   0.47416   0.46428   0.00000  Uiso   1.00
N44    N     0.85330   0.52215   0.90240   0.00000  Uiso   1.00
N45    N     0.78341   0.18520   0.11035   0.00000  Uiso   1.00
N46    N     0.94338   0.44542   0.42360   0.00000  Uiso   1.00
C47    C     0.26954   0.91555   0.68970   0.00000  Uiso   1.00
C48    C     0.29003   0.94584   0.61180   0.00000  Uiso   1.00
C49    C     0.26093   0.98730   0.56895   0.00000  Uiso   1.00
C50    C     0.28686   0.00978   0.49911   0.00000  Uiso   1.00
C51    C     0.31058   0.05957   0.38207   0.00000  Uiso   1.00
C52    C     0.27077   0.85297   0.66910   0.00000  Uiso   1.00
C53    C     0.22546   0.81635   0.67444   0.00000  Uiso   1.00
C54    C     0.23518   0.76066   0.65284   0.00000  Uiso   1.00
C55    C     0.22901   0.66627   0.62483   0.00000  Uiso   1.00
C56    C     0.31485   0.92469   0.75542   0.00000  Uiso   1.00
C57    C     0.30662   0.94837   0.83336   0.00000  Uiso   1.00
C58    C     0.35345   0.95305   0.88445   0.00000  Uiso   1.00
C59    C     0.41573   0.97002   0.99046   0.00000  Uiso   1.00
C60    C     0.36736   0.88176   0.64187   0.00000  Uiso   1.00
C61    C     0.34316   0.92748   0.58582   0.00000  Uiso   1.00
C62    C     0.36915   0.94991   0.51603   0.00000  Uiso   1.00
C63    C     0.34009   0.99140   0.47308   0.00000  Uiso   1.00
C64    C     0.32389   0.83461   0.64312   0.00000  Uiso   1.00
C65    C     0.33368   0.77896   0.62152   0.00000  Uiso   1.00
C66    C     0.28841   0.74227   0.62681   0.00000  Uiso   1.00
C67    C     0.36798   0.90634   0.72944   0.00000  Uiso   1.00
C68    C     0.41484   0.91098   0.78043   0.00000  Uiso   1.00
C69    C     0.40668   0.93466   0.85842   0.00000  Uiso   1.00
H70    H     0.22818   0.92984   0.70993   0.00000  Uiso   1.00
H71    H     0.21981   0.00149   0.58907   0.00000  Uiso   1.00
H72    H     0.18436   0.83057   0.69455   0.00000  Uiso   1.00
H73    H     0.26550   0.96257   0.85344   0.00000  Uiso   1.00
H74    H     0.23395   0.07281   0.44360   0.00000  Uiso   1.00
H75    H     0.15920   0.71241   0.66604   0.00000  Uiso   1.00
H76    H     0.33030   0.99076   0.00110   0.00000  Uiso   1.00
H77    H     0.40872   0.86747   0.62164   0.00000  Uiso   1.00
H78    H     0.41026   0.93569   0.49593   0.00000  Uiso   1.00
H79    H     0.37481   0.76477   0.60142   0.00000  Uiso   1.00
H80    H     0.45595   0.89677   0.76030   0.00000  Uiso   1.00
H81    H     0.38853   0.01941   0.36801   0.00000  Uiso   1.00
H82    H     0.31378   0.65901   0.59045   0.00000  Uiso   1.00
H83    H     0.48488   0.93736   0.92550   0.00000  Uiso   1.00
O84    O     0.30899   0.09210   0.32469   0.00000  Uiso   1.00
O85    O     0.21092   0.61927   0.61654   0.00000  Uiso   1.00
O86    O     0.43540   0.98446   0.05611   0.00000  Uiso   1.00
N87    N     0.27013   0.05089   0.44307   0.00000  Uiso   1.00
N88    N     0.20023   0.71394   0.65103   0.00000  Uiso   1.00
N89    N     0.36020   0.97416   0.96428   0.00000  Uiso   1.00
N90    N     0.35330   0.02215   0.40240   0.00000  Uiso   1.00
N91    N     0.28341   0.68520   0.61035   0.00000  Uiso   1.00
N92    N     0.44338   0.94542   0.92360   0.00000  Uiso   1.00
C93    C     0.73046   0.08445   0.68970   0.00000  Uiso   1.00
C94    C     0.70997   0.05416   0.61180   0.00000  Uiso   1.00
C95    C     0.73907   0.01270   0.56895   0.00000  Uiso   1.00
C96    C     0.71314   0.99022   0.49911   0.00000  Uiso   1.00
C97    C     0.68942   0.94043   0.38207   0.00000  Uiso   1.00
C98    C     0.72923   0.14703   0.66910   0.00000  Uiso   1.00
C99    C     0.77454   0.18365   0.67444   0.00000  Uiso   1.00
C100   C     0.76482   0.23934   0.65284   0.00000  Uiso   1.00
C101   C     0.77099   0.33373   0.62483   0.00000  Uiso   1.00
C102   C     0.68515   0.07531   0.75542   0.00000  Uiso   1.00
C103   C     0.69338   0.05163   0.83336   0.00000  Uiso   1.00
C104   C     0.64655   0.04695   0.88445   0.00000  Uiso   1.00
C105   C     0.58427   0.02998   0.99046   0.00000  Uiso   1.00
C106   C     0.63264   0.11824   0.64187   0.00000  Uiso   1.00
C107   C     0.65684   0.07252   0.58582   0.00000  Uiso   1.00
C108   C     0.63085   0.05009   0.51603   0.00000  Uiso   1.00
C109   C     0.65991   0.00860   0.47308   0.00000  Uiso   1.00
C110   C     0.67611   0.16539   0.64312   0.00000  Uiso   1.00
C111   C     0.66632   0.22104   0.62152   0.00000  Uiso   1.00
C112   C     0.71159   0.25773   0.62681   0.00000  Uiso   1.00
C113   C     0.63202   0.09366   0.72944   0.00000  Uiso   1.00
C114   C     0.58516   0.08902   0.78043   0.00000  Uiso   1.00
C115   C     0.59332   0.06534   0.85842   0.00000  Uiso   1.00
H116   H     0.77182   0.07016   0.70993   0.00000  Uiso   1.00
H117   H     0.78019   0.99851   0.58907   0.00000  Uiso   1.00
H118   H     0.81564   0.16943   0.69455   0.00000  Uiso   1.00
H119   H     0.73450   0.03743   0.85344   0.00000  Uiso   1.00
H120   H     0.76605   0.92719   0.44360   0.00000  Uiso   1.00
H121   H     0.84080   0.28759   0.66604   0.00000  Uiso   1.00
H122   H     0.66970   0.00924   0.00110   0.00000  Uiso   1.00
H123   H     0.59128   0.13253   0.62164   0.00000  Uiso   1.00
H124   H     0.58974   0.06431   0.49593   0.00000  Uiso   1.00
H125   H     0.62519   0.23523   0.60142   0.00000  Uiso   1.00
H126   H     0.54405   0.10323   0.76030   0.00000  Uiso   1.00
H127   H     0.61147   0.98059   0.36801   0.00000  Uiso   1.00
H128   H     0.68622   0.34099   0.59045   0.00000  Uiso   1.00
H129   H     0.51512   0.06264   0.92550   0.00000  Uiso   1.00
O130   O     0.69101   0.90790   0.32469   0.00000  Uiso   1.00
O131   O     0.78908   0.38073   0.61654   0.00000  Uiso   1.00
O132   O     0.56460   0.01554   0.05611   0.00000  Uiso   1.00
N133   N     0.72987   0.94911   0.44307   0.00000  Uiso   1.00
N134   N     0.79977   0.28606   0.65103   0.00000  Uiso   1.00
N135   N     0.63980   0.02584   0.96428   0.00000  Uiso   1.00
N136   N     0.64670   0.97785   0.40240   0.00000  Uiso   1.00
N137   N     0.71659   0.31480   0.61035   0.00000  Uiso   1.00
N138   N     0.55662   0.05458   0.92360   0.00000  Uiso   1.00
C139   C     0.23046   0.58445   0.18970   0.00000  Uiso   1.00
C140   C     0.20997   0.55416   0.11180   0.00000  Uiso   1.00
C141   C     0.23907   0.51270   0.06895   0.00000  Uiso   1.00
C142   C     0.21314   0.49022   0.99911   0.00000  Uiso   1.00
C143   C     0.18942   0.44043   0.88207   0.00000  Uiso   1.00
C144   C     0.22923   0.64703   0.16910   0.00000  Uiso   1.00
C145   C     0.27454   0.68365   0.17444   0.00000  Uiso   1.00
C146   C     0.26482   0.73934   0.15284   0.00000  Uiso   1.00
C147   C     0.27099   0.83373   0.12483   0.00000  Uiso   1.00
C148   C     0.18515   0.57531   0.25542   0.00000  Uiso   1.00
C149   C     0.19338   0.55163   0.33336   0.00000  Uiso   1.00
C150   C     0.14655   0.54695   0.38445   0.00000  Uiso   1.00
C151   C     0.08427   0.52998   0.49046   0.00000  Uiso   1.00
C152   C     0.13264   0.61824   0.14187   0.00000  Uiso   1.00
C153   C     0.15684   0.57252   0.08582   0.00000  Uiso   1.00
C154   C     0.13085   0.55009   0.01603   0.00000  Uiso   1.00
C155   C     0.15991   0.50860   0.97308   0.00000  Uiso   1.00
C156   C     0.17611   0.66539   0.14312   0.00000  Uiso   1.00
C157   C     0.16632   0.72104   0.12152   0.00000  Uiso   1.00
C158   C     0.21159   0.75773   0.12681   0.00000  Uiso   1.00
C159   C     0.13202   0.59366   0.22944   0.00000  Uiso   1.00
C160   C     0.08516   0.58902   0.28043   0.00000  Uiso   1.00
C161   C     0.09332   0.56534   0.35842   0.00000  Uiso   1.00
H162   H     0.27182   0.57016   0.20993   0.00000  Uiso   1.00
H163   H     0.28019   0.49851   0.08907   0.00000  Uiso   1.00
H164   H     0.31564   0.66943   0.19455   0.00000  Uiso   1.00
H165   H     0.23450   0.53743   0.35344   0.00000  Uiso   1.00
H166   H     0.26605   0.42719   0.94360   0.00000  Uiso   1.00
H167   H     0.34080   0.78759   0.16604   0.00000  Uiso   1.00
H168   H     0.16970   0.50924   0.50110   0.00000  Uiso   1.00
H169   H     0.09128   0.63253   0.12164   0.00000  Uiso   1.00
H170   H     0.08974   0.56431   0.99593   0.00000  Uiso   1.00
H171   H     0.12519   0.73523   0.10142   0.00000  Uiso   1.00
H172   H     0.04405   0.60323   0.26030   0.00000  Uiso   1.00
H173   H     0.11147   0.48059   0.86801   0.00000  Uiso   1.00
H174   H     0.18622   0.84099   0.09045   0.00000  Uiso   1.00
H175   H     0.01512   0.56264   0.42550   0.00000  Uiso   1.00
O176   O     0.19101   0.40790   0.82469   0.00000  Uiso   1.00
O177   O     0.28908   0.88073   0.11654   0.00000  Uiso   1.00
O178   O     0.06460   0.51554   0.55611   0.00000  Uiso   1.00
N179   N     0.22987   0.44911   0.94307   0.00000  Uiso   1.00
N180   N     0.29977   0.78606   0.15103   0.00000  Uiso   1.00
N181   N     0.13980   0.52584   0.46428   0.00000  Uiso   1.00
N182   N     0.14670   0.47785   0.90240   0.00000  Uiso   1.00
N183   N     0.21659   0.81480   0.11035   0.00000  Uiso   1.00
N184   N     0.05662   0.55458   0.42360   0.00000  Uiso   1.00
C185   C     0.58445   0.26954   0.43970   0.00000  Uiso   1.00
C186   C     0.55416   0.29003   0.36180   0.00000  Uiso   1.00
C187   C     0.51270   0.26093   0.31895   0.00000  Uiso   1.00
C188   C     0.49022   0.28686   0.24911   0.00000  Uiso   1.00
C189   C     0.44043   0.31058   0.13207   0.00000  Uiso   1.00
C190   C     0.64703   0.27077   0.41910   0.00000  Uiso   1.00
C191   C     0.68365   0.22546   0.42444   0.00000  Uiso   1.00
C192   C     0.73934   0.23518   0.40284   0.00000  Uiso   1.00
C193   C     0.83373   0.22901   0.37483   0.00000  Uiso   1.00
C194   C     0.57531   0.31485   0.50542   0.00000  Uiso   1.00
C195   C     0.55163   0.30662   0.58336   0.00000  Uiso   1.00
C196   C     0.54695   0.35345   0.63445   0.00000  Uiso   1.00
C197   C     0.52998   0.41573   0.74046   0.00000  Uiso   1.00
C198   C     0.61824   0.36736   0.39187   0.00000  Uiso   1.00
C199   C     0.57252   0.34316   0.33582   0.00000  Uiso   1.00
C200   C     0.55009   0.36915   0.26603   0.00000  Uiso   1.00
C201   C     0.50860   0.34009   0.22308   0.00000  Uiso   1.00
C202   C     0.66539   0.32389   0.39312   0.00000  Uiso   1.00
C203   C     0.72104   0.33368   0.37152   0.00000  Uiso   1.00
C204   C     0.75773   0.28841   0.37681   0.00000  Uiso   1.00
C205   C     0.59366   0.36798   0.47944   0.00000  Uiso   1.00
C206   C     0.58902   0.41484   0.53043   0.00000  Uiso   1.00
C207   C     0.56534   0.40668   0.60842   0.00000  Uiso   1.00
H208   H     0.57016   0.22818   0.45993   0.00000  Uiso   1.00
H209   H     0.49851   0.21981   0.33907   0.00000  Uiso   1.00
H210   H     0.66943   0.18436   0.44455   0.00000  Uiso   1.00
H211   H     0.53743   0.26550   0.60344   0.00000  Uiso   1.00
H212   H     0.42719   0.23395   0.19360   0.00000  Uiso   1.00
H213   H     0.78759   0.15920   0.41604   0.00000  Uiso   1.00
H214   H     0.50924   0.33030   0.75110   0.00000  Uiso   1.00
H215   H     0.63253   0.40872   0.37164   0.00000  Uiso   1.00
H216   H     0.56431   0.41026   0.24593   0.00000  Uiso   1.00
H217   H     0.73523   0.37481   0.35142   0.00000  Uiso   1.00
H218   H     0.60323   0.45595   0.51030   0.00000  Uiso   1.00
H219   H     0.48059   0.38853   0.11801   0.00000  Uiso   1.00
H220   H     0.84099   0.31378   0.34045   0.00000  Uiso   1.00
H221   H     0.56264   0.48488   0.67550   0.00000  Uiso   1.00
O222   O     0.40790   0.30899   0.07469   0.00000  Uiso   1.00
O223   O     0.88073   0.21092   0.36654   0.00000  Uiso   1.00
O224   O     0.51554   0.43540   0.80611   0.00000  Uiso   1.00
N225   N     0.44911   0.27013   0.19307   0.00000  Uiso   1.00
N226   N     0.78606   0.20023   0.40103   0.00000  Uiso   1.00
N227   N     0.52584   0.36020   0.71428   0.00000  Uiso   1.00
N228   N     0.47785   0.35330   0.15240   0.00000  Uiso   1.00
N229   N     0.81480   0.28341   0.36035   0.00000  Uiso   1.00
N230   N     0.55458   0.44338   0.67360   0.00000  Uiso   1.00
C231   C     0.08445   0.76954   0.93970   0.00000  Uiso   1.00
C232   C     0.05416   0.79003   0.86180   0.00000  Uiso   1.00
C233   C     0.01270   0.76093   0.81895   0.00000  Uiso   1.00
C234   C     0.99022   0.78686   0.74911   0.00000  Uiso   1.00
C235   C     0.94043   0.81058   0.63207   0.00000  Uiso   1.00
C236   C     0.14703   0.77077   0.91910   0.00000  Uiso   1.00
C237   C     0.18365   0.72546   0.92444   0.00000  Uiso   1.00
C238   C     0.23934   0.73518   0.90284   0.00000  Uiso   1.00
C239   C     0.33373   0.72901   0.87483   0.00000  Uiso   1.00
C240   C     0.07531   0.81485   0.00542   0.00000  Uiso   1.00
C241   C     0.05163   0.80662   0.08336   0.00000  Uiso   1.00
C242   C     0.04695   0.85345   0.13445   0.00000  Uiso   1.00
C243   C     0.02998   0.91573   0.24046   0.00000  Uiso   1.00
C244   C     0.11824   0.86736   0.89187   0.00000  Uiso   1.00
C245   C     0.07252   0.84316   0.83582   0.00000  Uiso   1.00
C246   C     0.05009   0.86915   0.76603   0.00000  Uiso   1.00
C247   C     0.00860   0.84009   0.72308   0.00000  Uiso   1.00
C248   C     0.16539   0.82389   0.89312   0.00000  Uiso   1.00
C249   C     0.22104   0.83368   0.87152   0.00000  Uiso   1.00
C250   C     0.25773   0.78841   0.87681   0.00000  Uiso   1.00
C251   C     0.09366   0.86798   0.97944   0.00000  Uiso   1.00
C252   C     0.08902   0.91484   0.03043   0.00000  Uiso   1.00
C253   C     0.06534   0.90668   0.10842   0.00000  Uiso   1.00
H254   H     0.07016   0.72818   0.95993   0.00000  Uiso   1.00
H255   H     0.99851   0.71981   0.83907   0.00000  Uiso   1.00
H256   H     0.16943   0.68436   0.94455   0.00000  Uiso   1.00
H257   H     0.03743   0.76550   0.10344   0.00000  Uiso   1.00
H258   H     0.92719   0.73395   0.69360   0.00000  Uiso   1.00
H259   H     0.28759   0.65920   0.91604   0.00000  Uiso   1.00
H260   H     0.00924   0.83030   0.25110   0.00000  Uiso   1.00
H261   H     0.13253   0.90872   0.87164   0.00000  Uiso   1.00
H262   H     0.06431   0.91026   0.74593   0.00000  Uiso   1.00
H263   H     0.23523   0.87481   0.85142   0.00000  Uiso   1.00
H264   H     0.10323   0.95595   0.01030   0.00000  Uiso   1.00
H265   H     0.98059   0.88853   0.61801   0.00000  Uiso   1.00
H266   H     0.34099   0.81378   0.84045   0.00000  Uiso   1.00
H267   H     0.06264   0.98488   0.17550   0.00000  Uiso   1.00
O268   O     0.90790   0.80899   0.57469   0.00000  Uiso   1.00
O269   O     0.38073   0.71092   0.86654   0.00000  Uiso   1.00
O270   O     0.01554   0.93540   0.30611   0.00000  Uiso   1.00
N271   N     0.94911   0.77013   0.69307   0.00000  Uiso   1.00
N272   N     0.28606   0.70023   0.90103   0.00000  Uiso   1.00
N273   N     0.02584   0.86020   0.21428   0.00000  Uiso   1.00
N274   N     0.97785   0.85330   0.65240   0.00000  Uiso   1.00
N275   N     0.31480   0.78341   0.86035   0.00000  Uiso   1.00
N276   N     0.05458   0.94338   0.17360   0.00000  Uiso   1.00
C277   C     0.91555   0.23046   0.93970   0.00000  Uiso   1.00
C278   C     0.94584   0.20997   0.86180   0.00000  Uiso   1.00
C279   C     0.98730   0.23907   0.81895   0.00000  Uiso   1.00
C280   C     0.00978   0.21314   0.74911   0.00000  Uiso   1.00
C281   C     0.05957   0.18942   0.63207   0.00000  Uiso   1.00
C282   C     0.85297   0.22923   0.91910   0.00000  Uiso   1.00
C283   C     0.81635   0.27454   0.92444   0.00000  Uiso   1.00
C284   C     0.76066   0.26482   0.90284   0.00000  Uiso   1.00
C285   C     0.66627   0.27099   0.87483   0.00000  Uiso   1.00
C286   C     0.92469   0.18515   0.00542   0.00000  Uiso   1.00
C287   C     0.94837   0.19338   0.08336   0.00000  Uiso   1.00
C288   C     0.95305   0.14655   0.13445   0.00000  Uiso   1.00
C289   C     0.97002   0.08427   0.24046   0.00000  Uiso   1.00
C290   C     0.88176   0.13264   0.89187   0.00000  Uiso   1.00
C291   C     0.92748   0.15684   0.83582   0.00000  Uiso   1.00
C292   C     0.94991   0.13085   0.76603   0.00000  Uiso   1.00
C293   C     0.99140   0.15991   0.72308   0.00000  Uiso   1.00
C294   C     0.83461   0.17611   0.89312   0.00000  Uiso   1.00
C295   C     0.77896   0.16632   0.87152   0.00000  Uiso   1.00
C296   C     0.74227   0.21159   0.87681   0.00000  Uiso   1.00
C297   C     0.90634   0.13202   0.97944   0.00000  Uiso   1.00
C298   C     0.91098   0.08516   0.03043   0.00000  Uiso   1.00
C299   C     0.93466   0.09332   0.10842   0.00000  Uiso   1.00
H300   H     0.92984   0.27182   0.95993   0.00000  Uiso   1.00
H301   H     0.00149   0.28019   0.83907   0.00000  Uiso   1.00
H302   H     0.83057   0.31564   0.94455   0.00000  Uiso   1.00
H303   H     0.96257   0.23450   0.10344   0.00000  Uiso   1.00
H304   H     0.07281   0.26605   0.69360   0.00000  Uiso   1.00
H305   H     0.71241   0.34080   0.91604   0.00000  Uiso   1.00
H306   H     0.99076   0.16970   0.25110   0.00000  Uiso   1.00
H307   H     0.86747   0.09128   0.87164   0.00000  Uiso   1.00
H308   H     0.93569   0.08974   0.74593   0.00000  Uiso   1.00
H309   H     0.76477   0.12519   0.85142   0.00000  Uiso   1.00
H310   H     0.89677   0.04405   0.01030   0.00000  Uiso   1.00
H311   H     0.01941   0.11147   0.61801   0.00000  Uiso   1.00
H312   H     0.65901   0.18622   0.84045   0.00000  Uiso   1.00
H313   H     0.93736   0.01512   0.17550   0.00000  Uiso   1.00
O314   O     0.09210   0.19101   0.57469   0.00000  Uiso   1.00
O315   O     0.61927   0.28908   0.86654   0.00000  Uiso   1.00
O316   O     0.98446   0.06460   0.30611   0.00000  Uiso   1.00
N317   N     0.05089   0.22987   0.69307   0.00000  Uiso   1.00
N318   N     0.71394   0.29977   0.90103   0.00000  Uiso   1.00
N319   N     0.97416   0.13980   0.21428   0.00000  Uiso   1.00
N320   N     0.02215   0.14670   0.65240   0.00000  Uiso   1.00
N321   N     0.68520   0.21659   0.86035   0.00000  Uiso   1.00
N322   N     0.94542   0.05662   0.17360   0.00000  Uiso   1.00
C323   C     0.41555   0.73046   0.43970   0.00000  Uiso   1.00
C324   C     0.44584   0.70997   0.36180   0.00000  Uiso   1.00
C325   C     0.48730   0.73907   0.31895   0.00000  Uiso   1.00
C326   C     0.50978   0.71314   0.24911   0.00000  Uiso   1.00
C327   C     0.55957   0.68942   0.13207   0.00000  Uiso   1.00
C328   C     0.35297   0.72923   0.41910   0.00000  Uiso   1.00
C329   C     0.31635   0.77454   0.42444   0.00000  Uiso   1.00
C330   C     0.26066   0.76482   0.40284   0.00000  Uiso   1.00
C331   C     0.16627   0.77099   0.37483   0.00000  Uiso   1.00
C332   C     0.42469   0.68515   0.50542   0.00000  Uiso   1.00
C333   C     0.44837   0.69338   0.58336   0.00000  Uiso   1.00
C334   C     0.45305   0.64655   0.63445   0.00000  Uiso   1.00
C335   C     0.47002   0.58427   0.74046   0.00000  Uiso   1.00
C336   C     0.38176   0.63264   0.39187   0.00000  Uiso   1.00
C337   C     0.42748   0.65684   0.33582   0.00000  Uiso   1.00
C338   C     0.44991   0.63085   0.26603   0.00000  Uiso   1.00
C339   C     0.49140   0.65991   0.22308   0.00000  Uiso   1.00
C340   C     0.33461   0.67611   0.39312   0.00000  Uiso   1.00
C341   C     0.27896   0.66632   0.37152   0.00000  Uiso   1.00
C342   C     0.24227   0.71159   0.37681   0.00000  Uiso   1.00
C343   C     0.40634   0.63202   0.47944   0.00000  Uiso   1.00
C344   C     0.41098   0.58516   0.53043   0.00000  Uiso   1.00
C345   C     0.43466   0.59332   0.60842   0.00000  Uiso   1.00
H346   H     0.42984   0.77182   0.45993   0.00000  Uiso   1.00
H347   H     0.50149   0.78019   0.33907   0.00000  Uiso   1.00
H348   H     0.33057   0.81564   0.44455   0.00000  Uiso   1.00
H349   H     0.46257   0.73450   0.60344   0.00000  Uiso   1.00
H350   H     0.57281   0.76605   0.19360   0.00000  Uiso   1.00
H351   H     0.21241   0.84080   0.41604   0.00000  Uiso   1.00
H352   H     0.49076   0.66970   0.75110   0.00000  Uiso   1.00
H353   H     0.36747   0.59128   0.37164   0.00000  Uiso   1.00
H354   H     0.43569   0.58974   0.24593   0.00000  Uiso   1.00
H355   H     0.26477   0.62519   0.35142   0.00000  Uiso   1.00
H356   H     0.39677   0.54405   0.51030   0.00000  Uiso   1.00
H357   H     0.51941   0.61147   0.11801   0.00000  Uiso   1.00
H358   H     0.15901   0.68622   0.34045   0.00000  Uiso   1.00
H359   H     0.43736   0.51512   0.67550   0.00000  Uiso   1.00
O360   O     0.59210   0.69101   0.07469   0.00000  Uiso   1.00
O361   O     0.11927   0.78908   0.36654   0.00000  Uiso   1.00
O362   O     0.48446   0.56460   0.80611   0.00000  Uiso   1.00
N363   N     0.55089   0.72987   0.19307   0.00000  Uiso   1.00
N364   N     0.21394   0.79977   0.40103   0.00000  Uiso   1.00
N365   N     0.47416   0.63980   0.71428   0.00000  Uiso   1.00
N366   N     0.52215   0.64670   0.15240   0.00000  Uiso   1.00
N367   N     0.18520   0.71659   0.36035   0.00000  Uiso   1.00
N368   N     0.44542   0.55662   0.67360   0.00000  Uiso   1.00
C369   C     0.23046   0.08445   0.06030   0.00000  Uiso   1.00
C370   C     0.20997   0.05416   0.13820   0.00000  Uiso   1.00
C371   C     0.23907   0.01270   0.18105   0.00000  Uiso   1.00
C372   C     0.21314   0.99022   0.25089   0.00000  Uiso   1.00
C373   C     0.18942   0.94043   0.36793   0.00000  Uiso   1.00
C374   C     0.22923   0.14703   0.08090   0.00000  Uiso   1.00
C375   C     0.27454   0.18365   0.07556   0.00000  Uiso   1.00
C376   C     0.26482   0.23934   0.09716   0.00000  Uiso   1.00
C377   C     0.27099   0.33373   0.12517   0.00000  Uiso   1.00
C378   C     0.18515   0.07531   0.99458   0.00000  Uiso   1.00
C379   C     0.19338   0.05163   0.91664   0.00000  Uiso   1.00
C380   C     0.14655   0.04695   0.86555   0.00000  Uiso   1.00
C381   C     0.08427   0.02998   0.75954   0.00000  Uiso   1.00
C382   C     0.13264   0.11824   0.10813   0.00000  Uiso   1.00
C383   C     0.15684   0.07252   0.16418   0.00000  Uiso   1.00
C384   C     0.13085   0.05009   0.23397   0.00000  Uiso   1.00
C385   C     0.15991   0.00860   0.27692   0.00000  Uiso   1.00
C386   C     0.17611   0.16539   0.10688   0.00000  Uiso   1.00
C387   C     0.16632   0.22104   0.12848   0.00000  Uiso   1.00
C388   C     0.21159   0.25773   0.12319   0.00000  Uiso   1.00
C389   C     0.13202   0.09366   0.02056   0.00000  Uiso   1.00
C390   C     0.08516   0.08902   0.96957   0.00000  Uiso   1.00
C391   C     0.09332   0.06534   0.89158   0.00000  Uiso   1.00
H392   H     0.27182   0.07016   0.04007   0.00000  Uiso   1.00
H393   H     0.28019   0.99851   0.16093   0.00000  Uiso   1.00
H394   H     0.31564   0.16943   0.05545   0.00000  Uiso   1.00
H395   H     0.23450   0.03743   0.89656   0.00000  Uiso   1.00
H396   H     0.26605   0.92719   0.30640   0.00000  Uiso   1.00
H397   H     0.34080   0.28759   0.08396   0.00000  Uiso   1.00
H398   H     0.16970   0.00924   0.74890   0.00000  Uiso   1.00
H399   H     0.09128   0.13253   0.12836   0.00000  Uiso   1.00
H400   H     0.08974   0.06431   0.25407   0.00000  Uiso   1.00
H401   H     0.12519   0.23523   0.14858   0.00000  Uiso   1.00
H402   H     0.04405   0.10323   0.98970   0.00000  Uiso   1.00
H403   H     0.11147   0.98059   0.38199   0.00000  Uiso   1.00
H404   H     0.18622   0.34099   0.15955   0.00000  Uiso   1.00
H405   H     0.01512   0.06264   0.82450   0.00000  Uiso   1.00
O406   O     0.19101   0.90790   0.42531   0.00000  Uiso   1.00
O407   O     0.28908   0.38073   0.13346   0.00000  Uiso   1.00
O408   O     0.06460   0.01554   0.69389   0.00000  Uiso   1.00
N409   N     0.22987   0.94911   0.30693   0.00000  Uiso   1.00
N410   N     0.29977   0.28606   0.09897   0.00000  Uiso   1.00
N411   N     0.13980   0.02584   0.78572   0.00000  Uiso   1.00
N412   N     0.14670   0.97785   0.34760   0.00000  Uiso   1.00
N413   N     0.21659   0.31480   0.13965   0.00000  Uiso   1.00
N414   N     0.05662   0.05458   0.82640   0.00000  Uiso   1.00
C415   C     0.73046   0.58445   0.56030   0.00000  Uiso   1.00
C416   C     0.70997   0.55416   0.63820   0.00000  Uiso   1.00
C417   C     0.73907   0.51270   0.68105   0.00000  Uiso   1.00
C418   C     0.71314   0.49022   0.75089   0.00000  Uiso   1.00
C419   C     0.68942   0.44043   0.86793   0.00000  Uiso   1.00
C420   C     0.72923   0.64703   0.58090   0.00000  Uiso   1.00
C421   C     0.77454   0.68365   0.57556   0.00000  Uiso   1.00
C422   C     0.76482   0.73934   0.59716   0.00000  Uiso   1.00
C423   C     0.77099   0.83373   0.62517   0.00000  Uiso   1.00
C424   C     0.68515   0.57531   0.49458   0.00000  Uiso   1.00
C425   C     0.69338   0.55163   0.41664   0.00000  Uiso   1.00
C426   C     0.64655   0.54695   0.36555   0.00000  Uiso   1.00
C427   C     0.58427   0.52998   0.25954   0.00000  Uiso   1.00
C428   C     0.63264   0.61824   0.60813   0.00000  Uiso   1.00
C429   C     0.65684   0.57252   0.66418   0.00000  Uiso   1.00
C430   C     0.63085   0.55009   0.73397   0.00000  Uiso   1.00
C431   C     0.65991   0.50860   0.77692   0.00000  Uiso   1.00
C432   C     0.67611   0.66539   0.60688   0.00000  Uiso   1.00
C433   C     0.66632   0.72104   0.62848   0.00000  Uiso   1.00
C434   C     0.71159   0.75773   0.62319   0.00000  Uiso   1.00
C435   C     0.63202   0.59366   0.52056   0.00000  Uiso   1.00
C436   C     0.58516   0.58902   0.46957   0.00000  Uiso   1.00
C437   C     0.59332   0.56534   0.39158   0.00000  Uiso   1.00
H438   H     0.77182   0.57016   0.54007   0.00000  Uiso   1.00
H439   H     0.78019   0.49851   0.66093   0.00000  Uiso   1.00
H440   H     0.81564   0.66943   0.55545   0.00000  Uiso   1.00
H441   H     0.73450   0.53743   0.39656   0.00000  Uiso   1.00
H442   H     0.76605   0.42719   0.80640   0.00000  Uiso   1.00
H443   H     0.84080   0.78759   0.58396   0.00000  Uiso   1.00
H444   H     0.66970   0.50924   0.24890   0.00000  Uiso   1.00
H445   H     0.59128   0.63253   0.62836   0.00000  Uiso   1.00
H446   H     0.58974   0.56431   0.75407   0.00000  Uiso   1.00
H447   H     0.62519   0.73523   0.64858   0.00000  Uiso   1.00
H448   H     0.54405   0.60323   0.48970   0.00000  Uiso   1.00
H449   H     0.61147   0.48059   0.88199   0.00000  Uiso   1.00
H450   H     0.68622   0.84099   0.65955   0.00000  Uiso   1.00
H451   H     0.51512   0.56264   0.32450   0.00000  Uiso   1.00
O452   O     0.69101   0.40790   0.92531   0.00000  Uiso   1.00
O453   O     0.78908   0.88073   0.63346   0.00000  Uiso   1.00
O454   O     0.56460   0.51554   0.19389   0.00000  Uiso   1.00
N455   N     0.72987   0.44911   0.80693   0.00000  Uiso   1.00
N456   N     0.79977   0.78606   0.59897   0.00000  Uiso   1.00
N457   N     0.63980   0.52584   0.28572   0.00000  Uiso   1.00
N458   N     0.64670   0.47785   0.84760   0.00000  Uiso   1.00
N459   N     0.71659   0.81480   0.63965   0.00000  Uiso   1.00
N460   N     0.55662   0.55458   0.32640   0.00000  Uiso   1.00
C461   C     0.26954   0.41555   0.56030   0.00000  Uiso   1.00
C462   C     0.29003   0.44584   0.63820   0.00000  Uiso   1.00
C463   C     0.26093   0.48730   0.68105   0.00000  Uiso   1.00
C464   C     0.28686   0.50978   0.75089   0.00000  Uiso   1.00
C465   C     0.31058   0.55957   0.86793   0.00000  Uiso   1.00
C466   C     0.27077   0.35297   0.58090   0.00000  Uiso   1.00
C467   C     0.22546   0.31635   0.57556   0.00000  Uiso   1.00
C468   C     0.23518   0.26066   0.59716   0.00000  Uiso   1.00
C469   C     0.22901   0.16627   0.62517   0.00000  Uiso   1.00
C470   C     0.31485   0.42469   0.49458   0.00000  Uiso   1.00
C471   C     0.30662   0.44837   0.41664   0.00000  Uiso   1.00
C472   C     0.35345   0.45305   0.36555   0.00000  Uiso   1.00
C473   C     0.41573   0.47002   0.25954   0.00000  Uiso   1.00
C474   C     0.36736   0.38176   0.60813   0.00000  Uiso   1.00
C475   C     0.34316   0.42748   0.66418   0.00000  Uiso   1.00
C476   C     0.36915   0.44991   0.73397   0.00000  Uiso   1.00
C477   C     0.34009   0.49140   0.77692   0.00000  Uiso   1.00
C478   C     0.32389   0.33461   0.60688   0.00000  Uiso   1.00
C479   C     0.33368   0.27896   0.62848   0.00000  Uiso   1.00
C480   C     0.28841   0.24227   0.62319   0.00000  Uiso   1.00
C481   C     0.36798   0.40634   0.52056   0.00000  Uiso   1.00
C482   C     0.41484   0.41098   0.46957   0.00000  Uiso   1.00
C483   C     0.40668   0.43466   0.39158   0.00000  Uiso   1.00
H484   H     0.22818   0.42984   0.54007   0.00000  Uiso   1.00
H485   H     0.21981   0.50149   0.66093   0.00000  Uiso   1.00
H486   H     0.18436   0.33057   0.55545   0.00000  Uiso   1.00
H487   H     0.26550   0.46257   0.39656   0.00000  Uiso   1.00
H488   H     0.23395   0.57281   0.80640   0.00000  Uiso   1.00
H489   H     0.15920   0.21241   0.58396   0.00000  Uiso   1.00
H490   H     0.33030   0.49076   0.24890   0.00000  Uiso   1.00
H491   H     0.40872   0.36747   0.62836   0.00000  Uiso   1.00
H492   H     0.41026   0.43569   0.75407   0.00000  Uiso   1.00
H493   H     0.37481   0.26477   0.64858   0.00000  Uiso   1.00
H494   H     0.45595   0.39677   0.48970   0.00000  Uiso   1.00
H495   H     0.38853   0.51941   0.88199   0.00000  Uiso   1.00
H496   H     0.31378   0.15901   0.65955   0.00000  Uiso   1.00
H497   H     0.48488   0.43736   0.32450   0.00000  Uiso   1.00
O498   O     0.30899   0.59210   0.92531   0.00000  Uiso   1.00
O499   O     0.21092   0.11927   0.63346   0.00000  Uiso   1.00
O500   O     0.43540   0.48446   0.19389   0.00000  Uiso   1.00
N501   N     0.27013   0.55089   0.80693   0.00000  Uiso   1.00
N502   N     0.20023   0.21394   0.59897   0.00000  Uiso   1.00
N503   N     0.36020   0.47416   0.28572   0.00000  Uiso   1.00
N504   N     0.35330   0.52215   0.84760   0.00000  Uiso   1.00
N505   N     0.28341   0.18520   0.63965   0.00000  Uiso   1.00
N506   N     0.44338   0.44542   0.32640   0.00000  Uiso   1.00
C507   C     0.76954   0.91555   0.06030   0.00000  Uiso   1.00
C508   C     0.79003   0.94584   0.13820   0.00000  Uiso   1.00
C509   C     0.76093   0.98730   0.18105   0.00000  Uiso   1.00
C510   C     0.78686   0.00978   0.25089   0.00000  Uiso   1.00
C511   C     0.81058   0.05957   0.36793   0.00000  Uiso   1.00
C512   C     0.77077   0.85297   0.08090   0.00000  Uiso   1.00
C513   C     0.72546   0.81635   0.07556   0.00000  Uiso   1.00
C514   C     0.73518   0.76066   0.09716   0.00000  Uiso   1.00
C515   C     0.72901   0.66627   0.12517   0.00000  Uiso   1.00
C516   C     0.81485   0.92469   0.99458   0.00000  Uiso   1.00
C517   C     0.80662   0.94837   0.91664   0.00000  Uiso   1.00
C518   C     0.85345   0.95305   0.86555   0.00000  Uiso   1.00
C519   C     0.91573   0.97002   0.75954   0.00000  Uiso   1.00
C520   C     0.86736   0.88176   0.10813   0.00000  Uiso   1.00
C521   C     0.84316   0.92748   0.16418   0.00000  Uiso   1.00
C522   C     0.86915   0.94991   0.23397   0.00000  Uiso   1.00
C523   C     0.84009   0.99140   0.27692   0.00000  Uiso   1.00
C524   C     0.82389   0.83461   0.10688   0.00000  Uiso   1.00
C525   C     0.83368   0.77896   0.12848   0.00000  Uiso   1.00
C526   C     0.78841   0.74227   0.12319   0.00000  Uiso   1.00
C527   C     0.86798   0.90634   0.02056   0.00000  Uiso   1.00
C528   C     0.91484   0.91098   0.96957   0.00000  Uiso   1.00
C529   C     0.90668   0.93466   0.89158   0.00000  Uiso   1.00
H530   H     0.72818   0.92984   0.04007   0.00000  Uiso   1.00
H531   H     0.71981   0.00149   0.16093   0.00000  Uiso   1.00
H532   H     0.68436   0.83057   0.05545   0.00000  Uiso   1.00
H533   H     0.76550   0.96257   0.89656   0.00000  Uiso   1.00
H534   H     0.73395   0.07281   0.30640   0.00000  Uiso   1.00
H535   H     0.65920   0.71241   0.08396   0.00000  Uiso   1.00
H536   H     0.83030   0.99076   0.74890   0.00000  Uiso   1.00
H537   H     0.90872   0.86747   0.12836   0.00000  Uiso   1.00
H538   H     0.91026   0.93569   0.25407   0.00000  Uiso   1.00
H539   H     0.87481   0.76477   0.14858   0.00000  Uiso   1.00
H540   H     0.95595   0.89677   0.98970   0.00000  Uiso   1.00
H541   H     0.88853   0.01941   0.38199   0.00000  Uiso   1.00
H542   H     0.81378   0.65901   0.15955   0.00000  Uiso   1.00
H543   H     0.98488   0.93736   0.82450   0.00000  Uiso   1.00
O544   O     0.80899   0.09210   0.42531   0.00000  Uiso   1.00
O545   O     0.71092   0.61927   0.13346   0.00000  Uiso   1.00
O546   O     0.93540   0.98446   0.69389   0.00000  Uiso   1.00
N547   N     0.77013   0.05089   0.30693   0.00000  Uiso   1.00
N548   N     0.70023   0.71394   0.09897   0.00000  Uiso   1.00
N549   N     0.86020   0.97416   0.78572   0.00000  Uiso   1.00
N550   N     0.85330   0.02215   0.34760   0.00000  Uiso   1.00
N551   N     0.78341   0.68520   0.13965   0.00000  Uiso   1.00
N552   N     0.94338   0.94542   0.82640   0.00000  Uiso   1.00
C553   C     0.41555   0.23046   0.81030   0.00000  Uiso   1.00
C554   C     0.44584   0.20997   0.88820   0.00000  Uiso   1.00
C555   C     0.48730   0.23907   0.93105   0.00000  Uiso   1.00
C556   C     0.50978   0.21314   0.00089   0.00000  Uiso   1.00
C557   C     0.55957   0.18942   0.11793   0.00000  Uiso   1.00
C558   C     0.35297   0.22923   0.83090   0.00000  Uiso   1.00
C559   C     0.31635   0.27454   0.82556   0.00000  Uiso   1.00
C560   C     0.26066   0.26482   0.84716   0.00000  Uiso   1.00
C561   C     0.16627   0.27099   0.87517   0.00000  Uiso   1.00
C562   C     0.42469   0.18515   0.74458   0.00000  Uiso   1.00
C563   C     0.44837   0.19338   0.66664   0.00000  Uiso   1.00
C564   C     0.45305   0.14655   0.61555   0.00000  Uiso   1.00
C565   C     0.47002   0.08427   0.50954   0.00000  Uiso   1.00
C566   C     0.38176   0.13264   0.85813   0.00000  Uiso   1.00
C567   C     0.42748   0.15684   0.91418   0.00000  Uiso   1.00
C568   C     0.44991   0.13085   0.98397   0.00000  Uiso   1.00
C569   C     0.49140   0.15991   0.02692   0.00000  Uiso   1.00
C570   C     0.33461   0.17611   0.85688   0.00000  Uiso   1.00
C571   C     0.27896   0.16632   0.87848   0.00000  Uiso   1.00
C572   C     0.24227   0.21159   0.87319   0.00000  Uiso   1.00
C573   C     0.40634   0.13202   0.77056   0.00000  Uiso   1.00
C574   C     0.41098   0.08516   0.71957   0.00000  Uiso   1.00
C575   C     0.43466   0.09332   0.64158   0.00000  Uiso   1.00
H576   H     0.42984   0.27182   0.79007   0.00000  Uiso   1.00
H577   H     0.50149   0.28019   0.91093   0.00000  Uiso   1.00
H578   H     0.33057   0.31564   0.80545   0.00000  Uiso   1.00
H579   H     0.46257   0.23450   0.64656   0.00000  Uiso   1.00
H580   H     0.57281   0.26605   0.05640   0.00000  Uiso   1.00
H581   H     0.21241   0.34080   0.83396   0.00000  Uiso   1.00
H582   H     0.49076   0.16970   0.49890   0.00000  Uiso   1.00
H583   H     0.36747   0.09128   0.87836   0.00000  Uiso   1.00
H584   H     0.43569   0.08974   0.00407   0.00000  Uiso   1.00
H585   H     0.26477   0.12519   0.89858   0.00000  Uiso   1.00
H586   H     0.39677   0.04405   0.73970   0.00000  Uiso   1.00
H587   H     0.51941   0.11147   0.13199   0.00000  Uiso   1.00
H588   H     0.15901   0.18622   0.90955   0.00000  Uiso   1.00
H589   H     0.43736   0.01512   0.57450   0.00000  Uiso   1.00
O590   O     0.59210   0.19101   0.17531   0.00000  Uiso   1.00
O591   O     0.11927   0.28908   0.88346   0.00000  Uiso   1.00
O592   O     0.48446   0.06460   0.44389   0.00000  Uiso   1.00
N593   N     0.55089   0.22987   0.05693   0.00000  Uiso   1.00
N594   N     0.21394   0.29977   0.84897   0.00000  Uiso   1.00
N595   N     0.47416   0.13980   0.53572   0.00000  Uiso   1.00
N596   N     0.52215   0.14670   0.09760   0.00000  Uiso   1.00
N597   N     0.18520   0.21659   0.88965   0.00000  Uiso   1.00
N598   N     0.44542   0.05662   0.57640   0.00000  Uiso   1.00
C599   C     0.91555   0.73046   0.31030   0.00000  Uiso   1.00
C600   C     0.94584   0.70997   0.38820   0.00000  Uiso   1.00
C601   C     0.98730   0.73907   0.43105   0.00000  Uiso   1.00
C602   C     0.00978   0.71314   0.50089   0.00000  Uiso   1.00
C603   C     0.05957   0.68942   0.61793   0.00000  Uiso   1.00
C604   C     0.85297   0.72923   0.33090   0.00000  Uiso   1.00
C605   C     0.81635   0.77454   0.32556   0.00000  Uiso   1.00
C606   C     0.76066   0.76482   0.34716   0.00000  Uiso   1.00
C607   C     0.66627   0.77099   0.37517   0.00000  Uiso   1.00
C608   C     0.92469   0.68515   0.24458   0.00000  Uiso   1.00
C609   C     0.94837   0.69338   0.16664   0.00000  Uiso   1.00
C610   C     0.95305   0.64655   0.11555   0.00000  Uiso   1.00
C611   C     0.97002   0.58427   0.00954   0.00000  Uiso   1.00
C612   C     0.88176   0.63264   0.35813   0.00000  Uiso   1.00
C613   C     0.92748   0.65684   0.41418   0.00000  Uiso   1.00
C614   C     0.94991   0.63085   0.48397   0.00000  Uiso   1.00
C615   C     0.99140   0.65991   0.52692   0.00000  Uiso   1.00
C616   C     0.83461   0.67611   0.35688   0.00000  Uiso   1.00
C617   C     0.77896   0.66632   0.37848   0.00000  Uiso   1.00
C618   C     0.74227   0.71159   0.37319   0.00000  Uiso   1.00
C619   C     0.90634   0.63202   0.27056   0.00000  Uiso   1.00
C620   C     0.91098   0.58516   0.21957   0.00000  Uiso   1.00
C621   C     0.93466   0.59332   0.14158   0.00000  Uiso   1.00
H622   H     0.92984   0.77182   0.29007   0.00000  Uiso   1.00
H623   H     0.00149   0.78019   0.41093   0.00000  Uiso   1.00
H624   H     0.83057   0.81564   0.30545   0.00000  Uiso   1.00
H625   H     0.96257   0.73450   0.14656   0.00000  Uiso   1.00
H626   H     0.07281   0.76605   0.55640   0.00000  Uiso   1.00
H627   H     0.71241   0.84080   0.33396   0.00000  Uiso   1.00
H628   H     0.99076   0.66970   0.99890   0.00000  Uiso   1.00
H629   H     0.86747   0.59128   0.37836   0.00000  Uiso   1.00
H630   H     0.93569   0.58974   0.50407   0.00000  Uiso   1.00
H631   H     0.76477   0.62519   0.39858   0.00000  Uiso   1.00
H632   H     0.89677   0.54405   0.23970   0.00000  Uiso   1.00
H633   H     0.01941   0.61147   0.63199   0.00000  Uiso   1.00
H634   H     0.65901   0.68622   0.40955   0.00000  Uiso   1.00
H635   H     0.93736   0.51512   0.07450   0.00000  Uiso   1.00
O636   O     0.09210   0.69101   0.67531   0.00000  Uiso   1.00
O637   O     0.61927   0.78908   0.38346   0.00000  Uiso   1.00
O638   O     0.98446   0.56460   0.94389   0.00000  Uiso   1.00
N639   N     0.05089   0.72987   0.55693   0.00000  Uiso   1.00
N640   N     0.71394   0.79977   0.34897   0.00000  Uiso   1.00
N641   N     0.97416   0.63980   0.03572   0.00000  Uiso   1.00
N642   N     0.02215   0.64670   0.59760   0.00000  Uiso   1.00
N643   N     0.68520   0.71659   0.38965   0.00000  Uiso   1.00
N644   N     0.94542   0.55662   0.07640   0.00000  Uiso   1.00
C645   C     0.08445   0.26954   0.31030   0.00000  Uiso   1.00
C646   C     0.05416   0.29003   0.38820   0.00000  Uiso   1.00
C647   C     0.01270   0.26093   0.43105   0.00000  Uiso   1.00
C648   C     0.99022   0.28686   0.50089   0.00000  Uiso   1.00
C649   C     0.94043   0.31058   0.61793   0.00000  Uiso   1.00
C650   C     0.14703   0.27077   0.33090   0.00000  Uiso   1.00
C651   C     0.18365   0.22546   0.32556   0.00000  Uiso   1.00
C652   C     0.23934   0.23518   0.34716   0.00000  Uiso   1.00
C653   C     0.33373   0.22901   0.37517   0.00000  Uiso   1.00
C654   C     0.07531   0.31485   0.24458   0.00000  Uiso   1.00
C655   C     0.05163   0.30662   0.16664   0.00000  Uiso   1.00
C656   C     0.04695   0.35345   0.11555   0.00000  Uiso   1.00
C657   C     0.02998   0.41573   0.00954   0.00000  Uiso   1.00
C658   C     0.11824   0.36736   0.35813   0.00000  Uiso   1.00
C659   C     0.07252   0.34316   0.41418   0.00000  Uiso   1.00
C660   C     0.05009   0.36915   0.48397   0.00000  Uiso   1.00
C661   C     0.00860   0.34009   0.52692   0.00000  Uiso   1.00
C662   C     0.16539   0.32389   0.35688   0.00000  Uiso   1.00
C663   C     0.22104   0.33368   0.37848   0.00000  Uiso   1.00
C664   C     0.25773   0.28841   0.37319   0.00000  Uiso   1.00
C665   C     0.09366   0.36798   0.27056   0.00000  Uiso   1.00
C666   C     0.08902   0.41484   0.21957   0.00000  Uiso   1.00
C667   C     0.06534   0.40668   0.14158   0.00000  Uiso   1.00
H668   H     0.07016   0.22818   0.29007   0.00000  Uiso   1.00
H669   H     0.99851   0.21981   0.41093   0.00000  Uiso   1.00
H670   H     0.16943   0.18436   0.30545   0.00000  Uiso   1.00
H671   H     0.03743   0.26550   0.14656   0.00000  Uiso   1.00
H672   H     0.92719   0.23395   0.55640   0.00000  Uiso   1.00
H673   H     0.28759   0.15920   0.33396   0.00000  Uiso   1.00
H674   H     0.00924   0.33030   0.99890   0.00000  Uiso   1.00
H675   H     0.13253   0.40872   0.37836   0.00000  Uiso   1.00
H676   H     0.06431   0.41026   0.50407   0.00000  Uiso   1.00
H677   H     0.23523   0.37481   0.39858   0.00000  Uiso   1.00
H678   H     0.10323   0.45595   0.23970   0.00000  Uiso   1.00
H679   H     0.98059   0.38853   0.63199   0.00000  Uiso   1.00
H680   H     0.34099   0.31378   0.40955   0.00000  Uiso   1.00
H681   H     0.06264   0.48488   0.07450   0.00000  Uiso   1.00
O682   O     0.90790   0.30899   0.67531   0.00000  Uiso   1.00
O683   O     0.38073   0.21092   0.38346   0.00000  Uiso   1.00
O684   O     0.01554   0.43540   0.94389   0.00000  Uiso   1.00
N685   N     0.94911   0.27013   0.55693   0.00000  Uiso   1.00
N686   N     0.28606   0.20023   0.34897   0.00000  Uiso   1.00
N687   N     0.02584   0.36020   0.03572   0.00000  Uiso   1.00
N688   N     0.97785   0.35330   0.59760   0.00000  Uiso   1.00
N689   N     0.31480   0.28341   0.38965   0.00000  Uiso   1.00
N690   N     0.05458   0.44338   0.07640   0.00000  Uiso   1.00
C691   C     0.58445   0.76954   0.81030   0.00000  Uiso   1.00
C692   C     0.55416   0.79003   0.88820   0.00000  Uiso   1.00
C693   C     0.51270   0.76093   0.93105   0.00000  Uiso   1.00
C694   C     0.49022   0.78686   0.00089   0.00000  Uiso   1.00
C695   C     0.44043   0.81058   0.11793   0.00000  Uiso   1.00
C696   C     0.64703   0.77077   0.83090   0.00000  Uiso   1.00
C697   C     0.68365   0.72546   0.82556   0.00000  Uiso   1.00
C698   C     0.73934   0.73518   0.84716   0.00000  Uiso   1.00
C699   C     0.83373   0.72901   0.87517   0.00000  Uiso   1.00
C700   C     0.57531   0.81485   0.74458   0.00000  Uiso   1.00
C701   C     0.55163   0.80662   0.66664   0.00000  Uiso   1.00
C702   C     0.54695   0.85345   0.61555   0.00000  Uiso   1.00
C703   C     0.52998   0.91573   0.50954   0.00000  Uiso   1.00
C704   C     0.61824   0.86736   0.85813   0.00000  Uiso   1.00
C705   C     0.57252   0.84316   0.91418   0.00000  Uiso   1.00
C706   C     0.55009   0.86915   0.98397   0.00000  Uiso   1.00
C707   C     0.50860   0.84009   0.02692   0.00000  Uiso   1.00
C708   C     0.66539   0.82389   0.85688   0.00000  Uiso   1.00
C709   C     0.72104   0.83368   0.87848   0.00000  Uiso   1.00
C710   C     0.75773   0.78841   0.87319   0.00000  Uiso   1.00
C711   C     0.59366   0.86798   0.77056   0.00000  Uiso   1.00
C712   C     0.58902   0.91484   0.71957   0.00000  Uiso   1.00
C713   C     0.56534   0.90668   0.64158   0.00000  Uiso   1.00
H714   H     0.57016   0.72818   0.79007   0.00000  Uiso   1.00
H715   H     0.49851   0.71981   0.91093   0.00000  Uiso   1.00
H716   H     0.66943   0.68436   0.80545   0.00000  Uiso   1.00
H717   H     0.53743   0.76550   0.64656   0.00000  Uiso   1.00
H718   H     0.42719   0.73395   0.05640   0.00000  Uiso   1.00
H719   H     0.78759   0.65920   0.83396   0.00000  Uiso   1.00
H720   H     0.50924   0.83030   0.49890   0.00000  Uiso   1.00
H721   H     0.63253   0.90872   0.87836   0.00000  Uiso   1.00
H722   H     0.56431   0.91026   0.00407   0.00000  Uiso   1.00
H723   H     0.73523   0.87481   0.89858   0.00000  Uiso   1.00
H724   H     0.60323   0.95595   0.73970   0.00000  Uiso   1.00
H725   H     0.48059   0.88853   0.13199   0.00000  Uiso   1.00
H726   H     0.84099   0.81378   0.90955   0.00000  Uiso   1.00
H727   H     0.56264   0.98488   0.57450   0.00000  Uiso   1.00
O728   O     0.40790   0.80899   0.17531   0.00000  Uiso   1.00
O729   O     0.88073   0.71092   0.88346   0.00000  Uiso   1.00
O730   O     0.51554   0.93540   0.44389   0.00000  Uiso   1.00
N731   N     0.44911   0.77013   0.05693   0.00000  Uiso   1.00
N732   N     0.78606   0.70023   0.84897   0.00000  Uiso   1.00
N733   N     0.52584   0.86020   0.53572   0.00000  Uiso   1.00
N734   N     0.47785   0.85330   0.09760   0.00000  Uiso   1.00
N735   N     0.81480   0.78341   0.88965   0.00000  Uiso   1.00
N736   N     0.55458   0.94338   0.57640   0.00000  Uiso   1.00
