data_job_04988
_audit_creation_date              2018-12-19
_audit_creation_method            'Materials Studio'
_symmetry_space_group_name_H-M    'P1'
_symmetry_Int_Tables_number       1
_symmetry_cell_setting            triclinic
loop_
_symmetry_equiv_pos_as_xyz
  x,y,z
_cell_length_a                    31.6732
_cell_length_b                    20.8345
_cell_length_c                    14.0922
_cell_angle_alpha                 90.0000
_cell_angle_beta                  90.0000
_cell_angle_gamma                 90.0000
loop_
_atom_site_label
_atom_site_type_symbol
_atom_site_fract_x
_atom_site_fract_y
_atom_site_fract_z
_atom_site_U_iso_or_equiv
_atom_site_adp_type
_atom_site_occupancy
C1     C     0.60918   0.28222   0.26435   0.00000  Uiso   1.00
C2     C     0.59120   0.24373   0.34704   0.00000  Uiso   1.00
C3     C     0.55006   0.24713   0.38057   0.00000  Uiso   1.00
C4     C     0.53980   0.20802   0.45694   0.00000  Uiso   1.00
C5     C     0.50735   0.15451   0.57909   0.00000  Uiso   1.00
C6     C     0.64731   0.31812   0.30366   0.00000  Uiso   1.00
C7     C     0.65336   0.38407   0.30071   0.00000  Uiso   1.00
C8     C     0.69035   0.40758   0.34055   0.00000  Uiso   1.00
C9     C     0.74504   0.46957   0.39529   0.00000  Uiso   1.00
C10    C     0.62667   0.23309   0.19444   0.00000  Uiso   1.00
C11    C     0.61536   0.22755   0.09964   0.00000  Uiso   1.00
C12    C     0.63497   0.17949   0.04752   0.00000  Uiso   1.00
C13    C     0.65760   0.10945   0.93268   0.00000  Uiso   1.00
C14    C     0.66411   0.20673   0.34035   0.00000  Uiso   1.00
C15    C     0.62103   0.20273   0.38832   0.00000  Uiso   1.00
C16    C     0.61083   0.16361   0.46466   0.00000  Uiso   1.00
C17    C     0.56969   0.16695   0.49829   0.00000  Uiso   1.00
C18    C     0.67715   0.27712   0.34494   0.00000  Uiso   1.00
C19    C     0.71414   0.30055   0.38479   0.00000  Uiso   1.00
C20    C     0.72024   0.36651   0.38191   0.00000  Uiso   1.00
C21    C     0.65650   0.19209   0.23572   0.00000  Uiso   1.00
C22    C     0.67614   0.14403   0.18373   0.00000  Uiso   1.00
C23    C     0.66486   0.13842   0.08888   0.00000  Uiso   1.00
H24    H     0.58595   0.31415   0.23221   0.00000  Uiso   1.00
H25    H     0.52698   0.27887   0.34861   0.00000  Uiso   1.00
H26    H     0.63027   0.41578   0.26875   0.00000  Uiso   1.00
H27    H     0.59227   0.25929   0.06772   0.00000  Uiso   1.00
H28    H     0.47476   0.22169   0.49589   0.00000  Uiso   1.00
H29    H     0.69256   0.51038   0.32747   0.00000  Uiso   1.00
H30    H     0.61244   0.18039   0.90356   0.00000  Uiso   1.00
H31    H     0.68734   0.17481   0.37249   0.00000  Uiso   1.00
H32    H     0.63393   0.13188   0.49659   0.00000  Uiso   1.00
H33    H     0.73722   0.26880   0.41673   0.00000  Uiso   1.00
H34    H     0.69922   0.11231   0.21570   0.00000  Uiso   1.00
H35    H     0.56157   0.10239   0.61599   0.00000  Uiso   1.00
H36    H     0.77937   0.39109   0.44757   0.00000  Uiso   1.00
H37    H     0.69925   0.06109   0.02367   0.00000  Uiso   1.00
O38    O     0.48121   0.13633   0.63506   0.00000  Uiso   1.00
O39    O     0.76696   0.51508   0.41409   0.00000  Uiso   1.00
O40    O     0.66183   0.08214   0.85793   0.00000  Uiso   1.00
N41    N     0.50252   0.19950   0.50711   0.00000  Uiso   1.00
N42    N     0.70615   0.46941   0.34966   0.00000  Uiso   1.00
N43    N     0.63125   0.16090   0.95334   0.00000  Uiso   1.00
N44    N     0.54923   0.13530   0.57174   0.00000  Uiso   1.00
N45    N     0.75286   0.40521   0.41429   0.00000  Uiso   1.00
N46    N     0.67796   0.09671   0.01796   0.00000  Uiso   1.00
C47    C     0.41597   0.20301   0.23494   0.00000  Uiso   1.00
C48    C     0.43280   0.16626   0.14935   0.00000  Uiso   1.00
C49    C     0.47347   0.17038   0.11318   0.00000  Uiso   1.00
C50    C     0.48267   0.13288   0.03441   0.00000  Uiso   1.00
C51    C     0.51344   0.08194   0.90774   0.00000  Uiso   1.00
C52    C     0.37732   0.23968   0.19990   0.00000  Uiso   1.00
C53    C     0.37134   0.30553   0.20625   0.00000  Uiso   1.00
C54    C     0.33384   0.32983   0.17004   0.00000  Uiso   1.00
C55    C     0.27845   0.39288   0.12190   0.00000  Uiso   1.00
C56    C     0.39942   0.15244   0.30376   0.00000  Uiso   1.00
C57    C     0.41200   0.14495   0.39744   0.00000  Uiso   1.00
C58    C     0.39309   0.09582   0.44868   0.00000  Uiso   1.00
C59    C     0.37201   0.02343   0.56180   0.00000  Uiso   1.00
C60    C     0.36001   0.12909   0.15936   0.00000  Uiso   1.00
C61    C     0.40241   0.12611   0.10830   0.00000  Uiso   1.00
C62    C     0.41155   0.08859   0.02957   0.00000  Uiso   1.00
C63    C     0.45222   0.09266   0.99329   0.00000  Uiso   1.00
C64    C     0.34693   0.19953   0.15885   0.00000  Uiso   1.00
C65    C     0.30942   0.22375   0.12263   0.00000  Uiso   1.00
C66    C     0.30338   0.28961   0.12891   0.00000  Uiso   1.00
C67    C     0.36902   0.11229   0.26271   0.00000  Uiso   1.00
C68    C     0.35009   0.06317   0.31382   0.00000  Uiso   1.00
C69    C     0.36264   0.05560   0.40756   0.00000  Uiso   1.00
H70    H     0.43963   0.23427   0.26690   0.00000  Uiso   1.00
H71    H     0.49698   0.20146   0.14497   0.00000  Uiso   1.00
H72    H     0.39486   0.33658   0.23803   0.00000  Uiso   1.00
H73    H     0.43552   0.17603   0.42918   0.00000  Uiso   1.00
H74    H     0.54716   0.14739   0.99166   0.00000  Uiso   1.00
H75    H     0.33183   0.43231   0.18791   0.00000  Uiso   1.00
H76    H     0.41757   0.09376   0.59101   0.00000  Uiso   1.00
H77    H     0.33634   0.09783   0.12740   0.00000  Uiso   1.00
H78    H     0.38803   0.05753   0.99781   0.00000  Uiso   1.00
H79    H     0.28591   0.19266   0.09087   0.00000  Uiso   1.00
H80    H     0.32657   0.03211   0.28203   0.00000  Uiso   1.00
H81    H     0.45873   0.03057   0.87223   0.00000  Uiso   1.00
H82    H     0.24340   0.31550   0.06848   0.00000  Uiso   1.00
H83    H     0.32914   0.97694   0.47157   0.00000  Uiso   1.00
O84    O     0.53880   0.06495   0.84920   0.00000  Uiso   1.00
O85    O     0.25630   0.43875   0.10669   0.00000  Uiso   1.00
O86    O     0.36878   0.99458   0.63553   0.00000  Uiso   1.00
N87    N     0.51925   0.12542   0.98135   0.00000  Uiso   1.00
N88    N     0.31794   0.39181   0.16482   0.00000  Uiso   1.00
N89    N     0.39809   0.07530   0.54169   0.00000  Uiso   1.00
N90    N     0.47167   0.06256   0.91708   0.00000  Uiso   1.00
N91    N     0.27036   0.32895   0.10055   0.00000  Uiso   1.00
N92    N     0.35050   0.01244   0.47742   0.00000  Uiso   1.00
C93    C     0.60918   0.78222   0.76435   0.00000  Uiso   1.00
C94    C     0.59120   0.74373   0.84704   0.00000  Uiso   1.00
C95    C     0.55006   0.74713   0.88057   0.00000  Uiso   1.00
C96    C     0.53980   0.70802   0.95694   0.00000  Uiso   1.00
C97    C     0.50735   0.65451   0.07909   0.00000  Uiso   1.00
C98    C     0.64731   0.81812   0.80366   0.00000  Uiso   1.00
C99    C     0.65336   0.88407   0.80071   0.00000  Uiso   1.00
C100   C     0.69035   0.90758   0.84055   0.00000  Uiso   1.00
C101   C     0.74504   0.96957   0.89529   0.00000  Uiso   1.00
C102   C     0.62667   0.73309   0.69444   0.00000  Uiso   1.00
C103   C     0.61536   0.72755   0.59964   0.00000  Uiso   1.00
C104   C     0.63497   0.67949   0.54752   0.00000  Uiso   1.00
C105   C     0.65760   0.60945   0.43268   0.00000  Uiso   1.00
C106   C     0.66411   0.70673   0.84035   0.00000  Uiso   1.00
C107   C     0.62103   0.70273   0.88832   0.00000  Uiso   1.00
C108   C     0.61083   0.66361   0.96466   0.00000  Uiso   1.00
C109   C     0.56969   0.66695   0.99829   0.00000  Uiso   1.00
C110   C     0.67715   0.77712   0.84494   0.00000  Uiso   1.00
C111   C     0.71414   0.80055   0.88479   0.00000  Uiso   1.00
C112   C     0.72024   0.86651   0.88191   0.00000  Uiso   1.00
C113   C     0.65650   0.69209   0.73572   0.00000  Uiso   1.00
C114   C     0.67614   0.64403   0.68373   0.00000  Uiso   1.00
C115   C     0.66486   0.63842   0.58888   0.00000  Uiso   1.00
H116   H     0.58595   0.81415   0.73221   0.00000  Uiso   1.00
H117   H     0.52698   0.77887   0.84861   0.00000  Uiso   1.00
H118   H     0.63027   0.91578   0.76875   0.00000  Uiso   1.00
H119   H     0.59227   0.75929   0.56772   0.00000  Uiso   1.00
H120   H     0.47476   0.72169   0.99589   0.00000  Uiso   1.00
H121   H     0.69256   0.01038   0.82747   0.00000  Uiso   1.00
H122   H     0.61244   0.68039   0.40356   0.00000  Uiso   1.00
H123   H     0.68734   0.67481   0.87249   0.00000  Uiso   1.00
H124   H     0.63393   0.63188   0.99659   0.00000  Uiso   1.00
H125   H     0.73722   0.76880   0.91673   0.00000  Uiso   1.00
H126   H     0.69922   0.61231   0.71570   0.00000  Uiso   1.00
H127   H     0.56157   0.60239   0.11599   0.00000  Uiso   1.00
H128   H     0.77937   0.89109   0.94757   0.00000  Uiso   1.00
H129   H     0.69925   0.56109   0.52367   0.00000  Uiso   1.00
O130   O     0.48121   0.63633   0.13506   0.00000  Uiso   1.00
O131   O     0.76696   0.01508   0.91409   0.00000  Uiso   1.00
O132   O     0.66183   0.58214   0.35793   0.00000  Uiso   1.00
N133   N     0.50252   0.69950   0.00711   0.00000  Uiso   1.00
N134   N     0.70615   0.96941   0.84966   0.00000  Uiso   1.00
N135   N     0.63125   0.66090   0.45334   0.00000  Uiso   1.00
N136   N     0.54923   0.63530   0.07174   0.00000  Uiso   1.00
N137   N     0.75286   0.90521   0.91429   0.00000  Uiso   1.00
N138   N     0.67796   0.59671   0.51796   0.00000  Uiso   1.00
C139   C     0.41597   0.70301   0.73494   0.00000  Uiso   1.00
C140   C     0.43280   0.66626   0.64935   0.00000  Uiso   1.00
C141   C     0.47347   0.67038   0.61318   0.00000  Uiso   1.00
C142   C     0.48267   0.63288   0.53441   0.00000  Uiso   1.00
C143   C     0.51344   0.58194   0.40774   0.00000  Uiso   1.00
C144   C     0.37732   0.73968   0.69990   0.00000  Uiso   1.00
C145   C     0.37134   0.80553   0.70625   0.00000  Uiso   1.00
C146   C     0.33384   0.82983   0.67004   0.00000  Uiso   1.00
C147   C     0.27845   0.89288   0.62190   0.00000  Uiso   1.00
C148   C     0.39942   0.65244   0.80376   0.00000  Uiso   1.00
C149   C     0.41200   0.64495   0.89744   0.00000  Uiso   1.00
C150   C     0.39309   0.59582   0.94868   0.00000  Uiso   1.00
C151   C     0.37201   0.52343   0.06180   0.00000  Uiso   1.00
C152   C     0.36001   0.62909   0.65936   0.00000  Uiso   1.00
C153   C     0.40241   0.62611   0.60830   0.00000  Uiso   1.00
C154   C     0.41155   0.58859   0.52957   0.00000  Uiso   1.00
C155   C     0.45222   0.59266   0.49329   0.00000  Uiso   1.00
C156   C     0.34693   0.69953   0.65885   0.00000  Uiso   1.00
C157   C     0.30942   0.72375   0.62263   0.00000  Uiso   1.00
C158   C     0.30338   0.78961   0.62891   0.00000  Uiso   1.00
C159   C     0.36902   0.61229   0.76271   0.00000  Uiso   1.00
C160   C     0.35009   0.56317   0.81382   0.00000  Uiso   1.00
C161   C     0.36264   0.55560   0.90756   0.00000  Uiso   1.00
H162   H     0.43963   0.73427   0.76690   0.00000  Uiso   1.00
H163   H     0.49698   0.70146   0.64497   0.00000  Uiso   1.00
H164   H     0.39486   0.83658   0.73803   0.00000  Uiso   1.00
H165   H     0.43552   0.67603   0.92918   0.00000  Uiso   1.00
H166   H     0.54716   0.64739   0.49166   0.00000  Uiso   1.00
H167   H     0.33183   0.93231   0.68791   0.00000  Uiso   1.00
H168   H     0.41757   0.59376   0.09101   0.00000  Uiso   1.00
H169   H     0.33634   0.59783   0.62740   0.00000  Uiso   1.00
H170   H     0.38803   0.55753   0.49781   0.00000  Uiso   1.00
H171   H     0.28591   0.69266   0.59087   0.00000  Uiso   1.00
H172   H     0.32657   0.53211   0.78203   0.00000  Uiso   1.00
H173   H     0.45873   0.53057   0.37223   0.00000  Uiso   1.00
H174   H     0.24340   0.81550   0.56848   0.00000  Uiso   1.00
H175   H     0.32914   0.47694   0.97157   0.00000  Uiso   1.00
O176   O     0.53880   0.56495   0.34920   0.00000  Uiso   1.00
O177   O     0.25630   0.93875   0.60669   0.00000  Uiso   1.00
O178   O     0.36878   0.49458   0.13553   0.00000  Uiso   1.00
N179   N     0.51925   0.62542   0.48135   0.00000  Uiso   1.00
N180   N     0.31794   0.89181   0.66482   0.00000  Uiso   1.00
N181   N     0.39809   0.57530   0.04169   0.00000  Uiso   1.00
N182   N     0.47167   0.56256   0.41708   0.00000  Uiso   1.00
N183   N     0.27036   0.82895   0.60055   0.00000  Uiso   1.00
N184   N     0.35050   0.51244   0.97742   0.00000  Uiso   1.00
C185   C     0.39082   0.71778   0.26435   0.00000  Uiso   1.00
C186   C     0.40880   0.75627   0.34704   0.00000  Uiso   1.00
C187   C     0.44994   0.75287   0.38057   0.00000  Uiso   1.00
C188   C     0.46020   0.79198   0.45694   0.00000  Uiso   1.00
C189   C     0.49265   0.84549   0.57909   0.00000  Uiso   1.00
C190   C     0.35269   0.68188   0.30366   0.00000  Uiso   1.00
C191   C     0.34664   0.61593   0.30071   0.00000  Uiso   1.00
C192   C     0.30965   0.59242   0.34055   0.00000  Uiso   1.00
C193   C     0.25496   0.53043   0.39529   0.00000  Uiso   1.00
C194   C     0.37333   0.76691   0.19444   0.00000  Uiso   1.00
C195   C     0.38464   0.77245   0.09964   0.00000  Uiso   1.00
C196   C     0.36503   0.82051   0.04752   0.00000  Uiso   1.00
C197   C     0.34240   0.89055   0.93268   0.00000  Uiso   1.00
C198   C     0.33589   0.79327   0.34035   0.00000  Uiso   1.00
C199   C     0.37897   0.79727   0.38832   0.00000  Uiso   1.00
C200   C     0.38917   0.83639   0.46466   0.00000  Uiso   1.00
C201   C     0.43031   0.83305   0.49829   0.00000  Uiso   1.00
C202   C     0.32285   0.72288   0.34494   0.00000  Uiso   1.00
C203   C     0.28586   0.69945   0.38479   0.00000  Uiso   1.00
C204   C     0.27976   0.63349   0.38191   0.00000  Uiso   1.00
C205   C     0.34350   0.80791   0.23572   0.00000  Uiso   1.00
C206   C     0.32386   0.85597   0.18373   0.00000  Uiso   1.00
C207   C     0.33514   0.86158   0.08888   0.00000  Uiso   1.00
H208   H     0.41405   0.68585   0.23221   0.00000  Uiso   1.00
H209   H     0.47302   0.72113   0.34861   0.00000  Uiso   1.00
H210   H     0.36973   0.58422   0.26875   0.00000  Uiso   1.00
H211   H     0.40773   0.74071   0.06772   0.00000  Uiso   1.00
H212   H     0.52524   0.77831   0.49589   0.00000  Uiso   1.00
H213   H     0.30744   0.48962   0.32747   0.00000  Uiso   1.00
H214   H     0.38756   0.81961   0.90356   0.00000  Uiso   1.00
H215   H     0.31266   0.82519   0.37249   0.00000  Uiso   1.00
H216   H     0.36607   0.86812   0.49659   0.00000  Uiso   1.00
H217   H     0.26278   0.73120   0.41673   0.00000  Uiso   1.00
H218   H     0.30078   0.88769   0.21570   0.00000  Uiso   1.00
H219   H     0.43843   0.89761   0.61599   0.00000  Uiso   1.00
H220   H     0.22063   0.60891   0.44757   0.00000  Uiso   1.00
H221   H     0.30075   0.93891   0.02367   0.00000  Uiso   1.00
O222   O     0.51879   0.86367   0.63506   0.00000  Uiso   1.00
O223   O     0.23304   0.48492   0.41409   0.00000  Uiso   1.00
O224   O     0.33817   0.91786   0.85793   0.00000  Uiso   1.00
N225   N     0.49748   0.80050   0.50711   0.00000  Uiso   1.00
N226   N     0.29385   0.53059   0.34966   0.00000  Uiso   1.00
N227   N     0.36875   0.83910   0.95334   0.00000  Uiso   1.00
N228   N     0.45077   0.86470   0.57174   0.00000  Uiso   1.00
N229   N     0.24714   0.59479   0.41429   0.00000  Uiso   1.00
N230   N     0.32204   0.90329   0.01796   0.00000  Uiso   1.00
C231   C     0.58403   0.79699   0.23494   0.00000  Uiso   1.00
C232   C     0.56720   0.83374   0.14935   0.00000  Uiso   1.00
C233   C     0.52653   0.82962   0.11318   0.00000  Uiso   1.00
C234   C     0.51733   0.86712   0.03441   0.00000  Uiso   1.00
C235   C     0.48656   0.91806   0.90774   0.00000  Uiso   1.00
C236   C     0.62268   0.76032   0.19990   0.00000  Uiso   1.00
C237   C     0.62866   0.69447   0.20625   0.00000  Uiso   1.00
C238   C     0.66616   0.67017   0.17004   0.00000  Uiso   1.00
C239   C     0.72155   0.60712   0.12190   0.00000  Uiso   1.00
C240   C     0.60058   0.84756   0.30376   0.00000  Uiso   1.00
C241   C     0.58800   0.85505   0.39744   0.00000  Uiso   1.00
C242   C     0.60691   0.90418   0.44868   0.00000  Uiso   1.00
C243   C     0.62799   0.97657   0.56180   0.00000  Uiso   1.00
C244   C     0.63999   0.87091   0.15936   0.00000  Uiso   1.00
C245   C     0.59759   0.87389   0.10830   0.00000  Uiso   1.00
C246   C     0.58845   0.91141   0.02957   0.00000  Uiso   1.00
C247   C     0.54778   0.90734   0.99329   0.00000  Uiso   1.00
C248   C     0.65307   0.80047   0.15885   0.00000  Uiso   1.00
C249   C     0.69058   0.77625   0.12263   0.00000  Uiso   1.00
C250   C     0.69662   0.71039   0.12891   0.00000  Uiso   1.00
C251   C     0.63098   0.88771   0.26271   0.00000  Uiso   1.00
C252   C     0.64991   0.93683   0.31382   0.00000  Uiso   1.00
C253   C     0.63736   0.94440   0.40756   0.00000  Uiso   1.00
H254   H     0.56037   0.76573   0.26690   0.00000  Uiso   1.00
H255   H     0.50302   0.79854   0.14497   0.00000  Uiso   1.00
H256   H     0.60514   0.66342   0.23803   0.00000  Uiso   1.00
H257   H     0.56448   0.82397   0.42918   0.00000  Uiso   1.00
H258   H     0.45284   0.85261   0.99166   0.00000  Uiso   1.00
H259   H     0.66817   0.56769   0.18791   0.00000  Uiso   1.00
H260   H     0.58243   0.90624   0.59101   0.00000  Uiso   1.00
H261   H     0.66366   0.90217   0.12740   0.00000  Uiso   1.00
H262   H     0.61197   0.94247   0.99781   0.00000  Uiso   1.00
H263   H     0.71409   0.80734   0.09087   0.00000  Uiso   1.00
H264   H     0.67343   0.96789   0.28203   0.00000  Uiso   1.00
H265   H     0.54127   0.96943   0.87223   0.00000  Uiso   1.00
H266   H     0.75660   0.68450   0.06848   0.00000  Uiso   1.00
H267   H     0.67086   0.02306   0.47157   0.00000  Uiso   1.00
O268   O     0.46120   0.93505   0.84920   0.00000  Uiso   1.00
O269   O     0.74370   0.56125   0.10669   0.00000  Uiso   1.00
O270   O     0.63122   0.00542   0.63553   0.00000  Uiso   1.00
N271   N     0.48075   0.87458   0.98135   0.00000  Uiso   1.00
N272   N     0.68206   0.60819   0.16482   0.00000  Uiso   1.00
N273   N     0.60191   0.92470   0.54169   0.00000  Uiso   1.00
N274   N     0.52833   0.93744   0.91708   0.00000  Uiso   1.00
N275   N     0.72964   0.67105   0.10055   0.00000  Uiso   1.00
N276   N     0.64950   0.98756   0.47742   0.00000  Uiso   1.00
C277   C     0.39082   0.21778   0.76435   0.00000  Uiso   1.00
C278   C     0.40880   0.25627   0.84704   0.00000  Uiso   1.00
C279   C     0.44994   0.25287   0.88057   0.00000  Uiso   1.00
C280   C     0.46020   0.29198   0.95694   0.00000  Uiso   1.00
C281   C     0.49265   0.34549   0.07909   0.00000  Uiso   1.00
C282   C     0.35269   0.18188   0.80366   0.00000  Uiso   1.00
C283   C     0.34664   0.11593   0.80071   0.00000  Uiso   1.00
C284   C     0.30965   0.09242   0.84055   0.00000  Uiso   1.00
C285   C     0.25496   0.03043   0.89529   0.00000  Uiso   1.00
C286   C     0.37333   0.26691   0.69444   0.00000  Uiso   1.00
C287   C     0.38464   0.27245   0.59964   0.00000  Uiso   1.00
C288   C     0.36503   0.32051   0.54752   0.00000  Uiso   1.00
C289   C     0.34240   0.39055   0.43268   0.00000  Uiso   1.00
C290   C     0.33589   0.29327   0.84035   0.00000  Uiso   1.00
C291   C     0.37897   0.29727   0.88832   0.00000  Uiso   1.00
C292   C     0.38917   0.33639   0.96466   0.00000  Uiso   1.00
C293   C     0.43031   0.33305   0.99829   0.00000  Uiso   1.00
C294   C     0.32285   0.22288   0.84494   0.00000  Uiso   1.00
C295   C     0.28586   0.19945   0.88479   0.00000  Uiso   1.00
C296   C     0.27976   0.13349   0.88191   0.00000  Uiso   1.00
C297   C     0.34350   0.30791   0.73572   0.00000  Uiso   1.00
C298   C     0.32386   0.35597   0.68373   0.00000  Uiso   1.00
C299   C     0.33514   0.36158   0.58888   0.00000  Uiso   1.00
H300   H     0.41405   0.18585   0.73221   0.00000  Uiso   1.00
H301   H     0.47302   0.22113   0.84861   0.00000  Uiso   1.00
H302   H     0.36973   0.08422   0.76875   0.00000  Uiso   1.00
H303   H     0.40773   0.24071   0.56772   0.00000  Uiso   1.00
H304   H     0.52524   0.27831   0.99589   0.00000  Uiso   1.00
H305   H     0.30744   0.98962   0.82747   0.00000  Uiso   1.00
H306   H     0.38756   0.31961   0.40356   0.00000  Uiso   1.00
H307   H     0.31266   0.32519   0.87249   0.00000  Uiso   1.00
H308   H     0.36607   0.36812   0.99659   0.00000  Uiso   1.00
H309   H     0.26278   0.23120   0.91673   0.00000  Uiso   1.00
H310   H     0.30078   0.38769   0.71570   0.00000  Uiso   1.00
H311   H     0.43843   0.39761   0.11599   0.00000  Uiso   1.00
H312   H     0.22063   0.10891   0.94757   0.00000  Uiso   1.00
H313   H     0.30075   0.43891   0.52367   0.00000  Uiso   1.00
O314   O     0.51879   0.36367   0.13506   0.00000  Uiso   1.00
O315   O     0.23304   0.98492   0.91409   0.00000  Uiso   1.00
O316   O     0.33817   0.41786   0.35793   0.00000  Uiso   1.00
N317   N     0.49748   0.30050   0.00711   0.00000  Uiso   1.00
N318   N     0.29385   0.03059   0.84966   0.00000  Uiso   1.00
N319   N     0.36875   0.33910   0.45334   0.00000  Uiso   1.00
N320   N     0.45077   0.36470   0.07174   0.00000  Uiso   1.00
N321   N     0.24714   0.09479   0.91429   0.00000  Uiso   1.00
N322   N     0.32204   0.40329   0.51796   0.00000  Uiso   1.00
C323   C     0.58403   0.29699   0.73494   0.00000  Uiso   1.00
C324   C     0.56720   0.33374   0.64935   0.00000  Uiso   1.00
C325   C     0.52653   0.32962   0.61318   0.00000  Uiso   1.00
C326   C     0.51733   0.36712   0.53441   0.00000  Uiso   1.00
C327   C     0.48656   0.41806   0.40774   0.00000  Uiso   1.00
C328   C     0.62268   0.26032   0.69990   0.00000  Uiso   1.00
C329   C     0.62866   0.19447   0.70625   0.00000  Uiso   1.00
C330   C     0.66616   0.17017   0.67004   0.00000  Uiso   1.00
C331   C     0.72155   0.10712   0.62190   0.00000  Uiso   1.00
C332   C     0.60058   0.34756   0.80376   0.00000  Uiso   1.00
C333   C     0.58800   0.35505   0.89744   0.00000  Uiso   1.00
C334   C     0.60691   0.40418   0.94868   0.00000  Uiso   1.00
C335   C     0.62799   0.47657   0.06180   0.00000  Uiso   1.00
C336   C     0.63999   0.37091   0.65936   0.00000  Uiso   1.00
C337   C     0.59759   0.37389   0.60830   0.00000  Uiso   1.00
C338   C     0.58845   0.41141   0.52957   0.00000  Uiso   1.00
C339   C     0.54778   0.40734   0.49329   0.00000  Uiso   1.00
C340   C     0.65307   0.30047   0.65885   0.00000  Uiso   1.00
C341   C     0.69058   0.27625   0.62263   0.00000  Uiso   1.00
C342   C     0.69662   0.21039   0.62891   0.00000  Uiso   1.00
C343   C     0.63098   0.38771   0.76271   0.00000  Uiso   1.00
C344   C     0.64991   0.43683   0.81382   0.00000  Uiso   1.00
C345   C     0.63736   0.44440   0.90756   0.00000  Uiso   1.00
H346   H     0.56037   0.26573   0.76690   0.00000  Uiso   1.00
H347   H     0.50302   0.29854   0.64497   0.00000  Uiso   1.00
H348   H     0.60514   0.16342   0.73803   0.00000  Uiso   1.00
H349   H     0.56448   0.32397   0.92918   0.00000  Uiso   1.00
H350   H     0.45284   0.35261   0.49166   0.00000  Uiso   1.00
H351   H     0.66817   0.06769   0.68791   0.00000  Uiso   1.00
H352   H     0.58243   0.40624   0.09101   0.00000  Uiso   1.00
H353   H     0.66366   0.40217   0.62740   0.00000  Uiso   1.00
H354   H     0.61197   0.44247   0.49781   0.00000  Uiso   1.00
H355   H     0.71409   0.30734   0.59087   0.00000  Uiso   1.00
H356   H     0.67343   0.46789   0.78203   0.00000  Uiso   1.00
H357   H     0.54127   0.46943   0.37223   0.00000  Uiso   1.00
H358   H     0.75660   0.18450   0.56848   0.00000  Uiso   1.00
H359   H     0.67086   0.52306   0.97157   0.00000  Uiso   1.00
O360   O     0.46120   0.43505   0.34920   0.00000  Uiso   1.00
O361   O     0.74370   0.06125   0.60669   0.00000  Uiso   1.00
O362   O     0.63122   0.50542   0.13553   0.00000  Uiso   1.00
N363   N     0.48075   0.37458   0.48135   0.00000  Uiso   1.00
N364   N     0.68206   0.10819   0.66482   0.00000  Uiso   1.00
N365   N     0.60191   0.42470   0.04169   0.00000  Uiso   1.00
N366   N     0.52833   0.43744   0.41708   0.00000  Uiso   1.00
N367   N     0.72964   0.17105   0.60055   0.00000  Uiso   1.00
N368   N     0.64950   0.48756   0.97742   0.00000  Uiso   1.00
C369   C     0.10918   0.21778   0.26435   0.00000  Uiso   1.00
C370   C     0.09120   0.25627   0.34704   0.00000  Uiso   1.00
C371   C     0.05006   0.25287   0.38057   0.00000  Uiso   1.00
C372   C     0.03980   0.29198   0.45694   0.00000  Uiso   1.00
C373   C     0.00735   0.34549   0.57909   0.00000  Uiso   1.00
C374   C     0.14731   0.18188   0.30366   0.00000  Uiso   1.00
C375   C     0.15336   0.11593   0.30071   0.00000  Uiso   1.00
C376   C     0.19035   0.09242   0.34055   0.00000  Uiso   1.00
C377   C     0.24504   0.03043   0.39529   0.00000  Uiso   1.00
C378   C     0.12667   0.26691   0.19444   0.00000  Uiso   1.00
C379   C     0.11536   0.27245   0.09964   0.00000  Uiso   1.00
C380   C     0.13497   0.32051   0.04752   0.00000  Uiso   1.00
C381   C     0.15760   0.39055   0.93268   0.00000  Uiso   1.00
C382   C     0.16411   0.29327   0.34035   0.00000  Uiso   1.00
C383   C     0.12103   0.29727   0.38832   0.00000  Uiso   1.00
C384   C     0.11083   0.33639   0.46466   0.00000  Uiso   1.00
C385   C     0.06969   0.33305   0.49829   0.00000  Uiso   1.00
C386   C     0.17715   0.22288   0.34494   0.00000  Uiso   1.00
C387   C     0.21414   0.19945   0.38479   0.00000  Uiso   1.00
C388   C     0.22024   0.13349   0.38191   0.00000  Uiso   1.00
C389   C     0.15650   0.30791   0.23572   0.00000  Uiso   1.00
C390   C     0.17614   0.35597   0.18373   0.00000  Uiso   1.00
C391   C     0.16486   0.36158   0.08888   0.00000  Uiso   1.00
H392   H     0.08595   0.18585   0.23221   0.00000  Uiso   1.00
H393   H     0.02698   0.22113   0.34861   0.00000  Uiso   1.00
H394   H     0.13027   0.08422   0.26875   0.00000  Uiso   1.00
H395   H     0.09227   0.24071   0.06772   0.00000  Uiso   1.00
H396   H     0.97476   0.27831   0.49589   0.00000  Uiso   1.00
H397   H     0.19256   0.98962   0.32747   0.00000  Uiso   1.00
H398   H     0.11244   0.31961   0.90356   0.00000  Uiso   1.00
H399   H     0.18734   0.32519   0.37249   0.00000  Uiso   1.00
H400   H     0.13393   0.36812   0.49659   0.00000  Uiso   1.00
H401   H     0.23722   0.23120   0.41673   0.00000  Uiso   1.00
H402   H     0.19922   0.38769   0.21570   0.00000  Uiso   1.00
H403   H     0.06157   0.39761   0.61599   0.00000  Uiso   1.00
H404   H     0.27937   0.10891   0.44757   0.00000  Uiso   1.00
H405   H     0.19925   0.43891   0.02367   0.00000  Uiso   1.00
O406   O     0.98121   0.36367   0.63506   0.00000  Uiso   1.00
O407   O     0.26696   0.98492   0.41409   0.00000  Uiso   1.00
O408   O     0.16183   0.41786   0.85793   0.00000  Uiso   1.00
N409   N     0.00252   0.30050   0.50711   0.00000  Uiso   1.00
N410   N     0.20615   0.03059   0.34966   0.00000  Uiso   1.00
N411   N     0.13125   0.33910   0.95334   0.00000  Uiso   1.00
N412   N     0.04923   0.36470   0.57174   0.00000  Uiso   1.00
N413   N     0.25286   0.09479   0.41429   0.00000  Uiso   1.00
N414   N     0.17796   0.40329   0.01796   0.00000  Uiso   1.00
C415   C     0.91597   0.29699   0.23494   0.00000  Uiso   1.00
C416   C     0.93280   0.33374   0.14935   0.00000  Uiso   1.00
C417   C     0.97347   0.32962   0.11318   0.00000  Uiso   1.00
C418   C     0.98267   0.36712   0.03441   0.00000  Uiso   1.00
C419   C     0.01344   0.41806   0.90774   0.00000  Uiso   1.00
C420   C     0.87732   0.26032   0.19990   0.00000  Uiso   1.00
C421   C     0.87134   0.19447   0.20625   0.00000  Uiso   1.00
C422   C     0.83384   0.17017   0.17004   0.00000  Uiso   1.00
C423   C     0.77845   0.10712   0.12190   0.00000  Uiso   1.00
C424   C     0.89942   0.34756   0.30376   0.00000  Uiso   1.00
C425   C     0.91200   0.35505   0.39744   0.00000  Uiso   1.00
C426   C     0.89309   0.40418   0.44868   0.00000  Uiso   1.00
C427   C     0.87201   0.47657   0.56180   0.00000  Uiso   1.00
C428   C     0.86001   0.37091   0.15936   0.00000  Uiso   1.00
C429   C     0.90241   0.37389   0.10830   0.00000  Uiso   1.00
C430   C     0.91155   0.41141   0.02957   0.00000  Uiso   1.00
C431   C     0.95222   0.40734   0.99329   0.00000  Uiso   1.00
C432   C     0.84693   0.30047   0.15885   0.00000  Uiso   1.00
C433   C     0.80942   0.27625   0.12263   0.00000  Uiso   1.00
C434   C     0.80338   0.21039   0.12891   0.00000  Uiso   1.00
C435   C     0.86902   0.38771   0.26271   0.00000  Uiso   1.00
C436   C     0.85009   0.43683   0.31382   0.00000  Uiso   1.00
C437   C     0.86264   0.44440   0.40756   0.00000  Uiso   1.00
H438   H     0.93963   0.26573   0.26690   0.00000  Uiso   1.00
H439   H     0.99698   0.29854   0.14497   0.00000  Uiso   1.00
H440   H     0.89486   0.16342   0.23803   0.00000  Uiso   1.00
H441   H     0.93552   0.32397   0.42918   0.00000  Uiso   1.00
H442   H     0.04716   0.35261   0.99166   0.00000  Uiso   1.00
H443   H     0.83183   0.06769   0.18791   0.00000  Uiso   1.00
H444   H     0.91757   0.40624   0.59101   0.00000  Uiso   1.00
H445   H     0.83634   0.40217   0.12740   0.00000  Uiso   1.00
H446   H     0.88803   0.44247   0.99781   0.00000  Uiso   1.00
H447   H     0.78591   0.30734   0.09087   0.00000  Uiso   1.00
H448   H     0.82657   0.46789   0.28203   0.00000  Uiso   1.00
H449   H     0.95873   0.46943   0.87223   0.00000  Uiso   1.00
H450   H     0.74340   0.18450   0.06848   0.00000  Uiso   1.00
H451   H     0.82914   0.52306   0.47157   0.00000  Uiso   1.00
O452   O     0.03880   0.43505   0.84920   0.00000  Uiso   1.00
O453   O     0.75630   0.06125   0.10669   0.00000  Uiso   1.00
O454   O     0.86878   0.50542   0.63553   0.00000  Uiso   1.00
N455   N     0.01925   0.37458   0.98135   0.00000  Uiso   1.00
N456   N     0.81794   0.10819   0.16482   0.00000  Uiso   1.00
N457   N     0.89809   0.42470   0.54169   0.00000  Uiso   1.00
N458   N     0.97167   0.43744   0.91708   0.00000  Uiso   1.00
N459   N     0.77036   0.17105   0.10055   0.00000  Uiso   1.00
N460   N     0.85050   0.48756   0.47742   0.00000  Uiso   1.00
C461   C     0.10918   0.71778   0.76435   0.00000  Uiso   1.00
C462   C     0.09120   0.75627   0.84704   0.00000  Uiso   1.00
C463   C     0.05006   0.75287   0.88057   0.00000  Uiso   1.00
C464   C     0.03980   0.79198   0.95694   0.00000  Uiso   1.00
C465   C     0.00735   0.84549   0.07909   0.00000  Uiso   1.00
C466   C     0.14731   0.68188   0.80366   0.00000  Uiso   1.00
C467   C     0.15336   0.61593   0.80071   0.00000  Uiso   1.00
C468   C     0.19035   0.59242   0.84055   0.00000  Uiso   1.00
C469   C     0.24504   0.53043   0.89529   0.00000  Uiso   1.00
C470   C     0.12667   0.76691   0.69444   0.00000  Uiso   1.00
C471   C     0.11536   0.77245   0.59964   0.00000  Uiso   1.00
C472   C     0.13497   0.82051   0.54752   0.00000  Uiso   1.00
C473   C     0.15760   0.89055   0.43268   0.00000  Uiso   1.00
C474   C     0.16411   0.79327   0.84035   0.00000  Uiso   1.00
C475   C     0.12103   0.79727   0.88832   0.00000  Uiso   1.00
C476   C     0.11083   0.83639   0.96466   0.00000  Uiso   1.00
C477   C     0.06969   0.83305   0.99829   0.00000  Uiso   1.00
C478   C     0.17715   0.72288   0.84494   0.00000  Uiso   1.00
C479   C     0.21414   0.69945   0.88479   0.00000  Uiso   1.00
C480   C     0.22024   0.63349   0.88191   0.00000  Uiso   1.00
C481   C     0.15650   0.80791   0.73572   0.00000  Uiso   1.00
C482   C     0.17614   0.85597   0.68373   0.00000  Uiso   1.00
C483   C     0.16486   0.86158   0.58888   0.00000  Uiso   1.00
H484   H     0.08595   0.68585   0.73221   0.00000  Uiso   1.00
H485   H     0.02698   0.72113   0.84861   0.00000  Uiso   1.00
H486   H     0.13027   0.58422   0.76875   0.00000  Uiso   1.00
H487   H     0.09227   0.74071   0.56772   0.00000  Uiso   1.00
H488   H     0.97476   0.77831   0.99589   0.00000  Uiso   1.00
H489   H     0.19256   0.48962   0.82747   0.00000  Uiso   1.00
H490   H     0.11244   0.81961   0.40356   0.00000  Uiso   1.00
H491   H     0.18734   0.82519   0.87249   0.00000  Uiso   1.00
H492   H     0.13393   0.86812   0.99659   0.00000  Uiso   1.00
H493   H     0.23722   0.73120   0.91673   0.00000  Uiso   1.00
H494   H     0.19922   0.88769   0.71570   0.00000  Uiso   1.00
H495   H     0.06157   0.89761   0.11599   0.00000  Uiso   1.00
H496   H     0.27937   0.60891   0.94757   0.00000  Uiso   1.00
H497   H     0.19925   0.93891   0.52367   0.00000  Uiso   1.00
O498   O     0.98121   0.86367   0.13506   0.00000  Uiso   1.00
O499   O     0.26696   0.48492   0.91409   0.00000  Uiso   1.00
O500   O     0.16183   0.91786   0.35793   0.00000  Uiso   1.00
N501   N     0.00252   0.80050   0.00711   0.00000  Uiso   1.00
N502   N     0.20615   0.53059   0.84966   0.00000  Uiso   1.00
N503   N     0.13125   0.83910   0.45334   0.00000  Uiso   1.00
N504   N     0.04923   0.86470   0.07174   0.00000  Uiso   1.00
N505   N     0.25286   0.59479   0.91429   0.00000  Uiso   1.00
N506   N     0.17796   0.90329   0.51796   0.00000  Uiso   1.00
C507   C     0.91597   0.79699   0.73494   0.00000  Uiso   1.00
C508   C     0.93280   0.83374   0.64935   0.00000  Uiso   1.00
C509   C     0.97347   0.82962   0.61318   0.00000  Uiso   1.00
C510   C     0.98267   0.86712   0.53441   0.00000  Uiso   1.00
C511   C     0.01344   0.91806   0.40774   0.00000  Uiso   1.00
C512   C     0.87732   0.76032   0.69990   0.00000  Uiso   1.00
C513   C     0.87134   0.69447   0.70625   0.00000  Uiso   1.00
C514   C     0.83384   0.67017   0.67004   0.00000  Uiso   1.00
C515   C     0.77845   0.60712   0.62190   0.00000  Uiso   1.00
C516   C     0.89942   0.84756   0.80376   0.00000  Uiso   1.00
C517   C     0.91200   0.85505   0.89744   0.00000  Uiso   1.00
C518   C     0.89309   0.90418   0.94868   0.00000  Uiso   1.00
C519   C     0.87201   0.97657   0.06180   0.00000  Uiso   1.00
C520   C     0.86001   0.87091   0.65936   0.00000  Uiso   1.00
C521   C     0.90241   0.87389   0.60830   0.00000  Uiso   1.00
C522   C     0.91155   0.91141   0.52957   0.00000  Uiso   1.00
C523   C     0.95222   0.90734   0.49329   0.00000  Uiso   1.00
C524   C     0.84693   0.80047   0.65885   0.00000  Uiso   1.00
C525   C     0.80942   0.77625   0.62263   0.00000  Uiso   1.00
C526   C     0.80338   0.71039   0.62891   0.00000  Uiso   1.00
C527   C     0.86902   0.88771   0.76271   0.00000  Uiso   1.00
C528   C     0.85009   0.93683   0.81382   0.00000  Uiso   1.00
C529   C     0.86264   0.94440   0.90756   0.00000  Uiso   1.00
H530   H     0.93963   0.76573   0.76690   0.00000  Uiso   1.00
H531   H     0.99698   0.79854   0.64497   0.00000  Uiso   1.00
H532   H     0.89486   0.66342   0.73803   0.00000  Uiso   1.00
H533   H     0.93552   0.82397   0.92918   0.00000  Uiso   1.00
H534   H     0.04716   0.85261   0.49166   0.00000  Uiso   1.00
H535   H     0.83183   0.56769   0.68791   0.00000  Uiso   1.00
H536   H     0.91757   0.90624   0.09101   0.00000  Uiso   1.00
H537   H     0.83634   0.90217   0.62740   0.00000  Uiso   1.00
H538   H     0.88803   0.94247   0.49781   0.00000  Uiso   1.00
H539   H     0.78591   0.80734   0.59087   0.00000  Uiso   1.00
H540   H     0.82657   0.96789   0.78203   0.00000  Uiso   1.00
H541   H     0.95873   0.96943   0.37223   0.00000  Uiso   1.00
H542   H     0.74340   0.68450   0.56848   0.00000  Uiso   1.00
H543   H     0.82914   0.02306   0.97157   0.00000  Uiso   1.00
O544   O     0.03880   0.93505   0.34920   0.00000  Uiso   1.00
O545   O     0.75630   0.56125   0.60669   0.00000  Uiso   1.00
O546   O     0.86878   0.00542   0.13553   0.00000  Uiso   1.00
N547   N     0.01925   0.87458   0.48135   0.00000  Uiso   1.00
N548   N     0.81794   0.60819   0.66482   0.00000  Uiso   1.00
N549   N     0.89809   0.92470   0.04169   0.00000  Uiso   1.00
N550   N     0.97167   0.93744   0.41708   0.00000  Uiso   1.00
N551   N     0.77036   0.67105   0.60055   0.00000  Uiso   1.00
N552   N     0.85050   0.98756   0.97742   0.00000  Uiso   1.00
C553   C     0.89082   0.78222   0.26435   0.00000  Uiso   1.00
C554   C     0.90880   0.74373   0.34704   0.00000  Uiso   1.00
C555   C     0.94994   0.74713   0.38057   0.00000  Uiso   1.00
C556   C     0.96020   0.70802   0.45694   0.00000  Uiso   1.00
C557   C     0.99265   0.65451   0.57909   0.00000  Uiso   1.00
C558   C     0.85269   0.81812   0.30366   0.00000  Uiso   1.00
C559   C     0.84664   0.88407   0.30071   0.00000  Uiso   1.00
C560   C     0.80965   0.90758   0.34055   0.00000  Uiso   1.00
C561   C     0.75496   0.96957   0.39529   0.00000  Uiso   1.00
C562   C     0.87333   0.73309   0.19444   0.00000  Uiso   1.00
C563   C     0.88464   0.72755   0.09964   0.00000  Uiso   1.00
C564   C     0.86503   0.67949   0.04752   0.00000  Uiso   1.00
C565   C     0.84240   0.60945   0.93268   0.00000  Uiso   1.00
C566   C     0.83589   0.70673   0.34035   0.00000  Uiso   1.00
C567   C     0.87897   0.70273   0.38832   0.00000  Uiso   1.00
C568   C     0.88917   0.66361   0.46466   0.00000  Uiso   1.00
C569   C     0.93031   0.66695   0.49829   0.00000  Uiso   1.00
C570   C     0.82285   0.77712   0.34494   0.00000  Uiso   1.00
C571   C     0.78586   0.80055   0.38479   0.00000  Uiso   1.00
C572   C     0.77976   0.86651   0.38191   0.00000  Uiso   1.00
C573   C     0.84350   0.69209   0.23572   0.00000  Uiso   1.00
C574   C     0.82386   0.64403   0.18373   0.00000  Uiso   1.00
C575   C     0.83514   0.63842   0.08888   0.00000  Uiso   1.00
H576   H     0.91405   0.81415   0.23221   0.00000  Uiso   1.00
H577   H     0.97302   0.77887   0.34861   0.00000  Uiso   1.00
H578   H     0.86973   0.91578   0.26875   0.00000  Uiso   1.00
H579   H     0.90773   0.75929   0.06772   0.00000  Uiso   1.00
H580   H     0.02524   0.72169   0.49589   0.00000  Uiso   1.00
H581   H     0.80744   0.01038   0.32747   0.00000  Uiso   1.00
H582   H     0.88756   0.68039   0.90356   0.00000  Uiso   1.00
H583   H     0.81266   0.67481   0.37249   0.00000  Uiso   1.00
H584   H     0.86607   0.63188   0.49659   0.00000  Uiso   1.00
H585   H     0.76278   0.76880   0.41673   0.00000  Uiso   1.00
H586   H     0.80078   0.61231   0.21570   0.00000  Uiso   1.00
H587   H     0.93843   0.60239   0.61599   0.00000  Uiso   1.00
H588   H     0.72063   0.89109   0.44757   0.00000  Uiso   1.00
H589   H     0.80075   0.56109   0.02367   0.00000  Uiso   1.00
O590   O     0.01879   0.63633   0.63506   0.00000  Uiso   1.00
O591   O     0.73304   0.01508   0.41409   0.00000  Uiso   1.00
O592   O     0.83817   0.58214   0.85793   0.00000  Uiso   1.00
N593   N     0.99748   0.69950   0.50711   0.00000  Uiso   1.00
N594   N     0.79385   0.96941   0.34966   0.00000  Uiso   1.00
N595   N     0.86875   0.66090   0.95334   0.00000  Uiso   1.00
N596   N     0.95077   0.63530   0.57174   0.00000  Uiso   1.00
N597   N     0.74714   0.90521   0.41429   0.00000  Uiso   1.00
N598   N     0.82204   0.59671   0.01796   0.00000  Uiso   1.00
C599   C     0.08403   0.70301   0.23494   0.00000  Uiso   1.00
C600   C     0.06720   0.66626   0.14935   0.00000  Uiso   1.00
C601   C     0.02653   0.67038   0.11318   0.00000  Uiso   1.00
C602   C     0.01733   0.63288   0.03441   0.00000  Uiso   1.00
C603   C     0.98656   0.58194   0.90774   0.00000  Uiso   1.00
C604   C     0.12268   0.73968   0.19990   0.00000  Uiso   1.00
C605   C     0.12866   0.80553   0.20625   0.00000  Uiso   1.00
C606   C     0.16616   0.82983   0.17004   0.00000  Uiso   1.00
C607   C     0.22155   0.89288   0.12190   0.00000  Uiso   1.00
C608   C     0.10058   0.65244   0.30376   0.00000  Uiso   1.00
C609   C     0.08800   0.64495   0.39744   0.00000  Uiso   1.00
C610   C     0.10691   0.59582   0.44868   0.00000  Uiso   1.00
C611   C     0.12799   0.52343   0.56180   0.00000  Uiso   1.00
C612   C     0.13999   0.62909   0.15936   0.00000  Uiso   1.00
C613   C     0.09759   0.62611   0.10830   0.00000  Uiso   1.00
C614   C     0.08845   0.58859   0.02957   0.00000  Uiso   1.00
C615   C     0.04778   0.59266   0.99329   0.00000  Uiso   1.00
C616   C     0.15307   0.69953   0.15885   0.00000  Uiso   1.00
C617   C     0.19058   0.72375   0.12263   0.00000  Uiso   1.00
C618   C     0.19662   0.78961   0.12891   0.00000  Uiso   1.00
C619   C     0.13098   0.61229   0.26271   0.00000  Uiso   1.00
C620   C     0.14991   0.56317   0.31382   0.00000  Uiso   1.00
C621   C     0.13736   0.55560   0.40756   0.00000  Uiso   1.00
H622   H     0.06037   0.73427   0.26690   0.00000  Uiso   1.00
H623   H     0.00302   0.70146   0.14497   0.00000  Uiso   1.00
H624   H     0.10514   0.83658   0.23803   0.00000  Uiso   1.00
H625   H     0.06448   0.67603   0.42918   0.00000  Uiso   1.00
H626   H     0.95284   0.64739   0.99166   0.00000  Uiso   1.00
H627   H     0.16817   0.93231   0.18791   0.00000  Uiso   1.00
H628   H     0.08243   0.59376   0.59101   0.00000  Uiso   1.00
H629   H     0.16366   0.59783   0.12740   0.00000  Uiso   1.00
H630   H     0.11197   0.55753   0.99781   0.00000  Uiso   1.00
H631   H     0.21409   0.69266   0.09087   0.00000  Uiso   1.00
H632   H     0.17343   0.53211   0.28203   0.00000  Uiso   1.00
H633   H     0.04127   0.53057   0.87223   0.00000  Uiso   1.00
H634   H     0.25660   0.81550   0.06848   0.00000  Uiso   1.00
H635   H     0.17086   0.47694   0.47157   0.00000  Uiso   1.00
O636   O     0.96120   0.56495   0.84920   0.00000  Uiso   1.00
O637   O     0.24370   0.93875   0.10669   0.00000  Uiso   1.00
O638   O     0.13122   0.49458   0.63553   0.00000  Uiso   1.00
N639   N     0.98075   0.62542   0.98135   0.00000  Uiso   1.00
N640   N     0.18206   0.89181   0.16482   0.00000  Uiso   1.00
N641   N     0.10191   0.57530   0.54169   0.00000  Uiso   1.00
N642   N     0.02833   0.56256   0.91708   0.00000  Uiso   1.00
N643   N     0.22964   0.82895   0.10055   0.00000  Uiso   1.00
N644   N     0.14950   0.51244   0.47742   0.00000  Uiso   1.00
C645   C     0.89082   0.28222   0.76435   0.00000  Uiso   1.00
C646   C     0.90880   0.24373   0.84704   0.00000  Uiso   1.00
C647   C     0.94994   0.24713   0.88057   0.00000  Uiso   1.00
C648   C     0.96020   0.20802   0.95694   0.00000  Uiso   1.00
C649   C     0.99265   0.15451   0.07909   0.00000  Uiso   1.00
C650   C     0.85269   0.31812   0.80366   0.00000  Uiso   1.00
C651   C     0.84664   0.38407   0.80071   0.00000  Uiso   1.00
C652   C     0.80965   0.40758   0.84055   0.00000  Uiso   1.00
C653   C     0.75496   0.46957   0.89529   0.00000  Uiso   1.00
C654   C     0.87333   0.23309   0.69444   0.00000  Uiso   1.00
C655   C     0.88464   0.22755   0.59964   0.00000  Uiso   1.00
C656   C     0.86503   0.17949   0.54752   0.00000  Uiso   1.00
C657   C     0.84240   0.10945   0.43268   0.00000  Uiso   1.00
C658   C     0.83589   0.20673   0.84035   0.00000  Uiso   1.00
C659   C     0.87897   0.20273   0.88832   0.00000  Uiso   1.00
C660   C     0.88917   0.16361   0.96466   0.00000  Uiso   1.00
C661   C     0.93031   0.16695   0.99829   0.00000  Uiso   1.00
C662   C     0.82285   0.27712   0.84494   0.00000  Uiso   1.00
C663   C     0.78586   0.30055   0.88479   0.00000  Uiso   1.00
C664   C     0.77976   0.36651   0.88191   0.00000  Uiso   1.00
C665   C     0.84350   0.19209   0.73572   0.00000  Uiso   1.00
C666   C     0.82386   0.14403   0.68373   0.00000  Uiso   1.00
C667   C     0.83514   0.13842   0.58888   0.00000  Uiso   1.00
H668   H     0.91405   0.31415   0.73221   0.00000  Uiso   1.00
H669   H     0.97302   0.27887   0.84861   0.00000  Uiso   1.00
H670   H     0.86973   0.41578   0.76875   0.00000  Uiso   1.00
H671   H     0.90773   0.25929   0.56772   0.00000  Uiso   1.00
H672   H     0.02524   0.22169   0.99589   0.00000  Uiso   1.00
H673   H     0.80744   0.51038   0.82747   0.00000  Uiso   1.00
H674   H     0.88756   0.18039   0.40356   0.00000  Uiso   1.00
H675   H     0.81266   0.17481   0.87249   0.00000  Uiso   1.00
H676   H     0.86607   0.13188   0.99659   0.00000  Uiso   1.00
H677   H     0.76278   0.26880   0.91673   0.00000  Uiso   1.00
H678   H     0.80078   0.11231   0.71570   0.00000  Uiso   1.00
H679   H     0.93843   0.10239   0.11599   0.00000  Uiso   1.00
H680   H     0.72063   0.39109   0.94757   0.00000  Uiso   1.00
H681   H     0.80075   0.06109   0.52367   0.00000  Uiso   1.00
O682   O     0.01879   0.13633   0.13506   0.00000  Uiso   1.00
O683   O     0.73304   0.51508   0.91409   0.00000  Uiso   1.00
O684   O     0.83817   0.08214   0.35793   0.00000  Uiso   1.00
N685   N     0.99748   0.19950   0.00711   0.00000  Uiso   1.00
N686   N     0.79385   0.46941   0.84966   0.00000  Uiso   1.00
N687   N     0.86875   0.16090   0.45334   0.00000  Uiso   1.00
N688   N     0.95077   0.13530   0.07174   0.00000  Uiso   1.00
N689   N     0.74714   0.40521   0.91429   0.00000  Uiso   1.00
N690   N     0.82204   0.09671   0.51796   0.00000  Uiso   1.00
C691   C     0.08403   0.20301   0.73494   0.00000  Uiso   1.00
C692   C     0.06720   0.16626   0.64935   0.00000  Uiso   1.00
C693   C     0.02653   0.17038   0.61318   0.00000  Uiso   1.00
C694   C     0.01733   0.13288   0.53441   0.00000  Uiso   1.00
C695   C     0.98656   0.08194   0.40774   0.00000  Uiso   1.00
C696   C     0.12268   0.23968   0.69990   0.00000  Uiso   1.00
C697   C     0.12866   0.30553   0.70625   0.00000  Uiso   1.00
C698   C     0.16616   0.32983   0.67004   0.00000  Uiso   1.00
C699   C     0.22155   0.39288   0.62190   0.00000  Uiso   1.00
C700   C     0.10058   0.15244   0.80376   0.00000  Uiso   1.00
C701   C     0.08800   0.14495   0.89744   0.00000  Uiso   1.00
C702   C     0.10691   0.09582   0.94868   0.00000  Uiso   1.00
C703   C     0.12799   0.02343   0.06180   0.00000  Uiso   1.00
C704   C     0.13999   0.12909   0.65936   0.00000  Uiso   1.00
C705   C     0.09759   0.12611   0.60830   0.00000  Uiso   1.00
C706   C     0.08845   0.08859   0.52957   0.00000  Uiso   1.00
C707   C     0.04778   0.09266   0.49329   0.00000  Uiso   1.00
C708   C     0.15307   0.19953   0.65885   0.00000  Uiso   1.00
C709   C     0.19058   0.22375   0.62263   0.00000  Uiso   1.00
C710   C     0.19662   0.28961   0.62891   0.00000  Uiso   1.00
C711   C     0.13098   0.11229   0.76271   0.00000  Uiso   1.00
C712   C     0.14991   0.06317   0.81382   0.00000  Uiso   1.00
C713   C     0.13736   0.05560   0.90756   0.00000  Uiso   1.00
H714   H     0.06037   0.23427   0.76690   0.00000  Uiso   1.00
H715   H     0.00302   0.20146   0.64497   0.00000  Uiso   1.00
H716   H     0.10514   0.33658   0.73803   0.00000  Uiso   1.00
H717   H     0.06448   0.17603   0.92918   0.00000  Uiso   1.00
H718   H     0.95284   0.14739   0.49166   0.00000  Uiso   1.00
H719   H     0.16817   0.43231   0.68791   0.00000  Uiso   1.00
H720   H     0.08243   0.09376   0.09101   0.00000  Uiso   1.00
H721   H     0.16366   0.09783   0.62740   0.00000  Uiso   1.00
H722   H     0.11197   0.05753   0.49781   0.00000  Uiso   1.00
H723   H     0.21409   0.19266   0.59087   0.00000  Uiso   1.00
H724   H     0.17343   0.03211   0.78203   0.00000  Uiso   1.00
H725   H     0.04127   0.03057   0.37223   0.00000  Uiso   1.00
H726   H     0.25660   0.31550   0.56848   0.00000  Uiso   1.00
H727   H     0.17086   0.97694   0.97157   0.00000  Uiso   1.00
O728   O     0.96120   0.06495   0.34920   0.00000  Uiso   1.00
O729   O     0.24370   0.43875   0.60669   0.00000  Uiso   1.00
O730   O     0.13122   0.99458   0.13553   0.00000  Uiso   1.00
N731   N     0.98075   0.12542   0.48135   0.00000  Uiso   1.00
N732   N     0.18206   0.39181   0.66482   0.00000  Uiso   1.00
N733   N     0.10191   0.07530   0.04169   0.00000  Uiso   1.00
N734   N     0.02833   0.06256   0.41708   0.00000  Uiso   1.00
N735   N     0.22964   0.32895   0.60055   0.00000  Uiso   1.00
N736   N     0.14950   0.01244   0.97742   0.00000  Uiso   1.00
