data_job_03221
_audit_creation_date              2018-12-19
_audit_creation_method            'Materials Studio'
_symmetry_space_group_name_H-M    'P1'
_symmetry_Int_Tables_number       1
_symmetry_cell_setting            triclinic
loop_
_symmetry_equiv_pos_as_xyz
  x,y,z
_cell_length_a                    19.3873
_cell_length_b                    19.3873
_cell_length_c                    27.4260
_cell_angle_alpha                 90.0000
_cell_angle_beta                  90.0000
_cell_angle_gamma                 90.0000
loop_
_atom_site_label
_atom_site_type_symbol
_atom_site_fract_x
_atom_site_fract_y
_atom_site_fract_z
_atom_site_U_iso_or_equiv
_atom_site_adp_type
_atom_site_occupancy
C1     C     0.15222   0.36996   0.04401   0.00000  Uiso   1.00
C2     C     0.21507   0.39434   0.01536   0.00000  Uiso   1.00
C3     C     0.28044   0.36532   0.01733   0.00000  Uiso   1.00
C4     C     0.33101   0.39514   0.98833   0.00000  Uiso   1.00
C5     C     0.43079   0.42439   0.94841   0.00000  Uiso   1.00
C6     C     0.12698   0.43241   0.07272   0.00000  Uiso   1.00
C7     C     0.11829   0.43539   0.12290   0.00000  Uiso   1.00
C8     C     0.09469   0.49726   0.14219   0.00000  Uiso   1.00
C9     C     0.05767   0.58559   0.19131   0.00000  Uiso   1.00
C10    C     0.09648   0.35479   0.00628   0.00000  Uiso   1.00
C11    C     0.06213   0.29250   0.00060   0.00000  Uiso   1.00
C12    C     0.01284   0.28902   0.96396   0.00000  Uiso   1.00
C13    C     0.92846   0.25682   0.90992   0.00000  Uiso   1.00
C14    C     0.12576   0.47454   0.98903   0.00000  Uiso   1.00
C15    C     0.20070   0.45115   0.98550   0.00000  Uiso   1.00
C16    C     0.25117   0.48102   0.95649   0.00000  Uiso   1.00
C17    C     0.31661   0.45205   0.95841   0.00000  Uiso   1.00
C18    C     0.11261   0.48921   0.04286   0.00000  Uiso   1.00
C19    C     0.08902   0.55109   0.06207   0.00000  Uiso   1.00
C20    C     0.08030   0.55416   0.11227   0.00000  Uiso   1.00
C21    C     0.08211   0.41159   0.97641   0.00000  Uiso   1.00
C22    C     0.03286   0.40820   0.93977   0.00000  Uiso   1.00
C23    C     0.99844   0.34592   0.93404   0.00000  Uiso   1.00
H24    H     0.16341   0.32574   0.06727   0.00000  Uiso   1.00
H25    H     0.29154   0.32137   0.04045   0.00000  Uiso   1.00
H26    H     0.12941   0.39142   0.14601   0.00000  Uiso   1.00
H27    H     0.07326   0.24856   0.02372   0.00000  Uiso   1.00
H28    H     0.42728   0.34158   0.99756   0.00000  Uiso   1.00
H29    H     0.08538   0.48929   0.22013   0.00000  Uiso   1.00
H30    H     0.96698   0.18803   0.96227   0.00000  Uiso   1.00
H31    H     0.11458   0.51876   0.96578   0.00000  Uiso   1.00
H32    H     0.24004   0.52498   0.93339   0.00000  Uiso   1.00
H33    H     0.07790   0.59504   0.03895   0.00000  Uiso   1.00
H34    H     0.02176   0.45217   0.91667   0.00000  Uiso   1.00
H35    H     0.38547   0.50685   0.91067   0.00000  Uiso   1.00
H36    H     0.04357   0.65456   0.13324   0.00000  Uiso   1.00
H37    H     0.92518   0.35329   0.87538   0.00000  Uiso   1.00
O38    O     0.48979   0.42484   0.93465   0.00000  Uiso   1.00
O39    O     0.04123   0.61862   0.22666   0.00000  Uiso   1.00
O40    O     0.88590   0.22337   0.88835   0.00000  Uiso   1.00
N41    N     0.40022   0.37962   0.98154   0.00000  Uiso   1.00
N42    N     0.08058   0.51772   0.18964   0.00000  Uiso   1.00
N43    N     0.96987   0.23607   0.94857   0.00000  Uiso   1.00
N44    N     0.37772   0.46854   0.93479   0.00000  Uiso   1.00
N45    N     0.05808   0.60665   0.14288   0.00000  Uiso   1.00
N46    N     0.94738   0.32499   0.90182   0.00000  Uiso   1.00
C47    C     0.65222   0.86996   0.54401   0.00000  Uiso   1.00
C48    C     0.71507   0.89434   0.51536   0.00000  Uiso   1.00
C49    C     0.78044   0.86532   0.51733   0.00000  Uiso   1.00
C50    C     0.83101   0.89514   0.48833   0.00000  Uiso   1.00
C51    C     0.93079   0.92439   0.44841   0.00000  Uiso   1.00
C52    C     0.62698   0.93241   0.57272   0.00000  Uiso   1.00
C53    C     0.61829   0.93539   0.62290   0.00000  Uiso   1.00
C54    C     0.59469   0.99726   0.64219   0.00000  Uiso   1.00
C55    C     0.55767   0.08559   0.69131   0.00000  Uiso   1.00
C56    C     0.59648   0.85479   0.50628   0.00000  Uiso   1.00
C57    C     0.56213   0.79250   0.50060   0.00000  Uiso   1.00
C58    C     0.51284   0.78902   0.46396   0.00000  Uiso   1.00
C59    C     0.42846   0.75682   0.40992   0.00000  Uiso   1.00
C60    C     0.62576   0.97454   0.48903   0.00000  Uiso   1.00
C61    C     0.70070   0.95115   0.48550   0.00000  Uiso   1.00
C62    C     0.75117   0.98102   0.45649   0.00000  Uiso   1.00
C63    C     0.81661   0.95205   0.45841   0.00000  Uiso   1.00
C64    C     0.61261   0.98921   0.54286   0.00000  Uiso   1.00
C65    C     0.58902   0.05109   0.56207   0.00000  Uiso   1.00
C66    C     0.58030   0.05416   0.61227   0.00000  Uiso   1.00
C67    C     0.58211   0.91159   0.47641   0.00000  Uiso   1.00
C68    C     0.53286   0.90820   0.43977   0.00000  Uiso   1.00
C69    C     0.49844   0.84592   0.43404   0.00000  Uiso   1.00
H70    H     0.66341   0.82574   0.56727   0.00000  Uiso   1.00
H71    H     0.79154   0.82137   0.54045   0.00000  Uiso   1.00
H72    H     0.62941   0.89142   0.64601   0.00000  Uiso   1.00
H73    H     0.57326   0.74856   0.52372   0.00000  Uiso   1.00
H74    H     0.92728   0.84158   0.49756   0.00000  Uiso   1.00
H75    H     0.58538   0.98929   0.72013   0.00000  Uiso   1.00
H76    H     0.46698   0.68803   0.46227   0.00000  Uiso   1.00
H77    H     0.61458   0.01876   0.46578   0.00000  Uiso   1.00
H78    H     0.74004   0.02498   0.43339   0.00000  Uiso   1.00
H79    H     0.57790   0.09504   0.53895   0.00000  Uiso   1.00
H80    H     0.52176   0.95217   0.41667   0.00000  Uiso   1.00
H81    H     0.88547   0.00685   0.41067   0.00000  Uiso   1.00
H82    H     0.54357   0.15456   0.63324   0.00000  Uiso   1.00
H83    H     0.42518   0.85329   0.37538   0.00000  Uiso   1.00
O84    O     0.98979   0.92484   0.43465   0.00000  Uiso   1.00
O85    O     0.54123   0.11862   0.72666   0.00000  Uiso   1.00
O86    O     0.38590   0.72337   0.38835   0.00000  Uiso   1.00
N87    N     0.90022   0.87962   0.48154   0.00000  Uiso   1.00
N88    N     0.58058   0.01772   0.68964   0.00000  Uiso   1.00
N89    N     0.46987   0.73607   0.44857   0.00000  Uiso   1.00
N90    N     0.87772   0.96854   0.43479   0.00000  Uiso   1.00
N91    N     0.55808   0.10665   0.64288   0.00000  Uiso   1.00
N92    N     0.44738   0.82499   0.40182   0.00000  Uiso   1.00
C93    C     0.34778   0.13004   0.54401   0.00000  Uiso   1.00
C94    C     0.28493   0.10566   0.51536   0.00000  Uiso   1.00
C95    C     0.21956   0.13468   0.51733   0.00000  Uiso   1.00
C96    C     0.16899   0.10486   0.48833   0.00000  Uiso   1.00
C97    C     0.06921   0.07561   0.44841   0.00000  Uiso   1.00
C98    C     0.37302   0.06759   0.57272   0.00000  Uiso   1.00
C99    C     0.38171   0.06461   0.62290   0.00000  Uiso   1.00
C100   C     0.40531   0.00274   0.64219   0.00000  Uiso   1.00
C101   C     0.44233   0.91441   0.69131   0.00000  Uiso   1.00
C102   C     0.40352   0.14521   0.50628   0.00000  Uiso   1.00
C103   C     0.43787   0.20750   0.50060   0.00000  Uiso   1.00
C104   C     0.48716   0.21098   0.46396   0.00000  Uiso   1.00
C105   C     0.57154   0.24318   0.40992   0.00000  Uiso   1.00
C106   C     0.37424   0.02546   0.48903   0.00000  Uiso   1.00
C107   C     0.29930   0.04885   0.48550   0.00000  Uiso   1.00
C108   C     0.24883   0.01898   0.45649   0.00000  Uiso   1.00
C109   C     0.18339   0.04795   0.45841   0.00000  Uiso   1.00
C110   C     0.38739   0.01079   0.54286   0.00000  Uiso   1.00
C111   C     0.41098   0.94891   0.56207   0.00000  Uiso   1.00
C112   C     0.41970   0.94584   0.61227   0.00000  Uiso   1.00
C113   C     0.41789   0.08841   0.47641   0.00000  Uiso   1.00
C114   C     0.46714   0.09180   0.43977   0.00000  Uiso   1.00
C115   C     0.50156   0.15408   0.43404   0.00000  Uiso   1.00
H116   H     0.33659   0.17426   0.56727   0.00000  Uiso   1.00
H117   H     0.20846   0.17863   0.54045   0.00000  Uiso   1.00
H118   H     0.37059   0.10858   0.64601   0.00000  Uiso   1.00
H119   H     0.42674   0.25144   0.52372   0.00000  Uiso   1.00
H120   H     0.07272   0.15842   0.49756   0.00000  Uiso   1.00
H121   H     0.41462   0.01071   0.72013   0.00000  Uiso   1.00
H122   H     0.53302   0.31197   0.46227   0.00000  Uiso   1.00
H123   H     0.38542   0.98124   0.46578   0.00000  Uiso   1.00
H124   H     0.25996   0.97502   0.43339   0.00000  Uiso   1.00
H125   H     0.42210   0.90496   0.53895   0.00000  Uiso   1.00
H126   H     0.47824   0.04783   0.41667   0.00000  Uiso   1.00
H127   H     0.11453   0.99315   0.41067   0.00000  Uiso   1.00
H128   H     0.45643   0.84544   0.63324   0.00000  Uiso   1.00
H129   H     0.57482   0.14671   0.37538   0.00000  Uiso   1.00
O130   O     0.01021   0.07516   0.43465   0.00000  Uiso   1.00
O131   O     0.45877   0.88138   0.72666   0.00000  Uiso   1.00
O132   O     0.61410   0.27663   0.38835   0.00000  Uiso   1.00
N133   N     0.09978   0.12038   0.48154   0.00000  Uiso   1.00
N134   N     0.41942   0.98228   0.68964   0.00000  Uiso   1.00
N135   N     0.53013   0.26393   0.44857   0.00000  Uiso   1.00
N136   N     0.12228   0.03146   0.43479   0.00000  Uiso   1.00
N137   N     0.44192   0.89335   0.64288   0.00000  Uiso   1.00
N138   N     0.55262   0.17501   0.40182   0.00000  Uiso   1.00
C139   C     0.84778   0.63004   0.04401   0.00000  Uiso   1.00
C140   C     0.78493   0.60566   0.01536   0.00000  Uiso   1.00
C141   C     0.71956   0.63468   0.01733   0.00000  Uiso   1.00
C142   C     0.66899   0.60486   0.98833   0.00000  Uiso   1.00
C143   C     0.56921   0.57561   0.94841   0.00000  Uiso   1.00
C144   C     0.87302   0.56759   0.07272   0.00000  Uiso   1.00
C145   C     0.88171   0.56461   0.12290   0.00000  Uiso   1.00
C146   C     0.90531   0.50274   0.14219   0.00000  Uiso   1.00
C147   C     0.94233   0.41441   0.19131   0.00000  Uiso   1.00
C148   C     0.90352   0.64521   0.00628   0.00000  Uiso   1.00
C149   C     0.93787   0.70750   0.00060   0.00000  Uiso   1.00
C150   C     0.98716   0.71098   0.96396   0.00000  Uiso   1.00
C151   C     0.07154   0.74318   0.90992   0.00000  Uiso   1.00
C152   C     0.87424   0.52546   0.98903   0.00000  Uiso   1.00
C153   C     0.79930   0.54885   0.98550   0.00000  Uiso   1.00
C154   C     0.74883   0.51898   0.95649   0.00000  Uiso   1.00
C155   C     0.68339   0.54795   0.95841   0.00000  Uiso   1.00
C156   C     0.88739   0.51079   0.04286   0.00000  Uiso   1.00
C157   C     0.91098   0.44891   0.06207   0.00000  Uiso   1.00
C158   C     0.91970   0.44584   0.11227   0.00000  Uiso   1.00
C159   C     0.91789   0.58841   0.97641   0.00000  Uiso   1.00
C160   C     0.96714   0.59180   0.93977   0.00000  Uiso   1.00
C161   C     0.00156   0.65408   0.93404   0.00000  Uiso   1.00
H162   H     0.83659   0.67426   0.06727   0.00000  Uiso   1.00
H163   H     0.70846   0.67863   0.04045   0.00000  Uiso   1.00
H164   H     0.87059   0.60858   0.14601   0.00000  Uiso   1.00
H165   H     0.92674   0.75144   0.02372   0.00000  Uiso   1.00
H166   H     0.57272   0.65842   0.99756   0.00000  Uiso   1.00
H167   H     0.91462   0.51071   0.22013   0.00000  Uiso   1.00
H168   H     0.03302   0.81197   0.96227   0.00000  Uiso   1.00
H169   H     0.88542   0.48124   0.96578   0.00000  Uiso   1.00
H170   H     0.75996   0.47502   0.93339   0.00000  Uiso   1.00
H171   H     0.92210   0.40496   0.03895   0.00000  Uiso   1.00
H172   H     0.97824   0.54783   0.91667   0.00000  Uiso   1.00
H173   H     0.61453   0.49315   0.91067   0.00000  Uiso   1.00
H174   H     0.95643   0.34544   0.13324   0.00000  Uiso   1.00
H175   H     0.07482   0.64671   0.87538   0.00000  Uiso   1.00
O176   O     0.51021   0.57516   0.93465   0.00000  Uiso   1.00
O177   O     0.95877   0.38138   0.22666   0.00000  Uiso   1.00
O178   O     0.11410   0.77663   0.88835   0.00000  Uiso   1.00
N179   N     0.59978   0.62038   0.98154   0.00000  Uiso   1.00
N180   N     0.91942   0.48228   0.18964   0.00000  Uiso   1.00
N181   N     0.03013   0.76393   0.94857   0.00000  Uiso   1.00
N182   N     0.62228   0.53146   0.93479   0.00000  Uiso   1.00
N183   N     0.94192   0.39335   0.14288   0.00000  Uiso   1.00
N184   N     0.05262   0.67501   0.90182   0.00000  Uiso   1.00
C185   C     0.63004   0.65222   0.29401   0.00000  Uiso   1.00
C186   C     0.60566   0.71507   0.26536   0.00000  Uiso   1.00
C187   C     0.63468   0.78044   0.26733   0.00000  Uiso   1.00
C188   C     0.60486   0.83101   0.23833   0.00000  Uiso   1.00
C189   C     0.57561   0.93079   0.19841   0.00000  Uiso   1.00
C190   C     0.56759   0.62698   0.32272   0.00000  Uiso   1.00
C191   C     0.56461   0.61829   0.37290   0.00000  Uiso   1.00
C192   C     0.50274   0.59469   0.39219   0.00000  Uiso   1.00
C193   C     0.41441   0.55767   0.44131   0.00000  Uiso   1.00
C194   C     0.64521   0.59648   0.25628   0.00000  Uiso   1.00
C195   C     0.70750   0.56213   0.25060   0.00000  Uiso   1.00
C196   C     0.71098   0.51284   0.21396   0.00000  Uiso   1.00
C197   C     0.74318   0.42846   0.15992   0.00000  Uiso   1.00
C198   C     0.52546   0.62576   0.23903   0.00000  Uiso   1.00
C199   C     0.54885   0.70070   0.23550   0.00000  Uiso   1.00
C200   C     0.51898   0.75117   0.20649   0.00000  Uiso   1.00
C201   C     0.54795   0.81661   0.20841   0.00000  Uiso   1.00
C202   C     0.51079   0.61261   0.29286   0.00000  Uiso   1.00
C203   C     0.44891   0.58902   0.31207   0.00000  Uiso   1.00
C204   C     0.44584   0.58030   0.36227   0.00000  Uiso   1.00
C205   C     0.58841   0.58211   0.22641   0.00000  Uiso   1.00
C206   C     0.59180   0.53286   0.18977   0.00000  Uiso   1.00
C207   C     0.65408   0.49844   0.18404   0.00000  Uiso   1.00
H208   H     0.67426   0.66341   0.31727   0.00000  Uiso   1.00
H209   H     0.67863   0.79154   0.29045   0.00000  Uiso   1.00
H210   H     0.60858   0.62941   0.39601   0.00000  Uiso   1.00
H211   H     0.75144   0.57326   0.27372   0.00000  Uiso   1.00
H212   H     0.65842   0.92728   0.24756   0.00000  Uiso   1.00
H213   H     0.51071   0.58538   0.47013   0.00000  Uiso   1.00
H214   H     0.81197   0.46698   0.21227   0.00000  Uiso   1.00
H215   H     0.48124   0.61458   0.21578   0.00000  Uiso   1.00
H216   H     0.47502   0.74004   0.18339   0.00000  Uiso   1.00
H217   H     0.40496   0.57790   0.28895   0.00000  Uiso   1.00
H218   H     0.54783   0.52176   0.16667   0.00000  Uiso   1.00
H219   H     0.49315   0.88547   0.16067   0.00000  Uiso   1.00
H220   H     0.34544   0.54357   0.38324   0.00000  Uiso   1.00
H221   H     0.64671   0.42518   0.12538   0.00000  Uiso   1.00
O222   O     0.57516   0.98979   0.18465   0.00000  Uiso   1.00
O223   O     0.38138   0.54123   0.47666   0.00000  Uiso   1.00
O224   O     0.77663   0.38590   0.13835   0.00000  Uiso   1.00
N225   N     0.62038   0.90022   0.23154   0.00000  Uiso   1.00
N226   N     0.48228   0.58058   0.43964   0.00000  Uiso   1.00
N227   N     0.76393   0.46987   0.19857   0.00000  Uiso   1.00
N228   N     0.53146   0.87772   0.18479   0.00000  Uiso   1.00
N229   N     0.39335   0.55808   0.39288   0.00000  Uiso   1.00
N230   N     0.67501   0.44738   0.15182   0.00000  Uiso   1.00
C231   C     0.13004   0.15222   0.79401   0.00000  Uiso   1.00
C232   C     0.10566   0.21507   0.76536   0.00000  Uiso   1.00
C233   C     0.13468   0.28044   0.76733   0.00000  Uiso   1.00
C234   C     0.10486   0.33101   0.73833   0.00000  Uiso   1.00
C235   C     0.07561   0.43079   0.69841   0.00000  Uiso   1.00
C236   C     0.06759   0.12698   0.82272   0.00000  Uiso   1.00
C237   C     0.06461   0.11829   0.87290   0.00000  Uiso   1.00
C238   C     0.00274   0.09469   0.89219   0.00000  Uiso   1.00
C239   C     0.91441   0.05767   0.94131   0.00000  Uiso   1.00
C240   C     0.14521   0.09648   0.75628   0.00000  Uiso   1.00
C241   C     0.20750   0.06213   0.75060   0.00000  Uiso   1.00
C242   C     0.21098   0.01284   0.71396   0.00000  Uiso   1.00
C243   C     0.24318   0.92846   0.65992   0.00000  Uiso   1.00
C244   C     0.02546   0.12576   0.73903   0.00000  Uiso   1.00
C245   C     0.04885   0.20070   0.73550   0.00000  Uiso   1.00
C246   C     0.01898   0.25117   0.70649   0.00000  Uiso   1.00
C247   C     0.04795   0.31661   0.70841   0.00000  Uiso   1.00
C248   C     0.01079   0.11261   0.79286   0.00000  Uiso   1.00
C249   C     0.94891   0.08902   0.81207   0.00000  Uiso   1.00
C250   C     0.94584   0.08030   0.86227   0.00000  Uiso   1.00
C251   C     0.08841   0.08211   0.72641   0.00000  Uiso   1.00
C252   C     0.09180   0.03286   0.68977   0.00000  Uiso   1.00
C253   C     0.15408   0.99844   0.68404   0.00000  Uiso   1.00
H254   H     0.17426   0.16341   0.81727   0.00000  Uiso   1.00
H255   H     0.17863   0.29154   0.79045   0.00000  Uiso   1.00
H256   H     0.10858   0.12941   0.89601   0.00000  Uiso   1.00
H257   H     0.25144   0.07326   0.77372   0.00000  Uiso   1.00
H258   H     0.15842   0.42728   0.74756   0.00000  Uiso   1.00
H259   H     0.01071   0.08538   0.97013   0.00000  Uiso   1.00
H260   H     0.31197   0.96698   0.71227   0.00000  Uiso   1.00
H261   H     0.98124   0.11458   0.71578   0.00000  Uiso   1.00
H262   H     0.97502   0.24004   0.68339   0.00000  Uiso   1.00
H263   H     0.90496   0.07790   0.78895   0.00000  Uiso   1.00
H264   H     0.04783   0.02176   0.66667   0.00000  Uiso   1.00
H265   H     0.99315   0.38547   0.66067   0.00000  Uiso   1.00
H266   H     0.84544   0.04357   0.88324   0.00000  Uiso   1.00
H267   H     0.14671   0.92518   0.62538   0.00000  Uiso   1.00
O268   O     0.07516   0.48979   0.68465   0.00000  Uiso   1.00
O269   O     0.88138   0.04123   0.97666   0.00000  Uiso   1.00
O270   O     0.27663   0.88590   0.63835   0.00000  Uiso   1.00
N271   N     0.12038   0.40022   0.73154   0.00000  Uiso   1.00
N272   N     0.98228   0.08058   0.93964   0.00000  Uiso   1.00
N273   N     0.26393   0.96987   0.69857   0.00000  Uiso   1.00
N274   N     0.03146   0.37772   0.68479   0.00000  Uiso   1.00
N275   N     0.89335   0.05808   0.89288   0.00000  Uiso   1.00
N276   N     0.17501   0.94738   0.65182   0.00000  Uiso   1.00
C277   C     0.86996   0.84778   0.79401   0.00000  Uiso   1.00
C278   C     0.89434   0.78493   0.76536   0.00000  Uiso   1.00
C279   C     0.86532   0.71956   0.76733   0.00000  Uiso   1.00
C280   C     0.89514   0.66899   0.73833   0.00000  Uiso   1.00
C281   C     0.92439   0.56921   0.69841   0.00000  Uiso   1.00
C282   C     0.93241   0.87302   0.82272   0.00000  Uiso   1.00
C283   C     0.93539   0.88171   0.87290   0.00000  Uiso   1.00
C284   C     0.99726   0.90531   0.89219   0.00000  Uiso   1.00
C285   C     0.08559   0.94233   0.94131   0.00000  Uiso   1.00
C286   C     0.85479   0.90352   0.75628   0.00000  Uiso   1.00
C287   C     0.79250   0.93787   0.75060   0.00000  Uiso   1.00
C288   C     0.78902   0.98716   0.71396   0.00000  Uiso   1.00
C289   C     0.75682   0.07154   0.65992   0.00000  Uiso   1.00
C290   C     0.97454   0.87424   0.73903   0.00000  Uiso   1.00
C291   C     0.95115   0.79930   0.73550   0.00000  Uiso   1.00
C292   C     0.98102   0.74883   0.70649   0.00000  Uiso   1.00
C293   C     0.95205   0.68339   0.70841   0.00000  Uiso   1.00
C294   C     0.98921   0.88739   0.79286   0.00000  Uiso   1.00
C295   C     0.05109   0.91098   0.81207   0.00000  Uiso   1.00
C296   C     0.05416   0.91970   0.86227   0.00000  Uiso   1.00
C297   C     0.91159   0.91789   0.72641   0.00000  Uiso   1.00
C298   C     0.90820   0.96714   0.68977   0.00000  Uiso   1.00
C299   C     0.84592   0.00156   0.68404   0.00000  Uiso   1.00
H300   H     0.82574   0.83659   0.81727   0.00000  Uiso   1.00
H301   H     0.82137   0.70846   0.79045   0.00000  Uiso   1.00
H302   H     0.89142   0.87059   0.89601   0.00000  Uiso   1.00
H303   H     0.74856   0.92674   0.77372   0.00000  Uiso   1.00
H304   H     0.84158   0.57272   0.74756   0.00000  Uiso   1.00
H305   H     0.98929   0.91462   0.97013   0.00000  Uiso   1.00
H306   H     0.68803   0.03302   0.71227   0.00000  Uiso   1.00
H307   H     0.01876   0.88542   0.71578   0.00000  Uiso   1.00
H308   H     0.02498   0.75996   0.68339   0.00000  Uiso   1.00
H309   H     0.09504   0.92210   0.78895   0.00000  Uiso   1.00
H310   H     0.95217   0.97824   0.66667   0.00000  Uiso   1.00
H311   H     0.00685   0.61453   0.66067   0.00000  Uiso   1.00
H312   H     0.15456   0.95643   0.88324   0.00000  Uiso   1.00
H313   H     0.85329   0.07482   0.62538   0.00000  Uiso   1.00
O314   O     0.92484   0.51021   0.68465   0.00000  Uiso   1.00
O315   O     0.11862   0.95877   0.97666   0.00000  Uiso   1.00
O316   O     0.72337   0.11410   0.63835   0.00000  Uiso   1.00
N317   N     0.87962   0.59978   0.73154   0.00000  Uiso   1.00
N318   N     0.01772   0.91942   0.93964   0.00000  Uiso   1.00
N319   N     0.73607   0.03013   0.69857   0.00000  Uiso   1.00
N320   N     0.96854   0.62228   0.68479   0.00000  Uiso   1.00
N321   N     0.10665   0.94192   0.89288   0.00000  Uiso   1.00
N322   N     0.82499   0.05262   0.65182   0.00000  Uiso   1.00
C323   C     0.36996   0.34778   0.29401   0.00000  Uiso   1.00
C324   C     0.39434   0.28493   0.26536   0.00000  Uiso   1.00
C325   C     0.36532   0.21956   0.26733   0.00000  Uiso   1.00
C326   C     0.39514   0.16899   0.23833   0.00000  Uiso   1.00
C327   C     0.42439   0.06921   0.19841   0.00000  Uiso   1.00
C328   C     0.43241   0.37302   0.32272   0.00000  Uiso   1.00
C329   C     0.43539   0.38171   0.37290   0.00000  Uiso   1.00
C330   C     0.49726   0.40531   0.39219   0.00000  Uiso   1.00
C331   C     0.58559   0.44233   0.44131   0.00000  Uiso   1.00
C332   C     0.35479   0.40352   0.25628   0.00000  Uiso   1.00
C333   C     0.29250   0.43787   0.25060   0.00000  Uiso   1.00
C334   C     0.28902   0.48716   0.21396   0.00000  Uiso   1.00
C335   C     0.25682   0.57154   0.15992   0.00000  Uiso   1.00
C336   C     0.47454   0.37424   0.23903   0.00000  Uiso   1.00
C337   C     0.45115   0.29930   0.23550   0.00000  Uiso   1.00
C338   C     0.48102   0.24883   0.20649   0.00000  Uiso   1.00
C339   C     0.45205   0.18339   0.20841   0.00000  Uiso   1.00
C340   C     0.48921   0.38739   0.29286   0.00000  Uiso   1.00
C341   C     0.55109   0.41098   0.31207   0.00000  Uiso   1.00
C342   C     0.55416   0.41970   0.36227   0.00000  Uiso   1.00
C343   C     0.41159   0.41789   0.22641   0.00000  Uiso   1.00
C344   C     0.40820   0.46714   0.18977   0.00000  Uiso   1.00
C345   C     0.34592   0.50156   0.18404   0.00000  Uiso   1.00
H346   H     0.32574   0.33659   0.31727   0.00000  Uiso   1.00
H347   H     0.32137   0.20846   0.29045   0.00000  Uiso   1.00
H348   H     0.39142   0.37059   0.39601   0.00000  Uiso   1.00
H349   H     0.24856   0.42674   0.27372   0.00000  Uiso   1.00
H350   H     0.34158   0.07272   0.24756   0.00000  Uiso   1.00
H351   H     0.48929   0.41462   0.47013   0.00000  Uiso   1.00
H352   H     0.18803   0.53302   0.21227   0.00000  Uiso   1.00
H353   H     0.51876   0.38542   0.21578   0.00000  Uiso   1.00
H354   H     0.52498   0.25996   0.18339   0.00000  Uiso   1.00
H355   H     0.59504   0.42210   0.28895   0.00000  Uiso   1.00
H356   H     0.45217   0.47824   0.16667   0.00000  Uiso   1.00
H357   H     0.50685   0.11453   0.16067   0.00000  Uiso   1.00
H358   H     0.65456   0.45643   0.38324   0.00000  Uiso   1.00
H359   H     0.35329   0.57482   0.12538   0.00000  Uiso   1.00
O360   O     0.42484   0.01021   0.18465   0.00000  Uiso   1.00
O361   O     0.61862   0.45877   0.47666   0.00000  Uiso   1.00
O362   O     0.22337   0.61410   0.13835   0.00000  Uiso   1.00
N363   N     0.37962   0.09978   0.23154   0.00000  Uiso   1.00
N364   N     0.51772   0.41942   0.43964   0.00000  Uiso   1.00
N365   N     0.23607   0.53013   0.19857   0.00000  Uiso   1.00
N366   N     0.46854   0.12228   0.18479   0.00000  Uiso   1.00
N367   N     0.60665   0.44192   0.39288   0.00000  Uiso   1.00
N368   N     0.32499   0.55262   0.15182   0.00000  Uiso   1.00
C369   C     0.84778   0.13004   0.20599   0.00000  Uiso   1.00
C370   C     0.78493   0.10566   0.23464   0.00000  Uiso   1.00
C371   C     0.71956   0.13468   0.23267   0.00000  Uiso   1.00
C372   C     0.66899   0.10486   0.26167   0.00000  Uiso   1.00
C373   C     0.56921   0.07561   0.30159   0.00000  Uiso   1.00
C374   C     0.87302   0.06759   0.17728   0.00000  Uiso   1.00
C375   C     0.88171   0.06461   0.12710   0.00000  Uiso   1.00
C376   C     0.90531   0.00274   0.10781   0.00000  Uiso   1.00
C377   C     0.94233   0.91441   0.05869   0.00000  Uiso   1.00
C378   C     0.90352   0.14521   0.24372   0.00000  Uiso   1.00
C379   C     0.93787   0.20750   0.24940   0.00000  Uiso   1.00
C380   C     0.98716   0.21098   0.28604   0.00000  Uiso   1.00
C381   C     0.07154   0.24318   0.34008   0.00000  Uiso   1.00
C382   C     0.87424   0.02546   0.26097   0.00000  Uiso   1.00
C383   C     0.79930   0.04885   0.26450   0.00000  Uiso   1.00
C384   C     0.74883   0.01898   0.29351   0.00000  Uiso   1.00
C385   C     0.68339   0.04795   0.29159   0.00000  Uiso   1.00
C386   C     0.88739   0.01079   0.20714   0.00000  Uiso   1.00
C387   C     0.91098   0.94891   0.18793   0.00000  Uiso   1.00
C388   C     0.91970   0.94584   0.13773   0.00000  Uiso   1.00
C389   C     0.91789   0.08841   0.27359   0.00000  Uiso   1.00
C390   C     0.96714   0.09180   0.31023   0.00000  Uiso   1.00
C391   C     0.00156   0.15408   0.31596   0.00000  Uiso   1.00
H392   H     0.83659   0.17426   0.18273   0.00000  Uiso   1.00
H393   H     0.70846   0.17863   0.20955   0.00000  Uiso   1.00
H394   H     0.87059   0.10858   0.10399   0.00000  Uiso   1.00
H395   H     0.92674   0.25144   0.22628   0.00000  Uiso   1.00
H396   H     0.57272   0.15842   0.25244   0.00000  Uiso   1.00
H397   H     0.91462   0.01071   0.02987   0.00000  Uiso   1.00
H398   H     0.03302   0.31197   0.28773   0.00000  Uiso   1.00
H399   H     0.88542   0.98124   0.28422   0.00000  Uiso   1.00
H400   H     0.75996   0.97502   0.31661   0.00000  Uiso   1.00
H401   H     0.92210   0.90496   0.21105   0.00000  Uiso   1.00
H402   H     0.97824   0.04783   0.33333   0.00000  Uiso   1.00
H403   H     0.61453   0.99315   0.33933   0.00000  Uiso   1.00
H404   H     0.95643   0.84544   0.11676   0.00000  Uiso   1.00
H405   H     0.07482   0.14671   0.37462   0.00000  Uiso   1.00
O406   O     0.51021   0.07516   0.31535   0.00000  Uiso   1.00
O407   O     0.95877   0.88138   0.02334   0.00000  Uiso   1.00
O408   O     0.11410   0.27663   0.36165   0.00000  Uiso   1.00
N409   N     0.59978   0.12038   0.26846   0.00000  Uiso   1.00
N410   N     0.91942   0.98228   0.06036   0.00000  Uiso   1.00
N411   N     0.03013   0.26393   0.30143   0.00000  Uiso   1.00
N412   N     0.62228   0.03146   0.31521   0.00000  Uiso   1.00
N413   N     0.94192   0.89335   0.10712   0.00000  Uiso   1.00
N414   N     0.05262   0.17501   0.34818   0.00000  Uiso   1.00
C415   C     0.34778   0.63004   0.70599   0.00000  Uiso   1.00
C416   C     0.28493   0.60566   0.73464   0.00000  Uiso   1.00
C417   C     0.21956   0.63468   0.73267   0.00000  Uiso   1.00
C418   C     0.16899   0.60486   0.76167   0.00000  Uiso   1.00
C419   C     0.06921   0.57561   0.80159   0.00000  Uiso   1.00
C420   C     0.37302   0.56759   0.67728   0.00000  Uiso   1.00
C421   C     0.38171   0.56461   0.62710   0.00000  Uiso   1.00
C422   C     0.40531   0.50274   0.60781   0.00000  Uiso   1.00
C423   C     0.44233   0.41441   0.55869   0.00000  Uiso   1.00
C424   C     0.40352   0.64521   0.74372   0.00000  Uiso   1.00
C425   C     0.43787   0.70750   0.74940   0.00000  Uiso   1.00
C426   C     0.48716   0.71098   0.78604   0.00000  Uiso   1.00
C427   C     0.57154   0.74318   0.84008   0.00000  Uiso   1.00
C428   C     0.37424   0.52546   0.76097   0.00000  Uiso   1.00
C429   C     0.29930   0.54885   0.76450   0.00000  Uiso   1.00
C430   C     0.24883   0.51898   0.79351   0.00000  Uiso   1.00
C431   C     0.18339   0.54795   0.79159   0.00000  Uiso   1.00
C432   C     0.38739   0.51079   0.70714   0.00000  Uiso   1.00
C433   C     0.41098   0.44891   0.68793   0.00000  Uiso   1.00
C434   C     0.41970   0.44584   0.63773   0.00000  Uiso   1.00
C435   C     0.41789   0.58841   0.77359   0.00000  Uiso   1.00
C436   C     0.46714   0.59180   0.81023   0.00000  Uiso   1.00
C437   C     0.50156   0.65408   0.81596   0.00000  Uiso   1.00
H438   H     0.33659   0.67426   0.68273   0.00000  Uiso   1.00
H439   H     0.20846   0.67863   0.70955   0.00000  Uiso   1.00
H440   H     0.37059   0.60858   0.60399   0.00000  Uiso   1.00
H441   H     0.42674   0.75144   0.72628   0.00000  Uiso   1.00
H442   H     0.07272   0.65842   0.75244   0.00000  Uiso   1.00
H443   H     0.41462   0.51071   0.52987   0.00000  Uiso   1.00
H444   H     0.53302   0.81197   0.78773   0.00000  Uiso   1.00
H445   H     0.38542   0.48124   0.78422   0.00000  Uiso   1.00
H446   H     0.25996   0.47502   0.81661   0.00000  Uiso   1.00
H447   H     0.42210   0.40496   0.71105   0.00000  Uiso   1.00
H448   H     0.47824   0.54783   0.83333   0.00000  Uiso   1.00
H449   H     0.11453   0.49315   0.83933   0.00000  Uiso   1.00
H450   H     0.45643   0.34544   0.61676   0.00000  Uiso   1.00
H451   H     0.57482   0.64671   0.87462   0.00000  Uiso   1.00
O452   O     0.01021   0.57516   0.81535   0.00000  Uiso   1.00
O453   O     0.45877   0.38138   0.52334   0.00000  Uiso   1.00
O454   O     0.61410   0.77663   0.86165   0.00000  Uiso   1.00
N455   N     0.09978   0.62038   0.76846   0.00000  Uiso   1.00
N456   N     0.41942   0.48228   0.56036   0.00000  Uiso   1.00
N457   N     0.53013   0.76393   0.80143   0.00000  Uiso   1.00
N458   N     0.12228   0.53146   0.81521   0.00000  Uiso   1.00
N459   N     0.44192   0.39335   0.60712   0.00000  Uiso   1.00
N460   N     0.55262   0.67501   0.84818   0.00000  Uiso   1.00
C461   C     0.65222   0.36996   0.70599   0.00000  Uiso   1.00
C462   C     0.71507   0.39434   0.73464   0.00000  Uiso   1.00
C463   C     0.78044   0.36532   0.73267   0.00000  Uiso   1.00
C464   C     0.83101   0.39514   0.76167   0.00000  Uiso   1.00
C465   C     0.93079   0.42439   0.80159   0.00000  Uiso   1.00
C466   C     0.62698   0.43241   0.67728   0.00000  Uiso   1.00
C467   C     0.61829   0.43539   0.62710   0.00000  Uiso   1.00
C468   C     0.59469   0.49726   0.60781   0.00000  Uiso   1.00
C469   C     0.55767   0.58559   0.55869   0.00000  Uiso   1.00
C470   C     0.59648   0.35479   0.74372   0.00000  Uiso   1.00
C471   C     0.56213   0.29250   0.74940   0.00000  Uiso   1.00
C472   C     0.51284   0.28902   0.78604   0.00000  Uiso   1.00
C473   C     0.42846   0.25682   0.84008   0.00000  Uiso   1.00
C474   C     0.62576   0.47454   0.76097   0.00000  Uiso   1.00
C475   C     0.70070   0.45115   0.76450   0.00000  Uiso   1.00
C476   C     0.75117   0.48102   0.79351   0.00000  Uiso   1.00
C477   C     0.81661   0.45205   0.79159   0.00000  Uiso   1.00
C478   C     0.61261   0.48921   0.70714   0.00000  Uiso   1.00
C479   C     0.58902   0.55109   0.68793   0.00000  Uiso   1.00
C480   C     0.58030   0.55416   0.63773   0.00000  Uiso   1.00
C481   C     0.58211   0.41159   0.77359   0.00000  Uiso   1.00
C482   C     0.53286   0.40820   0.81023   0.00000  Uiso   1.00
C483   C     0.49844   0.34592   0.81596   0.00000  Uiso   1.00
H484   H     0.66341   0.32574   0.68273   0.00000  Uiso   1.00
H485   H     0.79154   0.32137   0.70955   0.00000  Uiso   1.00
H486   H     0.62941   0.39142   0.60399   0.00000  Uiso   1.00
H487   H     0.57326   0.24856   0.72628   0.00000  Uiso   1.00
H488   H     0.92728   0.34158   0.75244   0.00000  Uiso   1.00
H489   H     0.58538   0.48929   0.52987   0.00000  Uiso   1.00
H490   H     0.46698   0.18803   0.78773   0.00000  Uiso   1.00
H491   H     0.61458   0.51876   0.78422   0.00000  Uiso   1.00
H492   H     0.74004   0.52498   0.81661   0.00000  Uiso   1.00
H493   H     0.57790   0.59504   0.71105   0.00000  Uiso   1.00
H494   H     0.52176   0.45217   0.83333   0.00000  Uiso   1.00
H495   H     0.88547   0.50685   0.83933   0.00000  Uiso   1.00
H496   H     0.54357   0.65456   0.61676   0.00000  Uiso   1.00
H497   H     0.42518   0.35329   0.87462   0.00000  Uiso   1.00
O498   O     0.98979   0.42484   0.81535   0.00000  Uiso   1.00
O499   O     0.54123   0.61862   0.52334   0.00000  Uiso   1.00
O500   O     0.38590   0.22337   0.86165   0.00000  Uiso   1.00
N501   N     0.90022   0.37962   0.76846   0.00000  Uiso   1.00
N502   N     0.58058   0.51772   0.56036   0.00000  Uiso   1.00
N503   N     0.46987   0.23607   0.80143   0.00000  Uiso   1.00
N504   N     0.87772   0.46854   0.81521   0.00000  Uiso   1.00
N505   N     0.55808   0.60665   0.60712   0.00000  Uiso   1.00
N506   N     0.44738   0.32499   0.84818   0.00000  Uiso   1.00
C507   C     0.15222   0.86996   0.20599   0.00000  Uiso   1.00
C508   C     0.21507   0.89434   0.23464   0.00000  Uiso   1.00
C509   C     0.28044   0.86532   0.23267   0.00000  Uiso   1.00
C510   C     0.33101   0.89514   0.26167   0.00000  Uiso   1.00
C511   C     0.43079   0.92439   0.30159   0.00000  Uiso   1.00
C512   C     0.12698   0.93241   0.17728   0.00000  Uiso   1.00
C513   C     0.11829   0.93539   0.12710   0.00000  Uiso   1.00
C514   C     0.09469   0.99726   0.10781   0.00000  Uiso   1.00
C515   C     0.05767   0.08559   0.05869   0.00000  Uiso   1.00
C516   C     0.09648   0.85479   0.24372   0.00000  Uiso   1.00
C517   C     0.06213   0.79250   0.24940   0.00000  Uiso   1.00
C518   C     0.01284   0.78902   0.28604   0.00000  Uiso   1.00
C519   C     0.92846   0.75682   0.34008   0.00000  Uiso   1.00
C520   C     0.12576   0.97454   0.26097   0.00000  Uiso   1.00
C521   C     0.20070   0.95115   0.26450   0.00000  Uiso   1.00
C522   C     0.25117   0.98102   0.29351   0.00000  Uiso   1.00
C523   C     0.31661   0.95205   0.29159   0.00000  Uiso   1.00
C524   C     0.11261   0.98921   0.20714   0.00000  Uiso   1.00
C525   C     0.08902   0.05109   0.18793   0.00000  Uiso   1.00
C526   C     0.08030   0.05416   0.13773   0.00000  Uiso   1.00
C527   C     0.08211   0.91159   0.27359   0.00000  Uiso   1.00
C528   C     0.03286   0.90820   0.31023   0.00000  Uiso   1.00
C529   C     0.99844   0.84592   0.31596   0.00000  Uiso   1.00
H530   H     0.16341   0.82574   0.18273   0.00000  Uiso   1.00
H531   H     0.29154   0.82137   0.20955   0.00000  Uiso   1.00
H532   H     0.12941   0.89142   0.10399   0.00000  Uiso   1.00
H533   H     0.07326   0.74856   0.22628   0.00000  Uiso   1.00
H534   H     0.42728   0.84158   0.25244   0.00000  Uiso   1.00
H535   H     0.08538   0.98929   0.02987   0.00000  Uiso   1.00
H536   H     0.96698   0.68803   0.28773   0.00000  Uiso   1.00
H537   H     0.11458   0.01876   0.28422   0.00000  Uiso   1.00
H538   H     0.24004   0.02498   0.31661   0.00000  Uiso   1.00
H539   H     0.07790   0.09504   0.21105   0.00000  Uiso   1.00
H540   H     0.02176   0.95217   0.33333   0.00000  Uiso   1.00
H541   H     0.38547   0.00685   0.33933   0.00000  Uiso   1.00
H542   H     0.04357   0.15456   0.11676   0.00000  Uiso   1.00
H543   H     0.92518   0.85329   0.37462   0.00000  Uiso   1.00
O544   O     0.48979   0.92484   0.31535   0.00000  Uiso   1.00
O545   O     0.04123   0.11862   0.02334   0.00000  Uiso   1.00
O546   O     0.88590   0.72337   0.36165   0.00000  Uiso   1.00
N547   N     0.40022   0.87962   0.26846   0.00000  Uiso   1.00
N548   N     0.08058   0.01772   0.06036   0.00000  Uiso   1.00
N549   N     0.96987   0.73607   0.30143   0.00000  Uiso   1.00
N550   N     0.37772   0.96854   0.31521   0.00000  Uiso   1.00
N551   N     0.05808   0.10665   0.10712   0.00000  Uiso   1.00
N552   N     0.94738   0.82499   0.34818   0.00000  Uiso   1.00
C553   C     0.36996   0.84778   0.95599   0.00000  Uiso   1.00
C554   C     0.39434   0.78493   0.98464   0.00000  Uiso   1.00
C555   C     0.36532   0.71956   0.98267   0.00000  Uiso   1.00
C556   C     0.39514   0.66899   0.01167   0.00000  Uiso   1.00
C557   C     0.42439   0.56921   0.05159   0.00000  Uiso   1.00
C558   C     0.43241   0.87302   0.92728   0.00000  Uiso   1.00
C559   C     0.43539   0.88171   0.87710   0.00000  Uiso   1.00
C560   C     0.49726   0.90531   0.85781   0.00000  Uiso   1.00
C561   C     0.58559   0.94233   0.80869   0.00000  Uiso   1.00
C562   C     0.35479   0.90352   0.99372   0.00000  Uiso   1.00
C563   C     0.29250   0.93787   0.99940   0.00000  Uiso   1.00
C564   C     0.28902   0.98716   0.03604   0.00000  Uiso   1.00
C565   C     0.25682   0.07154   0.09008   0.00000  Uiso   1.00
C566   C     0.47454   0.87424   0.01097   0.00000  Uiso   1.00
C567   C     0.45115   0.79930   0.01450   0.00000  Uiso   1.00
C568   C     0.48102   0.74883   0.04351   0.00000  Uiso   1.00
C569   C     0.45205   0.68339   0.04159   0.00000  Uiso   1.00
C570   C     0.48921   0.88739   0.95714   0.00000  Uiso   1.00
C571   C     0.55109   0.91098   0.93793   0.00000  Uiso   1.00
C572   C     0.55416   0.91970   0.88773   0.00000  Uiso   1.00
C573   C     0.41159   0.91789   0.02359   0.00000  Uiso   1.00
C574   C     0.40820   0.96714   0.06023   0.00000  Uiso   1.00
C575   C     0.34592   0.00156   0.06596   0.00000  Uiso   1.00
H576   H     0.32574   0.83659   0.93273   0.00000  Uiso   1.00
H577   H     0.32137   0.70846   0.95955   0.00000  Uiso   1.00
H578   H     0.39142   0.87059   0.85399   0.00000  Uiso   1.00
H579   H     0.24856   0.92674   0.97628   0.00000  Uiso   1.00
H580   H     0.34158   0.57272   0.00244   0.00000  Uiso   1.00
H581   H     0.48929   0.91462   0.77987   0.00000  Uiso   1.00
H582   H     0.18803   0.03302   0.03773   0.00000  Uiso   1.00
H583   H     0.51876   0.88542   0.03422   0.00000  Uiso   1.00
H584   H     0.52498   0.75996   0.06661   0.00000  Uiso   1.00
H585   H     0.59504   0.92210   0.96105   0.00000  Uiso   1.00
H586   H     0.45217   0.97824   0.08333   0.00000  Uiso   1.00
H587   H     0.50685   0.61453   0.08933   0.00000  Uiso   1.00
H588   H     0.65456   0.95643   0.86676   0.00000  Uiso   1.00
H589   H     0.35329   0.07482   0.12462   0.00000  Uiso   1.00
O590   O     0.42484   0.51021   0.06535   0.00000  Uiso   1.00
O591   O     0.61862   0.95877   0.77334   0.00000  Uiso   1.00
O592   O     0.22337   0.11410   0.11165   0.00000  Uiso   1.00
N593   N     0.37962   0.59978   0.01846   0.00000  Uiso   1.00
N594   N     0.51772   0.91942   0.81036   0.00000  Uiso   1.00
N595   N     0.23607   0.03013   0.05143   0.00000  Uiso   1.00
N596   N     0.46854   0.62228   0.06521   0.00000  Uiso   1.00
N597   N     0.60665   0.94192   0.85712   0.00000  Uiso   1.00
N598   N     0.32499   0.05262   0.09818   0.00000  Uiso   1.00
C599   C     0.86996   0.34778   0.45599   0.00000  Uiso   1.00
C600   C     0.89434   0.28493   0.48464   0.00000  Uiso   1.00
C601   C     0.86532   0.21956   0.48267   0.00000  Uiso   1.00
C602   C     0.89514   0.16899   0.51167   0.00000  Uiso   1.00
C603   C     0.92439   0.06921   0.55159   0.00000  Uiso   1.00
C604   C     0.93241   0.37302   0.42728   0.00000  Uiso   1.00
C605   C     0.93539   0.38171   0.37710   0.00000  Uiso   1.00
C606   C     0.99726   0.40531   0.35781   0.00000  Uiso   1.00
C607   C     0.08559   0.44233   0.30869   0.00000  Uiso   1.00
C608   C     0.85479   0.40352   0.49372   0.00000  Uiso   1.00
C609   C     0.79250   0.43787   0.49940   0.00000  Uiso   1.00
C610   C     0.78902   0.48716   0.53604   0.00000  Uiso   1.00
C611   C     0.75682   0.57154   0.59008   0.00000  Uiso   1.00
C612   C     0.97454   0.37424   0.51097   0.00000  Uiso   1.00
C613   C     0.95115   0.29930   0.51450   0.00000  Uiso   1.00
C614   C     0.98102   0.24883   0.54351   0.00000  Uiso   1.00
C615   C     0.95205   0.18339   0.54159   0.00000  Uiso   1.00
C616   C     0.98921   0.38739   0.45714   0.00000  Uiso   1.00
C617   C     0.05109   0.41098   0.43793   0.00000  Uiso   1.00
C618   C     0.05416   0.41970   0.38773   0.00000  Uiso   1.00
C619   C     0.91159   0.41789   0.52359   0.00000  Uiso   1.00
C620   C     0.90820   0.46714   0.56023   0.00000  Uiso   1.00
C621   C     0.84592   0.50156   0.56596   0.00000  Uiso   1.00
H622   H     0.82574   0.33659   0.43273   0.00000  Uiso   1.00
H623   H     0.82137   0.20846   0.45955   0.00000  Uiso   1.00
H624   H     0.89142   0.37059   0.35399   0.00000  Uiso   1.00
H625   H     0.74856   0.42674   0.47628   0.00000  Uiso   1.00
H626   H     0.84158   0.07272   0.50244   0.00000  Uiso   1.00
H627   H     0.98929   0.41462   0.27987   0.00000  Uiso   1.00
H628   H     0.68803   0.53302   0.53773   0.00000  Uiso   1.00
H629   H     0.01876   0.38542   0.53422   0.00000  Uiso   1.00
H630   H     0.02498   0.25996   0.56661   0.00000  Uiso   1.00
H631   H     0.09504   0.42210   0.46105   0.00000  Uiso   1.00
H632   H     0.95217   0.47824   0.58333   0.00000  Uiso   1.00
H633   H     0.00685   0.11453   0.58933   0.00000  Uiso   1.00
H634   H     0.15456   0.45643   0.36676   0.00000  Uiso   1.00
H635   H     0.85329   0.57482   0.62462   0.00000  Uiso   1.00
O636   O     0.92484   0.01021   0.56535   0.00000  Uiso   1.00
O637   O     0.11862   0.45877   0.27334   0.00000  Uiso   1.00
O638   O     0.72337   0.61410   0.61165   0.00000  Uiso   1.00
N639   N     0.87962   0.09978   0.51846   0.00000  Uiso   1.00
N640   N     0.01772   0.41942   0.31036   0.00000  Uiso   1.00
N641   N     0.73607   0.53013   0.55143   0.00000  Uiso   1.00
N642   N     0.96854   0.12228   0.56521   0.00000  Uiso   1.00
N643   N     0.10665   0.44192   0.35712   0.00000  Uiso   1.00
N644   N     0.82499   0.55262   0.59818   0.00000  Uiso   1.00
C645   C     0.13004   0.65222   0.45599   0.00000  Uiso   1.00
C646   C     0.10566   0.71507   0.48464   0.00000  Uiso   1.00
C647   C     0.13468   0.78044   0.48267   0.00000  Uiso   1.00
C648   C     0.10486   0.83101   0.51167   0.00000  Uiso   1.00
C649   C     0.07561   0.93079   0.55159   0.00000  Uiso   1.00
C650   C     0.06759   0.62698   0.42728   0.00000  Uiso   1.00
C651   C     0.06461   0.61829   0.37710   0.00000  Uiso   1.00
C652   C     0.00274   0.59469   0.35781   0.00000  Uiso   1.00
C653   C     0.91441   0.55767   0.30869   0.00000  Uiso   1.00
C654   C     0.14521   0.59648   0.49372   0.00000  Uiso   1.00
C655   C     0.20750   0.56213   0.49940   0.00000  Uiso   1.00
C656   C     0.21098   0.51284   0.53604   0.00000  Uiso   1.00
C657   C     0.24318   0.42846   0.59008   0.00000  Uiso   1.00
C658   C     0.02546   0.62576   0.51097   0.00000  Uiso   1.00
C659   C     0.04885   0.70070   0.51450   0.00000  Uiso   1.00
C660   C     0.01898   0.75117   0.54351   0.00000  Uiso   1.00
C661   C     0.04795   0.81661   0.54159   0.00000  Uiso   1.00
C662   C     0.01079   0.61261   0.45714   0.00000  Uiso   1.00
C663   C     0.94891   0.58902   0.43793   0.00000  Uiso   1.00
C664   C     0.94584   0.58030   0.38773   0.00000  Uiso   1.00
C665   C     0.08841   0.58211   0.52359   0.00000  Uiso   1.00
C666   C     0.09180   0.53286   0.56023   0.00000  Uiso   1.00
C667   C     0.15408   0.49844   0.56596   0.00000  Uiso   1.00
H668   H     0.17426   0.66341   0.43273   0.00000  Uiso   1.00
H669   H     0.17863   0.79154   0.45955   0.00000  Uiso   1.00
H670   H     0.10858   0.62941   0.35399   0.00000  Uiso   1.00
H671   H     0.25144   0.57326   0.47628   0.00000  Uiso   1.00
H672   H     0.15842   0.92728   0.50244   0.00000  Uiso   1.00
H673   H     0.01071   0.58538   0.27987   0.00000  Uiso   1.00
H674   H     0.31197   0.46698   0.53773   0.00000  Uiso   1.00
H675   H     0.98124   0.61458   0.53422   0.00000  Uiso   1.00
H676   H     0.97502   0.74004   0.56661   0.00000  Uiso   1.00
H677   H     0.90496   0.57790   0.46105   0.00000  Uiso   1.00
H678   H     0.04783   0.52176   0.58333   0.00000  Uiso   1.00
H679   H     0.99315   0.88547   0.58933   0.00000  Uiso   1.00
H680   H     0.84544   0.54357   0.36676   0.00000  Uiso   1.00
H681   H     0.14671   0.42518   0.62462   0.00000  Uiso   1.00
O682   O     0.07516   0.98979   0.56535   0.00000  Uiso   1.00
O683   O     0.88138   0.54123   0.27334   0.00000  Uiso   1.00
O684   O     0.27663   0.38590   0.61165   0.00000  Uiso   1.00
N685   N     0.12038   0.90022   0.51846   0.00000  Uiso   1.00
N686   N     0.98228   0.58058   0.31036   0.00000  Uiso   1.00
N687   N     0.26393   0.46987   0.55143   0.00000  Uiso   1.00
N688   N     0.03146   0.87772   0.56521   0.00000  Uiso   1.00
N689   N     0.89335   0.55808   0.35712   0.00000  Uiso   1.00
N690   N     0.17501   0.44738   0.59818   0.00000  Uiso   1.00
C691   C     0.63004   0.15222   0.95599   0.00000  Uiso   1.00
C692   C     0.60566   0.21507   0.98464   0.00000  Uiso   1.00
C693   C     0.63468   0.28044   0.98267   0.00000  Uiso   1.00
C694   C     0.60486   0.33101   0.01167   0.00000  Uiso   1.00
C695   C     0.57561   0.43079   0.05159   0.00000  Uiso   1.00
C696   C     0.56759   0.12698   0.92728   0.00000  Uiso   1.00
C697   C     0.56461   0.11829   0.87710   0.00000  Uiso   1.00
C698   C     0.50274   0.09469   0.85781   0.00000  Uiso   1.00
C699   C     0.41441   0.05767   0.80869   0.00000  Uiso   1.00
C700   C     0.64521   0.09648   0.99372   0.00000  Uiso   1.00
C701   C     0.70750   0.06213   0.99940   0.00000  Uiso   1.00
C702   C     0.71098   0.01284   0.03604   0.00000  Uiso   1.00
C703   C     0.74318   0.92846   0.09008   0.00000  Uiso   1.00
C704   C     0.52546   0.12576   0.01097   0.00000  Uiso   1.00
C705   C     0.54885   0.20070   0.01450   0.00000  Uiso   1.00
C706   C     0.51898   0.25117   0.04351   0.00000  Uiso   1.00
C707   C     0.54795   0.31661   0.04159   0.00000  Uiso   1.00
C708   C     0.51079   0.11261   0.95714   0.00000  Uiso   1.00
C709   C     0.44891   0.08902   0.93793   0.00000  Uiso   1.00
C710   C     0.44584   0.08030   0.88773   0.00000  Uiso   1.00
C711   C     0.58841   0.08211   0.02359   0.00000  Uiso   1.00
C712   C     0.59180   0.03286   0.06023   0.00000  Uiso   1.00
C713   C     0.65408   0.99844   0.06596   0.00000  Uiso   1.00
H714   H     0.67426   0.16341   0.93273   0.00000  Uiso   1.00
H715   H     0.67863   0.29154   0.95955   0.00000  Uiso   1.00
H716   H     0.60858   0.12941   0.85399   0.00000  Uiso   1.00
H717   H     0.75144   0.07326   0.97628   0.00000  Uiso   1.00
H718   H     0.65842   0.42728   0.00244   0.00000  Uiso   1.00
H719   H     0.51071   0.08538   0.77987   0.00000  Uiso   1.00
H720   H     0.81197   0.96698   0.03773   0.00000  Uiso   1.00
H721   H     0.48124   0.11458   0.03422   0.00000  Uiso   1.00
H722   H     0.47502   0.24004   0.06661   0.00000  Uiso   1.00
H723   H     0.40496   0.07790   0.96105   0.00000  Uiso   1.00
H724   H     0.54783   0.02176   0.08333   0.00000  Uiso   1.00
H725   H     0.49315   0.38547   0.08933   0.00000  Uiso   1.00
H726   H     0.34544   0.04357   0.86676   0.00000  Uiso   1.00
H727   H     0.64671   0.92518   0.12462   0.00000  Uiso   1.00
O728   O     0.57516   0.48979   0.06535   0.00000  Uiso   1.00
O729   O     0.38138   0.04123   0.77334   0.00000  Uiso   1.00
O730   O     0.77663   0.88590   0.11165   0.00000  Uiso   1.00
N731   N     0.62038   0.40022   0.01846   0.00000  Uiso   1.00
N732   N     0.48228   0.08058   0.81036   0.00000  Uiso   1.00
N733   N     0.76393   0.96987   0.05143   0.00000  Uiso   1.00
N734   N     0.53146   0.37772   0.06521   0.00000  Uiso   1.00
N735   N     0.39335   0.05808   0.85712   0.00000  Uiso   1.00
N736   N     0.67501   0.94738   0.09818   0.00000  Uiso   1.00
