data_job_05825
_audit_creation_date              2018-12-19
_audit_creation_method            'Materials Studio'
_symmetry_space_group_name_H-M    'P1'
_symmetry_Int_Tables_number       1
_symmetry_cell_setting            triclinic
loop_
_symmetry_equiv_pos_as_xyz
  x,y,z
_cell_length_a                    28.1356
_cell_length_b                    12.1834
_cell_length_c                    26.8192
_cell_angle_alpha                 90.0000
_cell_angle_beta                  90.0000
_cell_angle_gamma                 90.0000
loop_
_atom_site_label
_atom_site_type_symbol
_atom_site_fract_x
_atom_site_fract_y
_atom_site_fract_z
_atom_site_U_iso_or_equiv
_atom_site_adp_type
_atom_site_occupancy
C1     C     0.66325   0.74792   0.86113   0.00000  Uiso   1.00
C2     C     0.63387   0.64317   0.85685   0.00000  Uiso   1.00
C3     C     0.64860   0.53889   0.87079   0.00000  Uiso   1.00
C4     C     0.61647   0.45374   0.86390   0.00000  Uiso   1.00
C5     C     0.57773   0.28825   0.86029   0.00000  Uiso   1.00
C6     C     0.66512   0.79678   0.80882   0.00000  Uiso   1.00
C7     C     0.70613   0.82166   0.78237   0.00000  Uiso   1.00
C8     C     0.70031   0.86584   0.73504   0.00000  Uiso   1.00
C9     C     0.71009   0.93891   0.65688   0.00000  Uiso   1.00
C10    C     0.63371   0.82726   0.89233   0.00000  Uiso   1.00
C11    C     0.64832   0.87780   0.93610   0.00000  Uiso   1.00
C12    C     0.61606   0.94766   0.95908   0.00000  Uiso   1.00
C13    C     0.57708   0.06806   0.01058   0.00000  Uiso   1.00
C14    C     0.57999   0.78214   0.82409   0.00000  Uiso   1.00
C15    C     0.58864   0.66176   0.83673   0.00000  Uiso   1.00
C16    C     0.55648   0.57675   0.82982   0.00000  Uiso   1.00
C17    C     0.57117   0.47236   0.84375   0.00000  Uiso   1.00
C18    C     0.61990   0.81537   0.78870   0.00000  Uiso   1.00
C19    C     0.61402   0.85953   0.74140   0.00000  Uiso   1.00
C20    C     0.65500   0.88446   0.71489   0.00000  Uiso   1.00
C21    C     0.58849   0.84585   0.87221   0.00000  Uiso   1.00
C22    C     0.55621   0.91565   0.89512   0.00000  Uiso   1.00
C23    C     0.57076   0.96628   0.93892   0.00000  Uiso   1.00
H24    H     0.69846   0.73345   0.87679   0.00000  Uiso   1.00
H25    H     0.68360   0.52453   0.88636   0.00000  Uiso   1.00
H26    H     0.74112   0.80728   0.79795   0.00000  Uiso   1.00
H27    H     0.68332   0.86340   0.95166   0.00000  Uiso   1.00
H28    H     0.64719   0.30110   0.88808   0.00000  Uiso   1.00
H29    H     0.76847   0.89731   0.70168   0.00000  Uiso   1.00
H30    H     0.64659   0.01566   0.02579   0.00000  Uiso   1.00
H31    H     0.54479   0.79662   0.80843   0.00000  Uiso   1.00
H32    H     0.52149   0.59116   0.81425   0.00000  Uiso   1.00
H33    H     0.57901   0.87390   0.72584   0.00000  Uiso   1.00
H34    H     0.52121   0.93002   0.87954   0.00000  Uiso   1.00
H35    H     0.51562   0.35517   0.82955   0.00000  Uiso   1.00
H36    H     0.63690   0.95139   0.64315   0.00000  Uiso   1.00
H37    H     0.51502   0.06973   0.96726   0.00000  Uiso   1.00
O38    O     0.56886   0.19183   0.86386   0.00000  Uiso   1.00
O39    O     0.72798   0.97407   0.61932   0.00000  Uiso   1.00
O40    O     0.56807   0.12932   0.04455   0.00000  Uiso   1.00
N41    N     0.61941   0.34202   0.87351   0.00000  Uiso   1.00
N42    N     0.73281   0.89944   0.69924   0.00000  Uiso   1.00
N43    N     0.61887   0.01010   0.00225   0.00000  Uiso   1.00
N44    N     0.54862   0.37112   0.84202   0.00000  Uiso   1.00
N45    N     0.66201   0.92853   0.66775   0.00000  Uiso   1.00
N46    N     0.54807   0.03919   0.97076   0.00000  Uiso   1.00
C47    C     0.16325   0.24792   0.36113   0.00000  Uiso   1.00
C48    C     0.13387   0.14317   0.35685   0.00000  Uiso   1.00
C49    C     0.14860   0.03889   0.37079   0.00000  Uiso   1.00
C50    C     0.11647   0.95374   0.36390   0.00000  Uiso   1.00
C51    C     0.07773   0.78825   0.36029   0.00000  Uiso   1.00
C52    C     0.16512   0.29678   0.30882   0.00000  Uiso   1.00
C53    C     0.20613   0.32166   0.28237   0.00000  Uiso   1.00
C54    C     0.20031   0.36584   0.23504   0.00000  Uiso   1.00
C55    C     0.21009   0.43891   0.15688   0.00000  Uiso   1.00
C56    C     0.13371   0.32726   0.39233   0.00000  Uiso   1.00
C57    C     0.14832   0.37780   0.43610   0.00000  Uiso   1.00
C58    C     0.11606   0.44766   0.45908   0.00000  Uiso   1.00
C59    C     0.07708   0.56806   0.51058   0.00000  Uiso   1.00
C60    C     0.07999   0.28214   0.32409   0.00000  Uiso   1.00
C61    C     0.08864   0.16176   0.33673   0.00000  Uiso   1.00
C62    C     0.05648   0.07675   0.32982   0.00000  Uiso   1.00
C63    C     0.07117   0.97236   0.34375   0.00000  Uiso   1.00
C64    C     0.11990   0.31537   0.28870   0.00000  Uiso   1.00
C65    C     0.11402   0.35953   0.24140   0.00000  Uiso   1.00
C66    C     0.15500   0.38446   0.21489   0.00000  Uiso   1.00
C67    C     0.08849   0.34585   0.37221   0.00000  Uiso   1.00
C68    C     0.05621   0.41565   0.39512   0.00000  Uiso   1.00
C69    C     0.07076   0.46628   0.43892   0.00000  Uiso   1.00
H70    H     0.19846   0.23345   0.37679   0.00000  Uiso   1.00
H71    H     0.18360   0.02453   0.38636   0.00000  Uiso   1.00
H72    H     0.24112   0.30728   0.29795   0.00000  Uiso   1.00
H73    H     0.18332   0.36340   0.45166   0.00000  Uiso   1.00
H74    H     0.14719   0.80110   0.38808   0.00000  Uiso   1.00
H75    H     0.26847   0.39731   0.20168   0.00000  Uiso   1.00
H76    H     0.14659   0.51566   0.52579   0.00000  Uiso   1.00
H77    H     0.04479   0.29662   0.30843   0.00000  Uiso   1.00
H78    H     0.02149   0.09116   0.31425   0.00000  Uiso   1.00
H79    H     0.07901   0.37390   0.22584   0.00000  Uiso   1.00
H80    H     0.02121   0.43002   0.37954   0.00000  Uiso   1.00
H81    H     0.01562   0.85517   0.32955   0.00000  Uiso   1.00
H82    H     0.13690   0.45139   0.14315   0.00000  Uiso   1.00
H83    H     0.01502   0.56973   0.46726   0.00000  Uiso   1.00
O84    O     0.06886   0.69183   0.36386   0.00000  Uiso   1.00
O85    O     0.22798   0.47407   0.11932   0.00000  Uiso   1.00
O86    O     0.06807   0.62932   0.54455   0.00000  Uiso   1.00
N87    N     0.11941   0.84202   0.37351   0.00000  Uiso   1.00
N88    N     0.23281   0.39944   0.19924   0.00000  Uiso   1.00
N89    N     0.11887   0.51010   0.50225   0.00000  Uiso   1.00
N90    N     0.04862   0.87112   0.34202   0.00000  Uiso   1.00
N91    N     0.16201   0.42853   0.16775   0.00000  Uiso   1.00
N92    N     0.04807   0.53919   0.47076   0.00000  Uiso   1.00
C93    C     0.83675   0.25208   0.36113   0.00000  Uiso   1.00
C94    C     0.86613   0.35683   0.35685   0.00000  Uiso   1.00
C95    C     0.85140   0.46111   0.37079   0.00000  Uiso   1.00
C96    C     0.88353   0.54626   0.36390   0.00000  Uiso   1.00
C97    C     0.92227   0.71175   0.36029   0.00000  Uiso   1.00
C98    C     0.83488   0.20322   0.30882   0.00000  Uiso   1.00
C99    C     0.79387   0.17834   0.28237   0.00000  Uiso   1.00
C100   C     0.79969   0.13416   0.23504   0.00000  Uiso   1.00
C101   C     0.78991   0.06109   0.15688   0.00000  Uiso   1.00
C102   C     0.86629   0.17274   0.39233   0.00000  Uiso   1.00
C103   C     0.85168   0.12220   0.43610   0.00000  Uiso   1.00
C104   C     0.88394   0.05234   0.45908   0.00000  Uiso   1.00
C105   C     0.92292   0.93194   0.51058   0.00000  Uiso   1.00
C106   C     0.92001   0.21786   0.32409   0.00000  Uiso   1.00
C107   C     0.91136   0.33824   0.33673   0.00000  Uiso   1.00
C108   C     0.94352   0.42325   0.32982   0.00000  Uiso   1.00
C109   C     0.92883   0.52764   0.34375   0.00000  Uiso   1.00
C110   C     0.88010   0.18463   0.28870   0.00000  Uiso   1.00
C111   C     0.88598   0.14047   0.24140   0.00000  Uiso   1.00
C112   C     0.84500   0.11554   0.21489   0.00000  Uiso   1.00
C113   C     0.91151   0.15415   0.37221   0.00000  Uiso   1.00
C114   C     0.94379   0.08435   0.39512   0.00000  Uiso   1.00
C115   C     0.92924   0.03372   0.43892   0.00000  Uiso   1.00
H116   H     0.80154   0.26655   0.37679   0.00000  Uiso   1.00
H117   H     0.81640   0.47547   0.38636   0.00000  Uiso   1.00
H118   H     0.75888   0.19272   0.29795   0.00000  Uiso   1.00
H119   H     0.81668   0.13660   0.45166   0.00000  Uiso   1.00
H120   H     0.85281   0.69890   0.38808   0.00000  Uiso   1.00
H121   H     0.73153   0.10269   0.20168   0.00000  Uiso   1.00
H122   H     0.85341   0.98434   0.52579   0.00000  Uiso   1.00
H123   H     0.95521   0.20338   0.30843   0.00000  Uiso   1.00
H124   H     0.97851   0.40884   0.31425   0.00000  Uiso   1.00
H125   H     0.92099   0.12610   0.22584   0.00000  Uiso   1.00
H126   H     0.97879   0.06998   0.37954   0.00000  Uiso   1.00
H127   H     0.98438   0.64483   0.32955   0.00000  Uiso   1.00
H128   H     0.86310   0.04861   0.14315   0.00000  Uiso   1.00
H129   H     0.98498   0.93027   0.46726   0.00000  Uiso   1.00
O130   O     0.93114   0.80817   0.36386   0.00000  Uiso   1.00
O131   O     0.77202   0.02593   0.11932   0.00000  Uiso   1.00
O132   O     0.93193   0.87068   0.54455   0.00000  Uiso   1.00
N133   N     0.88059   0.65798   0.37351   0.00000  Uiso   1.00
N134   N     0.76719   0.10056   0.19924   0.00000  Uiso   1.00
N135   N     0.88113   0.98990   0.50225   0.00000  Uiso   1.00
N136   N     0.95138   0.62888   0.34202   0.00000  Uiso   1.00
N137   N     0.83799   0.07147   0.16775   0.00000  Uiso   1.00
N138   N     0.95193   0.96081   0.47076   0.00000  Uiso   1.00
C139   C     0.33675   0.75208   0.86113   0.00000  Uiso   1.00
C140   C     0.36613   0.85683   0.85685   0.00000  Uiso   1.00
C141   C     0.35140   0.96111   0.87079   0.00000  Uiso   1.00
C142   C     0.38353   0.04626   0.86390   0.00000  Uiso   1.00
C143   C     0.42227   0.21175   0.86029   0.00000  Uiso   1.00
C144   C     0.33488   0.70322   0.80882   0.00000  Uiso   1.00
C145   C     0.29387   0.67834   0.78237   0.00000  Uiso   1.00
C146   C     0.29969   0.63416   0.73504   0.00000  Uiso   1.00
C147   C     0.28991   0.56109   0.65688   0.00000  Uiso   1.00
C148   C     0.36629   0.67274   0.89233   0.00000  Uiso   1.00
C149   C     0.35168   0.62220   0.93610   0.00000  Uiso   1.00
C150   C     0.38394   0.55234   0.95908   0.00000  Uiso   1.00
C151   C     0.42292   0.43194   0.01058   0.00000  Uiso   1.00
C152   C     0.42001   0.71786   0.82409   0.00000  Uiso   1.00
C153   C     0.41136   0.83824   0.83673   0.00000  Uiso   1.00
C154   C     0.44352   0.92325   0.82982   0.00000  Uiso   1.00
C155   C     0.42883   0.02764   0.84375   0.00000  Uiso   1.00
C156   C     0.38010   0.68463   0.78870   0.00000  Uiso   1.00
C157   C     0.38598   0.64047   0.74140   0.00000  Uiso   1.00
C158   C     0.34500   0.61554   0.71489   0.00000  Uiso   1.00
C159   C     0.41151   0.65415   0.87221   0.00000  Uiso   1.00
C160   C     0.44379   0.58435   0.89512   0.00000  Uiso   1.00
C161   C     0.42924   0.53372   0.93892   0.00000  Uiso   1.00
H162   H     0.30154   0.76655   0.87679   0.00000  Uiso   1.00
H163   H     0.31640   0.97547   0.88636   0.00000  Uiso   1.00
H164   H     0.25888   0.69272   0.79795   0.00000  Uiso   1.00
H165   H     0.31668   0.63660   0.95166   0.00000  Uiso   1.00
H166   H     0.35281   0.19890   0.88808   0.00000  Uiso   1.00
H167   H     0.23153   0.60269   0.70168   0.00000  Uiso   1.00
H168   H     0.35341   0.48434   0.02579   0.00000  Uiso   1.00
H169   H     0.45521   0.70338   0.80843   0.00000  Uiso   1.00
H170   H     0.47851   0.90884   0.81425   0.00000  Uiso   1.00
H171   H     0.42099   0.62610   0.72584   0.00000  Uiso   1.00
H172   H     0.47879   0.56998   0.87954   0.00000  Uiso   1.00
H173   H     0.48438   0.14483   0.82955   0.00000  Uiso   1.00
H174   H     0.36310   0.54861   0.64315   0.00000  Uiso   1.00
H175   H     0.48498   0.43027   0.96726   0.00000  Uiso   1.00
O176   O     0.43114   0.30817   0.86386   0.00000  Uiso   1.00
O177   O     0.27202   0.52593   0.61932   0.00000  Uiso   1.00
O178   O     0.43193   0.37068   0.04455   0.00000  Uiso   1.00
N179   N     0.38059   0.15798   0.87351   0.00000  Uiso   1.00
N180   N     0.26719   0.60056   0.69924   0.00000  Uiso   1.00
N181   N     0.38113   0.48990   0.00225   0.00000  Uiso   1.00
N182   N     0.45138   0.12888   0.84202   0.00000  Uiso   1.00
N183   N     0.33799   0.57147   0.66775   0.00000  Uiso   1.00
N184   N     0.45193   0.46081   0.97076   0.00000  Uiso   1.00
C185   C     0.33675   0.24792   0.63887   0.00000  Uiso   1.00
C186   C     0.36613   0.14317   0.64315   0.00000  Uiso   1.00
C187   C     0.35140   0.03889   0.62921   0.00000  Uiso   1.00
C188   C     0.38353   0.95374   0.63610   0.00000  Uiso   1.00
C189   C     0.42227   0.78825   0.63971   0.00000  Uiso   1.00
C190   C     0.33488   0.29678   0.69118   0.00000  Uiso   1.00
C191   C     0.29387   0.32166   0.71763   0.00000  Uiso   1.00
C192   C     0.29969   0.36584   0.76496   0.00000  Uiso   1.00
C193   C     0.28991   0.43891   0.84312   0.00000  Uiso   1.00
C194   C     0.36629   0.32726   0.60767   0.00000  Uiso   1.00
C195   C     0.35168   0.37780   0.56390   0.00000  Uiso   1.00
C196   C     0.38394   0.44766   0.54092   0.00000  Uiso   1.00
C197   C     0.42292   0.56806   0.48942   0.00000  Uiso   1.00
C198   C     0.42001   0.28214   0.67591   0.00000  Uiso   1.00
C199   C     0.41136   0.16176   0.66327   0.00000  Uiso   1.00
C200   C     0.44352   0.07675   0.67018   0.00000  Uiso   1.00
C201   C     0.42883   0.97236   0.65625   0.00000  Uiso   1.00
C202   C     0.38010   0.31537   0.71130   0.00000  Uiso   1.00
C203   C     0.38598   0.35953   0.75860   0.00000  Uiso   1.00
C204   C     0.34500   0.38446   0.78511   0.00000  Uiso   1.00
C205   C     0.41151   0.34585   0.62779   0.00000  Uiso   1.00
C206   C     0.44379   0.41565   0.60488   0.00000  Uiso   1.00
C207   C     0.42924   0.46628   0.56108   0.00000  Uiso   1.00
H208   H     0.30154   0.23345   0.62321   0.00000  Uiso   1.00
H209   H     0.31640   0.02453   0.61364   0.00000  Uiso   1.00
H210   H     0.25888   0.30728   0.70205   0.00000  Uiso   1.00
H211   H     0.31668   0.36340   0.54834   0.00000  Uiso   1.00
H212   H     0.35281   0.80110   0.61192   0.00000  Uiso   1.00
H213   H     0.23153   0.39731   0.79832   0.00000  Uiso   1.00
H214   H     0.35341   0.51566   0.47421   0.00000  Uiso   1.00
H215   H     0.45521   0.29662   0.69157   0.00000  Uiso   1.00
H216   H     0.47851   0.09116   0.68575   0.00000  Uiso   1.00
H217   H     0.42099   0.37390   0.77416   0.00000  Uiso   1.00
H218   H     0.47879   0.43002   0.62046   0.00000  Uiso   1.00
H219   H     0.48438   0.85517   0.67045   0.00000  Uiso   1.00
H220   H     0.36310   0.45139   0.85685   0.00000  Uiso   1.00
H221   H     0.48498   0.56973   0.53274   0.00000  Uiso   1.00
O222   O     0.43114   0.69183   0.63614   0.00000  Uiso   1.00
O223   O     0.27202   0.47407   0.88068   0.00000  Uiso   1.00
O224   O     0.43193   0.62932   0.45545   0.00000  Uiso   1.00
N225   N     0.38059   0.84202   0.62649   0.00000  Uiso   1.00
N226   N     0.26719   0.39944   0.80076   0.00000  Uiso   1.00
N227   N     0.38113   0.51010   0.49775   0.00000  Uiso   1.00
N228   N     0.45138   0.87112   0.65798   0.00000  Uiso   1.00
N229   N     0.33799   0.42853   0.83225   0.00000  Uiso   1.00
N230   N     0.45193   0.53919   0.52924   0.00000  Uiso   1.00
C231   C     0.83675   0.74792   0.13887   0.00000  Uiso   1.00
C232   C     0.86613   0.64317   0.14315   0.00000  Uiso   1.00
C233   C     0.85140   0.53889   0.12921   0.00000  Uiso   1.00
C234   C     0.88353   0.45374   0.13610   0.00000  Uiso   1.00
C235   C     0.92227   0.28825   0.13971   0.00000  Uiso   1.00
C236   C     0.83488   0.79678   0.19118   0.00000  Uiso   1.00
C237   C     0.79387   0.82166   0.21763   0.00000  Uiso   1.00
C238   C     0.79969   0.86584   0.26496   0.00000  Uiso   1.00
C239   C     0.78991   0.93891   0.34312   0.00000  Uiso   1.00
C240   C     0.86629   0.82726   0.10767   0.00000  Uiso   1.00
C241   C     0.85168   0.87780   0.06390   0.00000  Uiso   1.00
C242   C     0.88394   0.94766   0.04092   0.00000  Uiso   1.00
C243   C     0.92292   0.06806   0.98942   0.00000  Uiso   1.00
C244   C     0.92001   0.78214   0.17591   0.00000  Uiso   1.00
C245   C     0.91136   0.66176   0.16327   0.00000  Uiso   1.00
C246   C     0.94352   0.57675   0.17018   0.00000  Uiso   1.00
C247   C     0.92883   0.47236   0.15625   0.00000  Uiso   1.00
C248   C     0.88010   0.81537   0.21130   0.00000  Uiso   1.00
C249   C     0.88598   0.85953   0.25860   0.00000  Uiso   1.00
C250   C     0.84500   0.88446   0.28511   0.00000  Uiso   1.00
C251   C     0.91151   0.84585   0.12779   0.00000  Uiso   1.00
C252   C     0.94379   0.91565   0.10488   0.00000  Uiso   1.00
C253   C     0.92924   0.96628   0.06108   0.00000  Uiso   1.00
H254   H     0.80154   0.73345   0.12321   0.00000  Uiso   1.00
H255   H     0.81640   0.52453   0.11364   0.00000  Uiso   1.00
H256   H     0.75888   0.80728   0.20205   0.00000  Uiso   1.00
H257   H     0.81668   0.86340   0.04834   0.00000  Uiso   1.00
H258   H     0.85281   0.30110   0.11192   0.00000  Uiso   1.00
H259   H     0.73153   0.89731   0.29832   0.00000  Uiso   1.00
H260   H     0.85341   0.01566   0.97421   0.00000  Uiso   1.00
H261   H     0.95521   0.79662   0.19157   0.00000  Uiso   1.00
H262   H     0.97851   0.59116   0.18575   0.00000  Uiso   1.00
H263   H     0.92099   0.87390   0.27416   0.00000  Uiso   1.00
H264   H     0.97879   0.93002   0.12046   0.00000  Uiso   1.00
H265   H     0.98438   0.35517   0.17045   0.00000  Uiso   1.00
H266   H     0.86310   0.95139   0.35685   0.00000  Uiso   1.00
H267   H     0.98498   0.06973   0.03274   0.00000  Uiso   1.00
O268   O     0.93114   0.19183   0.13614   0.00000  Uiso   1.00
O269   O     0.77202   0.97407   0.38068   0.00000  Uiso   1.00
O270   O     0.93193   0.12932   0.95545   0.00000  Uiso   1.00
N271   N     0.88059   0.34202   0.12649   0.00000  Uiso   1.00
N272   N     0.76719   0.89944   0.30076   0.00000  Uiso   1.00
N273   N     0.88113   0.01010   0.99775   0.00000  Uiso   1.00
N274   N     0.95138   0.37112   0.15798   0.00000  Uiso   1.00
N275   N     0.83799   0.92853   0.33225   0.00000  Uiso   1.00
N276   N     0.95193   0.03919   0.02924   0.00000  Uiso   1.00
C277   C     0.16325   0.75208   0.13887   0.00000  Uiso   1.00
C278   C     0.13387   0.85683   0.14315   0.00000  Uiso   1.00
C279   C     0.14860   0.96111   0.12921   0.00000  Uiso   1.00
C280   C     0.11647   0.04626   0.13610   0.00000  Uiso   1.00
C281   C     0.07773   0.21175   0.13971   0.00000  Uiso   1.00
C282   C     0.16512   0.70322   0.19118   0.00000  Uiso   1.00
C283   C     0.20613   0.67834   0.21763   0.00000  Uiso   1.00
C284   C     0.20031   0.63416   0.26496   0.00000  Uiso   1.00
C285   C     0.21009   0.56109   0.34312   0.00000  Uiso   1.00
C286   C     0.13371   0.67274   0.10767   0.00000  Uiso   1.00
C287   C     0.14832   0.62220   0.06390   0.00000  Uiso   1.00
C288   C     0.11606   0.55234   0.04092   0.00000  Uiso   1.00
C289   C     0.07708   0.43194   0.98942   0.00000  Uiso   1.00
C290   C     0.07999   0.71786   0.17591   0.00000  Uiso   1.00
C291   C     0.08864   0.83824   0.16327   0.00000  Uiso   1.00
C292   C     0.05648   0.92325   0.17018   0.00000  Uiso   1.00
C293   C     0.07117   0.02764   0.15625   0.00000  Uiso   1.00
C294   C     0.11990   0.68463   0.21130   0.00000  Uiso   1.00
C295   C     0.11402   0.64047   0.25860   0.00000  Uiso   1.00
C296   C     0.15500   0.61554   0.28511   0.00000  Uiso   1.00
C297   C     0.08849   0.65415   0.12779   0.00000  Uiso   1.00
C298   C     0.05621   0.58435   0.10488   0.00000  Uiso   1.00
C299   C     0.07076   0.53372   0.06108   0.00000  Uiso   1.00
H300   H     0.19846   0.76655   0.12321   0.00000  Uiso   1.00
H301   H     0.18360   0.97547   0.11364   0.00000  Uiso   1.00
H302   H     0.24112   0.69272   0.20205   0.00000  Uiso   1.00
H303   H     0.18332   0.63660   0.04834   0.00000  Uiso   1.00
H304   H     0.14719   0.19890   0.11192   0.00000  Uiso   1.00
H305   H     0.26847   0.60269   0.29832   0.00000  Uiso   1.00
H306   H     0.14659   0.48434   0.97421   0.00000  Uiso   1.00
H307   H     0.04479   0.70338   0.19157   0.00000  Uiso   1.00
H308   H     0.02149   0.90884   0.18575   0.00000  Uiso   1.00
H309   H     0.07901   0.62610   0.27416   0.00000  Uiso   1.00
H310   H     0.02121   0.56998   0.12046   0.00000  Uiso   1.00
H311   H     0.01562   0.14483   0.17045   0.00000  Uiso   1.00
H312   H     0.13690   0.54861   0.35685   0.00000  Uiso   1.00
H313   H     0.01502   0.43027   0.03274   0.00000  Uiso   1.00
O314   O     0.06886   0.30817   0.13614   0.00000  Uiso   1.00
O315   O     0.22798   0.52593   0.38068   0.00000  Uiso   1.00
O316   O     0.06807   0.37068   0.95545   0.00000  Uiso   1.00
N317   N     0.11941   0.15798   0.12649   0.00000  Uiso   1.00
N318   N     0.23281   0.60056   0.30076   0.00000  Uiso   1.00
N319   N     0.11887   0.48990   0.99775   0.00000  Uiso   1.00
N320   N     0.04862   0.12888   0.15798   0.00000  Uiso   1.00
N321   N     0.16201   0.57147   0.33225   0.00000  Uiso   1.00
N322   N     0.04807   0.46081   0.02924   0.00000  Uiso   1.00
C323   C     0.66325   0.25208   0.63887   0.00000  Uiso   1.00
C324   C     0.63387   0.35683   0.64315   0.00000  Uiso   1.00
C325   C     0.64860   0.46111   0.62921   0.00000  Uiso   1.00
C326   C     0.61647   0.54626   0.63610   0.00000  Uiso   1.00
C327   C     0.57773   0.71175   0.63971   0.00000  Uiso   1.00
C328   C     0.66512   0.20322   0.69118   0.00000  Uiso   1.00
C329   C     0.70613   0.17834   0.71763   0.00000  Uiso   1.00
C330   C     0.70031   0.13416   0.76496   0.00000  Uiso   1.00
C331   C     0.71009   0.06109   0.84312   0.00000  Uiso   1.00
C332   C     0.63371   0.17274   0.60767   0.00000  Uiso   1.00
C333   C     0.64832   0.12220   0.56390   0.00000  Uiso   1.00
C334   C     0.61606   0.05234   0.54092   0.00000  Uiso   1.00
C335   C     0.57708   0.93194   0.48942   0.00000  Uiso   1.00
C336   C     0.57999   0.21786   0.67591   0.00000  Uiso   1.00
C337   C     0.58864   0.33824   0.66327   0.00000  Uiso   1.00
C338   C     0.55648   0.42325   0.67018   0.00000  Uiso   1.00
C339   C     0.57117   0.52764   0.65625   0.00000  Uiso   1.00
C340   C     0.61990   0.18463   0.71130   0.00000  Uiso   1.00
C341   C     0.61402   0.14047   0.75860   0.00000  Uiso   1.00
C342   C     0.65500   0.11554   0.78511   0.00000  Uiso   1.00
C343   C     0.58849   0.15415   0.62779   0.00000  Uiso   1.00
C344   C     0.55621   0.08435   0.60488   0.00000  Uiso   1.00
C345   C     0.57076   0.03372   0.56108   0.00000  Uiso   1.00
H346   H     0.69846   0.26655   0.62321   0.00000  Uiso   1.00
H347   H     0.68360   0.47547   0.61364   0.00000  Uiso   1.00
H348   H     0.74112   0.19272   0.70205   0.00000  Uiso   1.00
H349   H     0.68332   0.13660   0.54834   0.00000  Uiso   1.00
H350   H     0.64719   0.69890   0.61192   0.00000  Uiso   1.00
H351   H     0.76847   0.10269   0.79832   0.00000  Uiso   1.00
H352   H     0.64659   0.98434   0.47421   0.00000  Uiso   1.00
H353   H     0.54479   0.20338   0.69157   0.00000  Uiso   1.00
H354   H     0.52149   0.40884   0.68575   0.00000  Uiso   1.00
H355   H     0.57901   0.12610   0.77416   0.00000  Uiso   1.00
H356   H     0.52121   0.06998   0.62046   0.00000  Uiso   1.00
H357   H     0.51562   0.64483   0.67045   0.00000  Uiso   1.00
H358   H     0.63690   0.04861   0.85685   0.00000  Uiso   1.00
H359   H     0.51502   0.93027   0.53274   0.00000  Uiso   1.00
O360   O     0.56886   0.80817   0.63614   0.00000  Uiso   1.00
O361   O     0.72798   0.02593   0.88068   0.00000  Uiso   1.00
O362   O     0.56807   0.87068   0.45545   0.00000  Uiso   1.00
N363   N     0.61941   0.65798   0.62649   0.00000  Uiso   1.00
N364   N     0.73281   0.10056   0.80076   0.00000  Uiso   1.00
N365   N     0.61887   0.98990   0.49775   0.00000  Uiso   1.00
N366   N     0.54862   0.62888   0.65798   0.00000  Uiso   1.00
N367   N     0.66201   0.07147   0.83225   0.00000  Uiso   1.00
N368   N     0.54807   0.96081   0.52924   0.00000  Uiso   1.00
C369   C     0.33675   0.25208   0.13887   0.00000  Uiso   1.00
C370   C     0.36613   0.35683   0.14315   0.00000  Uiso   1.00
C371   C     0.35140   0.46111   0.12921   0.00000  Uiso   1.00
C372   C     0.38353   0.54626   0.13610   0.00000  Uiso   1.00
C373   C     0.42227   0.71175   0.13971   0.00000  Uiso   1.00
C374   C     0.33488   0.20322   0.19118   0.00000  Uiso   1.00
C375   C     0.29387   0.17834   0.21763   0.00000  Uiso   1.00
C376   C     0.29969   0.13416   0.26496   0.00000  Uiso   1.00
C377   C     0.28991   0.06109   0.34312   0.00000  Uiso   1.00
C378   C     0.36629   0.17274   0.10767   0.00000  Uiso   1.00
C379   C     0.35168   0.12220   0.06390   0.00000  Uiso   1.00
C380   C     0.38394   0.05234   0.04092   0.00000  Uiso   1.00
C381   C     0.42292   0.93194   0.98942   0.00000  Uiso   1.00
C382   C     0.42001   0.21786   0.17591   0.00000  Uiso   1.00
C383   C     0.41136   0.33824   0.16327   0.00000  Uiso   1.00
C384   C     0.44352   0.42325   0.17018   0.00000  Uiso   1.00
C385   C     0.42883   0.52764   0.15625   0.00000  Uiso   1.00
C386   C     0.38010   0.18463   0.21130   0.00000  Uiso   1.00
C387   C     0.38598   0.14047   0.25860   0.00000  Uiso   1.00
C388   C     0.34500   0.11554   0.28511   0.00000  Uiso   1.00
C389   C     0.41151   0.15415   0.12779   0.00000  Uiso   1.00
C390   C     0.44379   0.08435   0.10488   0.00000  Uiso   1.00
C391   C     0.42924   0.03372   0.06108   0.00000  Uiso   1.00
H392   H     0.30154   0.26655   0.12321   0.00000  Uiso   1.00
H393   H     0.31640   0.47547   0.11364   0.00000  Uiso   1.00
H394   H     0.25888   0.19272   0.20205   0.00000  Uiso   1.00
H395   H     0.31668   0.13660   0.04834   0.00000  Uiso   1.00
H396   H     0.35281   0.69890   0.11192   0.00000  Uiso   1.00
H397   H     0.23153   0.10269   0.29832   0.00000  Uiso   1.00
H398   H     0.35341   0.98434   0.97421   0.00000  Uiso   1.00
H399   H     0.45521   0.20338   0.19157   0.00000  Uiso   1.00
H400   H     0.47851   0.40884   0.18575   0.00000  Uiso   1.00
H401   H     0.42099   0.12610   0.27416   0.00000  Uiso   1.00
H402   H     0.47879   0.06998   0.12046   0.00000  Uiso   1.00
H403   H     0.48438   0.64483   0.17045   0.00000  Uiso   1.00
H404   H     0.36310   0.04861   0.35685   0.00000  Uiso   1.00
H405   H     0.48498   0.93027   0.03274   0.00000  Uiso   1.00
O406   O     0.43114   0.80817   0.13614   0.00000  Uiso   1.00
O407   O     0.27202   0.02593   0.38068   0.00000  Uiso   1.00
O408   O     0.43193   0.87068   0.95545   0.00000  Uiso   1.00
N409   N     0.38059   0.65798   0.12649   0.00000  Uiso   1.00
N410   N     0.26719   0.10056   0.30076   0.00000  Uiso   1.00
N411   N     0.38113   0.98990   0.99775   0.00000  Uiso   1.00
N412   N     0.45138   0.62888   0.15798   0.00000  Uiso   1.00
N413   N     0.33799   0.07147   0.33225   0.00000  Uiso   1.00
N414   N     0.45193   0.96081   0.02924   0.00000  Uiso   1.00
C415   C     0.83675   0.75208   0.63887   0.00000  Uiso   1.00
C416   C     0.86613   0.85683   0.64315   0.00000  Uiso   1.00
C417   C     0.85140   0.96111   0.62921   0.00000  Uiso   1.00
C418   C     0.88353   0.04626   0.63610   0.00000  Uiso   1.00
C419   C     0.92227   0.21175   0.63971   0.00000  Uiso   1.00
C420   C     0.83488   0.70322   0.69118   0.00000  Uiso   1.00
C421   C     0.79387   0.67834   0.71763   0.00000  Uiso   1.00
C422   C     0.79969   0.63416   0.76496   0.00000  Uiso   1.00
C423   C     0.78991   0.56109   0.84312   0.00000  Uiso   1.00
C424   C     0.86629   0.67274   0.60767   0.00000  Uiso   1.00
C425   C     0.85168   0.62220   0.56390   0.00000  Uiso   1.00
C426   C     0.88394   0.55234   0.54092   0.00000  Uiso   1.00
C427   C     0.92292   0.43194   0.48942   0.00000  Uiso   1.00
C428   C     0.92001   0.71786   0.67591   0.00000  Uiso   1.00
C429   C     0.91136   0.83824   0.66327   0.00000  Uiso   1.00
C430   C     0.94352   0.92325   0.67018   0.00000  Uiso   1.00
C431   C     0.92883   0.02764   0.65625   0.00000  Uiso   1.00
C432   C     0.88010   0.68463   0.71130   0.00000  Uiso   1.00
C433   C     0.88598   0.64047   0.75860   0.00000  Uiso   1.00
C434   C     0.84500   0.61554   0.78511   0.00000  Uiso   1.00
C435   C     0.91151   0.65415   0.62779   0.00000  Uiso   1.00
C436   C     0.94379   0.58435   0.60488   0.00000  Uiso   1.00
C437   C     0.92924   0.53372   0.56108   0.00000  Uiso   1.00
H438   H     0.80154   0.76655   0.62321   0.00000  Uiso   1.00
H439   H     0.81640   0.97547   0.61364   0.00000  Uiso   1.00
H440   H     0.75888   0.69272   0.70205   0.00000  Uiso   1.00
H441   H     0.81668   0.63660   0.54834   0.00000  Uiso   1.00
H442   H     0.85281   0.19890   0.61192   0.00000  Uiso   1.00
H443   H     0.73153   0.60269   0.79832   0.00000  Uiso   1.00
H444   H     0.85341   0.48434   0.47421   0.00000  Uiso   1.00
H445   H     0.95521   0.70338   0.69157   0.00000  Uiso   1.00
H446   H     0.97851   0.90884   0.68575   0.00000  Uiso   1.00
H447   H     0.92099   0.62610   0.77416   0.00000  Uiso   1.00
H448   H     0.97879   0.56998   0.62046   0.00000  Uiso   1.00
H449   H     0.98438   0.14483   0.67045   0.00000  Uiso   1.00
H450   H     0.86310   0.54861   0.85685   0.00000  Uiso   1.00
H451   H     0.98498   0.43027   0.53274   0.00000  Uiso   1.00
O452   O     0.93114   0.30817   0.63614   0.00000  Uiso   1.00
O453   O     0.77202   0.52593   0.88068   0.00000  Uiso   1.00
O454   O     0.93193   0.37068   0.45545   0.00000  Uiso   1.00
N455   N     0.88059   0.15798   0.62649   0.00000  Uiso   1.00
N456   N     0.76719   0.60056   0.80076   0.00000  Uiso   1.00
N457   N     0.88113   0.48990   0.49775   0.00000  Uiso   1.00
N458   N     0.95138   0.12888   0.65798   0.00000  Uiso   1.00
N459   N     0.83799   0.57147   0.83225   0.00000  Uiso   1.00
N460   N     0.95193   0.46081   0.52924   0.00000  Uiso   1.00
C461   C     0.16325   0.74792   0.63887   0.00000  Uiso   1.00
C462   C     0.13387   0.64317   0.64315   0.00000  Uiso   1.00
C463   C     0.14860   0.53889   0.62921   0.00000  Uiso   1.00
C464   C     0.11647   0.45374   0.63610   0.00000  Uiso   1.00
C465   C     0.07773   0.28825   0.63971   0.00000  Uiso   1.00
C466   C     0.16512   0.79678   0.69118   0.00000  Uiso   1.00
C467   C     0.20613   0.82166   0.71763   0.00000  Uiso   1.00
C468   C     0.20031   0.86584   0.76496   0.00000  Uiso   1.00
C469   C     0.21009   0.93891   0.84312   0.00000  Uiso   1.00
C470   C     0.13371   0.82726   0.60767   0.00000  Uiso   1.00
C471   C     0.14832   0.87780   0.56390   0.00000  Uiso   1.00
C472   C     0.11606   0.94766   0.54092   0.00000  Uiso   1.00
C473   C     0.07708   0.06806   0.48942   0.00000  Uiso   1.00
C474   C     0.07999   0.78214   0.67591   0.00000  Uiso   1.00
C475   C     0.08864   0.66176   0.66327   0.00000  Uiso   1.00
C476   C     0.05648   0.57675   0.67018   0.00000  Uiso   1.00
C477   C     0.07117   0.47236   0.65625   0.00000  Uiso   1.00
C478   C     0.11990   0.81537   0.71130   0.00000  Uiso   1.00
C479   C     0.11402   0.85953   0.75860   0.00000  Uiso   1.00
C480   C     0.15500   0.88446   0.78511   0.00000  Uiso   1.00
C481   C     0.08849   0.84585   0.62779   0.00000  Uiso   1.00
C482   C     0.05621   0.91565   0.60488   0.00000  Uiso   1.00
C483   C     0.07076   0.96628   0.56108   0.00000  Uiso   1.00
H484   H     0.19846   0.73345   0.62321   0.00000  Uiso   1.00
H485   H     0.18360   0.52453   0.61364   0.00000  Uiso   1.00
H486   H     0.24112   0.80728   0.70205   0.00000  Uiso   1.00
H487   H     0.18332   0.86340   0.54834   0.00000  Uiso   1.00
H488   H     0.14719   0.30110   0.61192   0.00000  Uiso   1.00
H489   H     0.26847   0.89731   0.79832   0.00000  Uiso   1.00
H490   H     0.14659   0.01566   0.47421   0.00000  Uiso   1.00
H491   H     0.04479   0.79662   0.69157   0.00000  Uiso   1.00
H492   H     0.02149   0.59116   0.68575   0.00000  Uiso   1.00
H493   H     0.07901   0.87390   0.77416   0.00000  Uiso   1.00
H494   H     0.02121   0.93002   0.62046   0.00000  Uiso   1.00
H495   H     0.01562   0.35517   0.67045   0.00000  Uiso   1.00
H496   H     0.13690   0.95139   0.85685   0.00000  Uiso   1.00
H497   H     0.01502   0.06973   0.53274   0.00000  Uiso   1.00
O498   O     0.06886   0.19183   0.63614   0.00000  Uiso   1.00
O499   O     0.22798   0.97407   0.88068   0.00000  Uiso   1.00
O500   O     0.06807   0.12932   0.45545   0.00000  Uiso   1.00
N501   N     0.11941   0.34202   0.62649   0.00000  Uiso   1.00
N502   N     0.23281   0.89944   0.80076   0.00000  Uiso   1.00
N503   N     0.11887   0.01010   0.49775   0.00000  Uiso   1.00
N504   N     0.04862   0.37112   0.65798   0.00000  Uiso   1.00
N505   N     0.16201   0.92853   0.83225   0.00000  Uiso   1.00
N506   N     0.04807   0.03919   0.52924   0.00000  Uiso   1.00
C507   C     0.66325   0.24792   0.13887   0.00000  Uiso   1.00
C508   C     0.63387   0.14317   0.14315   0.00000  Uiso   1.00
C509   C     0.64860   0.03889   0.12921   0.00000  Uiso   1.00
C510   C     0.61647   0.95374   0.13610   0.00000  Uiso   1.00
C511   C     0.57773   0.78825   0.13971   0.00000  Uiso   1.00
C512   C     0.66512   0.29678   0.19118   0.00000  Uiso   1.00
C513   C     0.70613   0.32166   0.21763   0.00000  Uiso   1.00
C514   C     0.70031   0.36584   0.26496   0.00000  Uiso   1.00
C515   C     0.71009   0.43891   0.34312   0.00000  Uiso   1.00
C516   C     0.63371   0.32726   0.10767   0.00000  Uiso   1.00
C517   C     0.64832   0.37780   0.06390   0.00000  Uiso   1.00
C518   C     0.61606   0.44766   0.04092   0.00000  Uiso   1.00
C519   C     0.57708   0.56806   0.98942   0.00000  Uiso   1.00
C520   C     0.57999   0.28214   0.17591   0.00000  Uiso   1.00
C521   C     0.58864   0.16176   0.16327   0.00000  Uiso   1.00
C522   C     0.55648   0.07675   0.17018   0.00000  Uiso   1.00
C523   C     0.57117   0.97236   0.15625   0.00000  Uiso   1.00
C524   C     0.61990   0.31537   0.21130   0.00000  Uiso   1.00
C525   C     0.61402   0.35953   0.25860   0.00000  Uiso   1.00
C526   C     0.65500   0.38446   0.28511   0.00000  Uiso   1.00
C527   C     0.58849   0.34585   0.12779   0.00000  Uiso   1.00
C528   C     0.55621   0.41565   0.10488   0.00000  Uiso   1.00
C529   C     0.57076   0.46628   0.06108   0.00000  Uiso   1.00
H530   H     0.69846   0.23345   0.12321   0.00000  Uiso   1.00
H531   H     0.68360   0.02453   0.11364   0.00000  Uiso   1.00
H532   H     0.74112   0.30728   0.20205   0.00000  Uiso   1.00
H533   H     0.68332   0.36340   0.04834   0.00000  Uiso   1.00
H534   H     0.64719   0.80110   0.11192   0.00000  Uiso   1.00
H535   H     0.76847   0.39731   0.29832   0.00000  Uiso   1.00
H536   H     0.64659   0.51566   0.97421   0.00000  Uiso   1.00
H537   H     0.54479   0.29662   0.19157   0.00000  Uiso   1.00
H538   H     0.52149   0.09116   0.18575   0.00000  Uiso   1.00
H539   H     0.57901   0.37390   0.27416   0.00000  Uiso   1.00
H540   H     0.52121   0.43002   0.12046   0.00000  Uiso   1.00
H541   H     0.51562   0.85517   0.17045   0.00000  Uiso   1.00
H542   H     0.63690   0.45139   0.35685   0.00000  Uiso   1.00
H543   H     0.51502   0.56973   0.03274   0.00000  Uiso   1.00
O544   O     0.56886   0.69183   0.13614   0.00000  Uiso   1.00
O545   O     0.72798   0.47407   0.38068   0.00000  Uiso   1.00
O546   O     0.56807   0.62932   0.95545   0.00000  Uiso   1.00
N547   N     0.61941   0.84202   0.12649   0.00000  Uiso   1.00
N548   N     0.73281   0.39944   0.30076   0.00000  Uiso   1.00
N549   N     0.61887   0.51010   0.99775   0.00000  Uiso   1.00
N550   N     0.54862   0.87112   0.15798   0.00000  Uiso   1.00
N551   N     0.66201   0.42853   0.33225   0.00000  Uiso   1.00
N552   N     0.54807   0.53919   0.02924   0.00000  Uiso   1.00
C553   C     0.66325   0.75208   0.36113   0.00000  Uiso   1.00
C554   C     0.63387   0.85683   0.35685   0.00000  Uiso   1.00
C555   C     0.64860   0.96111   0.37079   0.00000  Uiso   1.00
C556   C     0.61647   0.04626   0.36390   0.00000  Uiso   1.00
C557   C     0.57773   0.21175   0.36029   0.00000  Uiso   1.00
C558   C     0.66512   0.70322   0.30882   0.00000  Uiso   1.00
C559   C     0.70613   0.67834   0.28237   0.00000  Uiso   1.00
C560   C     0.70031   0.63416   0.23504   0.00000  Uiso   1.00
C561   C     0.71009   0.56109   0.15688   0.00000  Uiso   1.00
C562   C     0.63371   0.67274   0.39233   0.00000  Uiso   1.00
C563   C     0.64832   0.62220   0.43610   0.00000  Uiso   1.00
C564   C     0.61606   0.55234   0.45908   0.00000  Uiso   1.00
C565   C     0.57708   0.43194   0.51058   0.00000  Uiso   1.00
C566   C     0.57999   0.71786   0.32409   0.00000  Uiso   1.00
C567   C     0.58864   0.83824   0.33673   0.00000  Uiso   1.00
C568   C     0.55648   0.92325   0.32982   0.00000  Uiso   1.00
C569   C     0.57117   0.02764   0.34375   0.00000  Uiso   1.00
C570   C     0.61990   0.68463   0.28870   0.00000  Uiso   1.00
C571   C     0.61402   0.64047   0.24140   0.00000  Uiso   1.00
C572   C     0.65500   0.61554   0.21489   0.00000  Uiso   1.00
C573   C     0.58849   0.65415   0.37221   0.00000  Uiso   1.00
C574   C     0.55621   0.58435   0.39512   0.00000  Uiso   1.00
C575   C     0.57076   0.53372   0.43892   0.00000  Uiso   1.00
H576   H     0.69846   0.76655   0.37679   0.00000  Uiso   1.00
H577   H     0.68360   0.97547   0.38636   0.00000  Uiso   1.00
H578   H     0.74112   0.69272   0.29795   0.00000  Uiso   1.00
H579   H     0.68332   0.63660   0.45166   0.00000  Uiso   1.00
H580   H     0.64719   0.19890   0.38808   0.00000  Uiso   1.00
H581   H     0.76847   0.60269   0.20168   0.00000  Uiso   1.00
H582   H     0.64659   0.48434   0.52579   0.00000  Uiso   1.00
H583   H     0.54479   0.70338   0.30843   0.00000  Uiso   1.00
H584   H     0.52149   0.90884   0.31425   0.00000  Uiso   1.00
H585   H     0.57901   0.62610   0.22584   0.00000  Uiso   1.00
H586   H     0.52121   0.56998   0.37954   0.00000  Uiso   1.00
H587   H     0.51562   0.14483   0.32955   0.00000  Uiso   1.00
H588   H     0.63690   0.54861   0.14315   0.00000  Uiso   1.00
H589   H     0.51502   0.43027   0.46726   0.00000  Uiso   1.00
O590   O     0.56886   0.30817   0.36386   0.00000  Uiso   1.00
O591   O     0.72798   0.52593   0.11932   0.00000  Uiso   1.00
O592   O     0.56807   0.37068   0.54455   0.00000  Uiso   1.00
N593   N     0.61941   0.15798   0.37351   0.00000  Uiso   1.00
N594   N     0.73281   0.60056   0.19924   0.00000  Uiso   1.00
N595   N     0.61887   0.48990   0.50225   0.00000  Uiso   1.00
N596   N     0.54862   0.12888   0.34202   0.00000  Uiso   1.00
N597   N     0.66201   0.57147   0.16775   0.00000  Uiso   1.00
N598   N     0.54807   0.46081   0.47076   0.00000  Uiso   1.00
C599   C     0.16325   0.25208   0.86113   0.00000  Uiso   1.00
C600   C     0.13387   0.35683   0.85685   0.00000  Uiso   1.00
C601   C     0.14860   0.46111   0.87079   0.00000  Uiso   1.00
C602   C     0.11647   0.54626   0.86390   0.00000  Uiso   1.00
C603   C     0.07773   0.71175   0.86029   0.00000  Uiso   1.00
C604   C     0.16512   0.20322   0.80882   0.00000  Uiso   1.00
C605   C     0.20613   0.17834   0.78237   0.00000  Uiso   1.00
C606   C     0.20031   0.13416   0.73504   0.00000  Uiso   1.00
C607   C     0.21009   0.06109   0.65688   0.00000  Uiso   1.00
C608   C     0.13371   0.17274   0.89233   0.00000  Uiso   1.00
C609   C     0.14832   0.12220   0.93610   0.00000  Uiso   1.00
C610   C     0.11606   0.05234   0.95908   0.00000  Uiso   1.00
C611   C     0.07708   0.93194   0.01058   0.00000  Uiso   1.00
C612   C     0.07999   0.21786   0.82409   0.00000  Uiso   1.00
C613   C     0.08864   0.33824   0.83673   0.00000  Uiso   1.00
C614   C     0.05648   0.42325   0.82982   0.00000  Uiso   1.00
C615   C     0.07117   0.52764   0.84375   0.00000  Uiso   1.00
C616   C     0.11990   0.18463   0.78870   0.00000  Uiso   1.00
C617   C     0.11402   0.14047   0.74140   0.00000  Uiso   1.00
C618   C     0.15500   0.11554   0.71489   0.00000  Uiso   1.00
C619   C     0.08849   0.15415   0.87221   0.00000  Uiso   1.00
C620   C     0.05621   0.08435   0.89512   0.00000  Uiso   1.00
C621   C     0.07076   0.03372   0.93892   0.00000  Uiso   1.00
H622   H     0.19846   0.26655   0.87679   0.00000  Uiso   1.00
H623   H     0.18360   0.47547   0.88636   0.00000  Uiso   1.00
H624   H     0.24112   0.19272   0.79795   0.00000  Uiso   1.00
H625   H     0.18332   0.13660   0.95166   0.00000  Uiso   1.00
H626   H     0.14719   0.69890   0.88808   0.00000  Uiso   1.00
H627   H     0.26847   0.10269   0.70168   0.00000  Uiso   1.00
H628   H     0.14659   0.98434   0.02579   0.00000  Uiso   1.00
H629   H     0.04479   0.20338   0.80843   0.00000  Uiso   1.00
H630   H     0.02149   0.40884   0.81425   0.00000  Uiso   1.00
H631   H     0.07901   0.12610   0.72584   0.00000  Uiso   1.00
H632   H     0.02121   0.06998   0.87954   0.00000  Uiso   1.00
H633   H     0.01562   0.64483   0.82955   0.00000  Uiso   1.00
H634   H     0.13690   0.04861   0.64315   0.00000  Uiso   1.00
H635   H     0.01502   0.93027   0.96726   0.00000  Uiso   1.00
O636   O     0.06886   0.80817   0.86386   0.00000  Uiso   1.00
O637   O     0.22798   0.02593   0.61932   0.00000  Uiso   1.00
O638   O     0.06807   0.87068   0.04455   0.00000  Uiso   1.00
N639   N     0.11941   0.65798   0.87351   0.00000  Uiso   1.00
N640   N     0.23281   0.10056   0.69924   0.00000  Uiso   1.00
N641   N     0.11887   0.98990   0.00225   0.00000  Uiso   1.00
N642   N     0.04862   0.62888   0.84202   0.00000  Uiso   1.00
N643   N     0.16201   0.07147   0.66775   0.00000  Uiso   1.00
N644   N     0.04807   0.96081   0.97076   0.00000  Uiso   1.00
C645   C     0.83675   0.24792   0.86113   0.00000  Uiso   1.00
C646   C     0.86613   0.14317   0.85685   0.00000  Uiso   1.00
C647   C     0.85140   0.03889   0.87079   0.00000  Uiso   1.00
C648   C     0.88353   0.95374   0.86390   0.00000  Uiso   1.00
C649   C     0.92227   0.78825   0.86029   0.00000  Uiso   1.00
C650   C     0.83488   0.29678   0.80882   0.00000  Uiso   1.00
C651   C     0.79387   0.32166   0.78237   0.00000  Uiso   1.00
C652   C     0.79969   0.36584   0.73504   0.00000  Uiso   1.00
C653   C     0.78991   0.43891   0.65688   0.00000  Uiso   1.00
C654   C     0.86629   0.32726   0.89233   0.00000  Uiso   1.00
C655   C     0.85168   0.37780   0.93610   0.00000  Uiso   1.00
C656   C     0.88394   0.44766   0.95908   0.00000  Uiso   1.00
C657   C     0.92292   0.56806   0.01058   0.00000  Uiso   1.00
C658   C     0.92001   0.28214   0.82409   0.00000  Uiso   1.00
C659   C     0.91136   0.16176   0.83673   0.00000  Uiso   1.00
C660   C     0.94352   0.07675   0.82982   0.00000  Uiso   1.00
C661   C     0.92883   0.97236   0.84375   0.00000  Uiso   1.00
C662   C     0.88010   0.31537   0.78870   0.00000  Uiso   1.00
C663   C     0.88598   0.35953   0.74140   0.00000  Uiso   1.00
C664   C     0.84500   0.38446   0.71489   0.00000  Uiso   1.00
C665   C     0.91151   0.34585   0.87221   0.00000  Uiso   1.00
C666   C     0.94379   0.41565   0.89512   0.00000  Uiso   1.00
C667   C     0.92924   0.46628   0.93892   0.00000  Uiso   1.00
H668   H     0.80154   0.23345   0.87679   0.00000  Uiso   1.00
H669   H     0.81640   0.02453   0.88636   0.00000  Uiso   1.00
H670   H     0.75888   0.30728   0.79795   0.00000  Uiso   1.00
H671   H     0.81668   0.36340   0.95166   0.00000  Uiso   1.00
H672   H     0.85281   0.80110   0.88808   0.00000  Uiso   1.00
H673   H     0.73153   0.39731   0.70168   0.00000  Uiso   1.00
H674   H     0.85341   0.51566   0.02579   0.00000  Uiso   1.00
H675   H     0.95521   0.29662   0.80843   0.00000  Uiso   1.00
H676   H     0.97851   0.09116   0.81425   0.00000  Uiso   1.00
H677   H     0.92099   0.37390   0.72584   0.00000  Uiso   1.00
H678   H     0.97879   0.43002   0.87954   0.00000  Uiso   1.00
H679   H     0.98438   0.85517   0.82955   0.00000  Uiso   1.00
H680   H     0.86310   0.45139   0.64315   0.00000  Uiso   1.00
H681   H     0.98498   0.56973   0.96726   0.00000  Uiso   1.00
O682   O     0.93114   0.69183   0.86386   0.00000  Uiso   1.00
O683   O     0.77202   0.47407   0.61932   0.00000  Uiso   1.00
O684   O     0.93193   0.62932   0.04455   0.00000  Uiso   1.00
N685   N     0.88059   0.84202   0.87351   0.00000  Uiso   1.00
N686   N     0.76719   0.39944   0.69924   0.00000  Uiso   1.00
N687   N     0.88113   0.51010   0.00225   0.00000  Uiso   1.00
N688   N     0.95138   0.87112   0.84202   0.00000  Uiso   1.00
N689   N     0.83799   0.42853   0.66775   0.00000  Uiso   1.00
N690   N     0.95193   0.53919   0.97076   0.00000  Uiso   1.00
C691   C     0.33675   0.74792   0.36113   0.00000  Uiso   1.00
C692   C     0.36613   0.64317   0.35685   0.00000  Uiso   1.00
C693   C     0.35140   0.53889   0.37079   0.00000  Uiso   1.00
C694   C     0.38353   0.45374   0.36390   0.00000  Uiso   1.00
C695   C     0.42227   0.28825   0.36029   0.00000  Uiso   1.00
C696   C     0.33488   0.79678   0.30882   0.00000  Uiso   1.00
C697   C     0.29387   0.82166   0.28237   0.00000  Uiso   1.00
C698   C     0.29969   0.86584   0.23504   0.00000  Uiso   1.00
C699   C     0.28991   0.93891   0.15688   0.00000  Uiso   1.00
C700   C     0.36629   0.82726   0.39233   0.00000  Uiso   1.00
C701   C     0.35168   0.87780   0.43610   0.00000  Uiso   1.00
C702   C     0.38394   0.94766   0.45908   0.00000  Uiso   1.00
C703   C     0.42292   0.06806   0.51058   0.00000  Uiso   1.00
C704   C     0.42001   0.78214   0.32409   0.00000  Uiso   1.00
C705   C     0.41136   0.66176   0.33673   0.00000  Uiso   1.00
C706   C     0.44352   0.57675   0.32982   0.00000  Uiso   1.00
C707   C     0.42883   0.47236   0.34375   0.00000  Uiso   1.00
C708   C     0.38010   0.81537   0.28870   0.00000  Uiso   1.00
C709   C     0.38598   0.85953   0.24140   0.00000  Uiso   1.00
C710   C     0.34500   0.88446   0.21489   0.00000  Uiso   1.00
C711   C     0.41151   0.84585   0.37221   0.00000  Uiso   1.00
C712   C     0.44379   0.91565   0.39512   0.00000  Uiso   1.00
C713   C     0.42924   0.96628   0.43892   0.00000  Uiso   1.00
H714   H     0.30154   0.73345   0.37679   0.00000  Uiso   1.00
H715   H     0.31640   0.52453   0.38636   0.00000  Uiso   1.00
H716   H     0.25888   0.80728   0.29795   0.00000  Uiso   1.00
H717   H     0.31668   0.86340   0.45166   0.00000  Uiso   1.00
H718   H     0.35281   0.30110   0.38808   0.00000  Uiso   1.00
H719   H     0.23153   0.89731   0.20168   0.00000  Uiso   1.00
H720   H     0.35341   0.01566   0.52579   0.00000  Uiso   1.00
H721   H     0.45521   0.79662   0.30843   0.00000  Uiso   1.00
H722   H     0.47851   0.59116   0.31425   0.00000  Uiso   1.00
H723   H     0.42099   0.87390   0.22584   0.00000  Uiso   1.00
H724   H     0.47879   0.93002   0.37954   0.00000  Uiso   1.00
H725   H     0.48438   0.35517   0.32955   0.00000  Uiso   1.00
H726   H     0.36310   0.95139   0.14315   0.00000  Uiso   1.00
H727   H     0.48498   0.06973   0.46726   0.00000  Uiso   1.00
O728   O     0.43114   0.19183   0.36386   0.00000  Uiso   1.00
O729   O     0.27202   0.97407   0.11932   0.00000  Uiso   1.00
O730   O     0.43193   0.12932   0.54455   0.00000  Uiso   1.00
N731   N     0.38059   0.34202   0.37351   0.00000  Uiso   1.00
N732   N     0.26719   0.89944   0.19924   0.00000  Uiso   1.00
N733   N     0.38113   0.01010   0.50225   0.00000  Uiso   1.00
N734   N     0.45138   0.37112   0.34202   0.00000  Uiso   1.00
N735   N     0.33799   0.92853   0.16775   0.00000  Uiso   1.00
N736   N     0.45193   0.03919   0.47076   0.00000  Uiso   1.00
