data_job_01917
_audit_creation_date              2018-12-19
_audit_creation_method            'Materials Studio'
_symmetry_space_group_name_H-M    'P1'
_symmetry_Int_Tables_number       1
_symmetry_cell_setting            triclinic
loop_
_symmetry_equiv_pos_as_xyz
  x,y,z
_cell_length_a                    30.0135
_cell_length_b                    30.0135
_cell_length_c                    12.4196
_cell_angle_alpha                 90.0000
_cell_angle_beta                  90.0000
_cell_angle_gamma                 90.0000
loop_
_atom_site_label
_atom_site_type_symbol
_atom_site_fract_x
_atom_site_fract_y
_atom_site_fract_z
_atom_site_U_iso_or_equiv
_atom_site_adp_type
_atom_site_occupancy
C1     C     0.14715   0.56222   0.54665   0.00000  Uiso   1.00
C2     C     0.19242   0.58517   0.55250   0.00000  Uiso   1.00
C3     C     0.20065   0.62971   0.53013   0.00000  Uiso   1.00
C4     C     0.24436   0.64429   0.54016   0.00000  Uiso   1.00
C5     C     0.30945   0.68431   0.54444   0.00000  Uiso   1.00
C6     C     0.15292   0.52314   0.46943   0.00000  Uiso   1.00
C7     C     0.12793   0.51554   0.37722   0.00000  Uiso   1.00
C8     C     0.13838   0.47790   0.31733   0.00000  Uiso   1.00
C9     C     0.14212   0.42162   0.19268   0.00000  Uiso   1.00
C10    C     0.13928   0.54181   0.65746   0.00000  Uiso   1.00
C11    C     0.10282   0.54990   0.72335   0.00000  Uiso   1.00
C12    C     0.10179   0.52797   0.82176   0.00000  Uiso   1.00
C13    C     0.08435   0.50068   0.98906   0.00000  Uiso   1.00
C14    C     0.21014   0.50889   0.60424   0.00000  Uiso   1.00
C15    C     0.22663   0.55620   0.58378   0.00000  Uiso   1.00
C16    C     0.27034   0.57071   0.59386   0.00000  Uiso   1.00
C17    C     0.27863   0.61527   0.57150   0.00000  Uiso   1.00
C18    C     0.18713   0.49418   0.50071   0.00000  Uiso   1.00
C19    C     0.19762   0.45654   0.44095   0.00000  Uiso   1.00
C20    C     0.17265   0.44888   0.34867   0.00000  Uiso   1.00
C21    C     0.17350   0.51285   0.68875   0.00000  Uiso   1.00
C22    C     0.17251   0.49090   0.78707   0.00000  Uiso   1.00
C23    C     0.13606   0.49895   0.85309   0.00000  Uiso   1.00
H24    H     0.12052   0.58477   0.52229   0.00000  Uiso   1.00
H25    H     0.17416   0.65212   0.50591   0.00000  Uiso   1.00
H26    H     0.10145   0.53796   0.35304   0.00000  Uiso   1.00
H27    H     0.07635   0.57232   0.69911   0.00000  Uiso   1.00
H28    H     0.24873   0.71401   0.50152   0.00000  Uiso   1.00
H29    H     0.09540   0.47329   0.17919   0.00000  Uiso   1.00
H30    H     0.04248   0.54574   0.90895   0.00000  Uiso   1.00
H31    H     0.23678   0.48634   0.62860   0.00000  Uiso   1.00
H32    H     0.29681   0.54829   0.61807   0.00000  Uiso   1.00
H33    H     0.22409   0.43413   0.46518   0.00000  Uiso   1.00
H34    H     0.19899   0.46849   0.81125   0.00000  Uiso   1.00
H35    H     0.34828   0.62973   0.59254   0.00000  Uiso   1.00
H36    H     0.19494   0.38902   0.27021   0.00000  Uiso   1.00
H37    H     0.14202   0.46146   0.99997   0.00000  Uiso   1.00
O38    O     0.33590   0.71439   0.53815   0.00000  Uiso   1.00
O39    O     0.13473   0.39858   0.11528   0.00000  Uiso   1.00
O40    O     0.06529   0.49363   0.07270   0.00000  Uiso   1.00
N41    N     0.26392   0.68567   0.52441   0.00000  Uiso   1.00
N42    N     0.12057   0.46062   0.22304   0.00000  Uiso   1.00
N43    N     0.07108   0.52835   0.90529   0.00000  Uiso   1.00
N44    N     0.31748   0.64033   0.57339   0.00000  Uiso   1.00
N45    N     0.17413   0.41528   0.27202   0.00000  Uiso   1.00
N46    N     0.12465   0.48300   0.95427   0.00000  Uiso   1.00
C47    C     0.64715   0.06222   0.04665   0.00000  Uiso   1.00
C48    C     0.69242   0.08517   0.05250   0.00000  Uiso   1.00
C49    C     0.70065   0.12971   0.03013   0.00000  Uiso   1.00
C50    C     0.74436   0.14429   0.04016   0.00000  Uiso   1.00
C51    C     0.80945   0.18431   0.04444   0.00000  Uiso   1.00
C52    C     0.65292   0.02314   0.96943   0.00000  Uiso   1.00
C53    C     0.62793   0.01554   0.87722   0.00000  Uiso   1.00
C54    C     0.63838   0.97790   0.81733   0.00000  Uiso   1.00
C55    C     0.64212   0.92162   0.69268   0.00000  Uiso   1.00
C56    C     0.63928   0.04181   0.15746   0.00000  Uiso   1.00
C57    C     0.60282   0.04990   0.22335   0.00000  Uiso   1.00
C58    C     0.60179   0.02797   0.32176   0.00000  Uiso   1.00
C59    C     0.58435   0.00068   0.48906   0.00000  Uiso   1.00
C60    C     0.71014   0.00889   0.10424   0.00000  Uiso   1.00
C61    C     0.72663   0.05620   0.08378   0.00000  Uiso   1.00
C62    C     0.77034   0.07071   0.09386   0.00000  Uiso   1.00
C63    C     0.77863   0.11527   0.07150   0.00000  Uiso   1.00
C64    C     0.68713   0.99418   0.00071   0.00000  Uiso   1.00
C65    C     0.69762   0.95654   0.94095   0.00000  Uiso   1.00
C66    C     0.67265   0.94888   0.84867   0.00000  Uiso   1.00
C67    C     0.67350   0.01285   0.18875   0.00000  Uiso   1.00
C68    C     0.67251   0.99090   0.28707   0.00000  Uiso   1.00
C69    C     0.63606   0.99895   0.35309   0.00000  Uiso   1.00
H70    H     0.62052   0.08477   0.02229   0.00000  Uiso   1.00
H71    H     0.67416   0.15212   0.00591   0.00000  Uiso   1.00
H72    H     0.60145   0.03796   0.85304   0.00000  Uiso   1.00
H73    H     0.57635   0.07232   0.19911   0.00000  Uiso   1.00
H74    H     0.74873   0.21401   0.00152   0.00000  Uiso   1.00
H75    H     0.59540   0.97329   0.67919   0.00000  Uiso   1.00
H76    H     0.54248   0.04574   0.40895   0.00000  Uiso   1.00
H77    H     0.73678   0.98634   0.12860   0.00000  Uiso   1.00
H78    H     0.79681   0.04829   0.11807   0.00000  Uiso   1.00
H79    H     0.72409   0.93413   0.96518   0.00000  Uiso   1.00
H80    H     0.69899   0.96849   0.31125   0.00000  Uiso   1.00
H81    H     0.84828   0.12973   0.09254   0.00000  Uiso   1.00
H82    H     0.69494   0.88902   0.77021   0.00000  Uiso   1.00
H83    H     0.64202   0.96146   0.49997   0.00000  Uiso   1.00
O84    O     0.83590   0.21439   0.03815   0.00000  Uiso   1.00
O85    O     0.63473   0.89858   0.61528   0.00000  Uiso   1.00
O86    O     0.56529   0.99363   0.57270   0.00000  Uiso   1.00
N87    N     0.76392   0.18567   0.02441   0.00000  Uiso   1.00
N88    N     0.62057   0.96062   0.72304   0.00000  Uiso   1.00
N89    N     0.57108   0.02835   0.40529   0.00000  Uiso   1.00
N90    N     0.81748   0.14033   0.07339   0.00000  Uiso   1.00
N91    N     0.67413   0.91528   0.77202   0.00000  Uiso   1.00
N92    N     0.62465   0.98300   0.45427   0.00000  Uiso   1.00
C93    C     0.85285   0.43778   0.54665   0.00000  Uiso   1.00
C94    C     0.80758   0.41483   0.55250   0.00000  Uiso   1.00
C95    C     0.79935   0.37029   0.53013   0.00000  Uiso   1.00
C96    C     0.75564   0.35571   0.54016   0.00000  Uiso   1.00
C97    C     0.69055   0.31569   0.54444   0.00000  Uiso   1.00
C98    C     0.84708   0.47686   0.46943   0.00000  Uiso   1.00
C99    C     0.87207   0.48446   0.37722   0.00000  Uiso   1.00
C100   C     0.86162   0.52210   0.31733   0.00000  Uiso   1.00
C101   C     0.85788   0.57838   0.19268   0.00000  Uiso   1.00
C102   C     0.86072   0.45819   0.65746   0.00000  Uiso   1.00
C103   C     0.89718   0.45010   0.72335   0.00000  Uiso   1.00
C104   C     0.89821   0.47203   0.82176   0.00000  Uiso   1.00
C105   C     0.91565   0.49932   0.98906   0.00000  Uiso   1.00
C106   C     0.78986   0.49111   0.60424   0.00000  Uiso   1.00
C107   C     0.77337   0.44380   0.58378   0.00000  Uiso   1.00
C108   C     0.72966   0.42929   0.59386   0.00000  Uiso   1.00
C109   C     0.72137   0.38473   0.57150   0.00000  Uiso   1.00
C110   C     0.81287   0.50582   0.50071   0.00000  Uiso   1.00
C111   C     0.80238   0.54346   0.44095   0.00000  Uiso   1.00
C112   C     0.82735   0.55112   0.34867   0.00000  Uiso   1.00
C113   C     0.82650   0.48715   0.68875   0.00000  Uiso   1.00
C114   C     0.82749   0.50910   0.78707   0.00000  Uiso   1.00
C115   C     0.86394   0.50105   0.85309   0.00000  Uiso   1.00
H116   H     0.87948   0.41523   0.52229   0.00000  Uiso   1.00
H117   H     0.82584   0.34788   0.50591   0.00000  Uiso   1.00
H118   H     0.89855   0.46204   0.35304   0.00000  Uiso   1.00
H119   H     0.92365   0.42768   0.69911   0.00000  Uiso   1.00
H120   H     0.75127   0.28599   0.50152   0.00000  Uiso   1.00
H121   H     0.90460   0.52671   0.17919   0.00000  Uiso   1.00
H122   H     0.95752   0.45426   0.90895   0.00000  Uiso   1.00
H123   H     0.76322   0.51366   0.62860   0.00000  Uiso   1.00
H124   H     0.70319   0.45171   0.61807   0.00000  Uiso   1.00
H125   H     0.77591   0.56587   0.46518   0.00000  Uiso   1.00
H126   H     0.80101   0.53151   0.81125   0.00000  Uiso   1.00
H127   H     0.65172   0.37027   0.59254   0.00000  Uiso   1.00
H128   H     0.80506   0.61098   0.27021   0.00000  Uiso   1.00
H129   H     0.85798   0.53854   0.99997   0.00000  Uiso   1.00
O130   O     0.66410   0.28561   0.53815   0.00000  Uiso   1.00
O131   O     0.86527   0.60142   0.11528   0.00000  Uiso   1.00
O132   O     0.93471   0.50637   0.07270   0.00000  Uiso   1.00
N133   N     0.73608   0.31433   0.52441   0.00000  Uiso   1.00
N134   N     0.87943   0.53938   0.22304   0.00000  Uiso   1.00
N135   N     0.92892   0.47165   0.90529   0.00000  Uiso   1.00
N136   N     0.68252   0.35967   0.57339   0.00000  Uiso   1.00
N137   N     0.82587   0.58472   0.27202   0.00000  Uiso   1.00
N138   N     0.87535   0.51700   0.95427   0.00000  Uiso   1.00
C139   C     0.35285   0.93778   0.04665   0.00000  Uiso   1.00
C140   C     0.30758   0.91483   0.05250   0.00000  Uiso   1.00
C141   C     0.29935   0.87029   0.03013   0.00000  Uiso   1.00
C142   C     0.25564   0.85571   0.04016   0.00000  Uiso   1.00
C143   C     0.19055   0.81569   0.04444   0.00000  Uiso   1.00
C144   C     0.34708   0.97686   0.96943   0.00000  Uiso   1.00
C145   C     0.37207   0.98446   0.87722   0.00000  Uiso   1.00
C146   C     0.36162   0.02210   0.81733   0.00000  Uiso   1.00
C147   C     0.35788   0.07838   0.69268   0.00000  Uiso   1.00
C148   C     0.36072   0.95819   0.15746   0.00000  Uiso   1.00
C149   C     0.39718   0.95010   0.22335   0.00000  Uiso   1.00
C150   C     0.39821   0.97203   0.32176   0.00000  Uiso   1.00
C151   C     0.41565   0.99932   0.48906   0.00000  Uiso   1.00
C152   C     0.28986   0.99111   0.10424   0.00000  Uiso   1.00
C153   C     0.27337   0.94380   0.08378   0.00000  Uiso   1.00
C154   C     0.22966   0.92929   0.09386   0.00000  Uiso   1.00
C155   C     0.22137   0.88473   0.07150   0.00000  Uiso   1.00
C156   C     0.31287   0.00582   0.00071   0.00000  Uiso   1.00
C157   C     0.30238   0.04346   0.94095   0.00000  Uiso   1.00
C158   C     0.32735   0.05112   0.84867   0.00000  Uiso   1.00
C159   C     0.32650   0.98715   0.18875   0.00000  Uiso   1.00
C160   C     0.32749   0.00910   0.28707   0.00000  Uiso   1.00
C161   C     0.36394   0.00105   0.35309   0.00000  Uiso   1.00
H162   H     0.37948   0.91523   0.02229   0.00000  Uiso   1.00
H163   H     0.32584   0.84788   0.00591   0.00000  Uiso   1.00
H164   H     0.39855   0.96204   0.85304   0.00000  Uiso   1.00
H165   H     0.42365   0.92768   0.19911   0.00000  Uiso   1.00
H166   H     0.25127   0.78599   0.00152   0.00000  Uiso   1.00
H167   H     0.40460   0.02671   0.67919   0.00000  Uiso   1.00
H168   H     0.45752   0.95426   0.40895   0.00000  Uiso   1.00
H169   H     0.26322   0.01366   0.12860   0.00000  Uiso   1.00
H170   H     0.20319   0.95171   0.11807   0.00000  Uiso   1.00
H171   H     0.27591   0.06587   0.96518   0.00000  Uiso   1.00
H172   H     0.30101   0.03151   0.31125   0.00000  Uiso   1.00
H173   H     0.15172   0.87027   0.09254   0.00000  Uiso   1.00
H174   H     0.30506   0.11098   0.77021   0.00000  Uiso   1.00
H175   H     0.35798   0.03854   0.49997   0.00000  Uiso   1.00
O176   O     0.16410   0.78561   0.03815   0.00000  Uiso   1.00
O177   O     0.36527   0.10142   0.61528   0.00000  Uiso   1.00
O178   O     0.43471   0.00637   0.57270   0.00000  Uiso   1.00
N179   N     0.23608   0.81433   0.02441   0.00000  Uiso   1.00
N180   N     0.37943   0.03938   0.72304   0.00000  Uiso   1.00
N181   N     0.42892   0.97165   0.40529   0.00000  Uiso   1.00
N182   N     0.18252   0.85967   0.07339   0.00000  Uiso   1.00
N183   N     0.32587   0.08472   0.77202   0.00000  Uiso   1.00
N184   N     0.37535   0.01700   0.45427   0.00000  Uiso   1.00
C185   C     0.56222   0.85285   0.45335   0.00000  Uiso   1.00
C186   C     0.58517   0.80758   0.44750   0.00000  Uiso   1.00
C187   C     0.62971   0.79935   0.46987   0.00000  Uiso   1.00
C188   C     0.64429   0.75564   0.45984   0.00000  Uiso   1.00
C189   C     0.68431   0.69055   0.45556   0.00000  Uiso   1.00
C190   C     0.52314   0.84708   0.53057   0.00000  Uiso   1.00
C191   C     0.51554   0.87207   0.62278   0.00000  Uiso   1.00
C192   C     0.47790   0.86162   0.68267   0.00000  Uiso   1.00
C193   C     0.42162   0.85788   0.80732   0.00000  Uiso   1.00
C194   C     0.54181   0.86072   0.34254   0.00000  Uiso   1.00
C195   C     0.54990   0.89718   0.27665   0.00000  Uiso   1.00
C196   C     0.52797   0.89821   0.17824   0.00000  Uiso   1.00
C197   C     0.50068   0.91565   0.01094   0.00000  Uiso   1.00
C198   C     0.50889   0.78986   0.39576   0.00000  Uiso   1.00
C199   C     0.55620   0.77337   0.41622   0.00000  Uiso   1.00
C200   C     0.57071   0.72966   0.40614   0.00000  Uiso   1.00
C201   C     0.61527   0.72137   0.42850   0.00000  Uiso   1.00
C202   C     0.49418   0.81287   0.49929   0.00000  Uiso   1.00
C203   C     0.45654   0.80238   0.55905   0.00000  Uiso   1.00
C204   C     0.44888   0.82735   0.65133   0.00000  Uiso   1.00
C205   C     0.51285   0.82650   0.31125   0.00000  Uiso   1.00
C206   C     0.49090   0.82749   0.21293   0.00000  Uiso   1.00
C207   C     0.49895   0.86394   0.14691   0.00000  Uiso   1.00
H208   H     0.58477   0.87948   0.47771   0.00000  Uiso   1.00
H209   H     0.65212   0.82584   0.49409   0.00000  Uiso   1.00
H210   H     0.53796   0.89855   0.64696   0.00000  Uiso   1.00
H211   H     0.57232   0.92365   0.30089   0.00000  Uiso   1.00
H212   H     0.71401   0.75127   0.49848   0.00000  Uiso   1.00
H213   H     0.47329   0.90460   0.82081   0.00000  Uiso   1.00
H214   H     0.54574   0.95752   0.09105   0.00000  Uiso   1.00
H215   H     0.48634   0.76322   0.37140   0.00000  Uiso   1.00
H216   H     0.54829   0.70319   0.38193   0.00000  Uiso   1.00
H217   H     0.43413   0.77591   0.53482   0.00000  Uiso   1.00
H218   H     0.46849   0.80101   0.18875   0.00000  Uiso   1.00
H219   H     0.62973   0.65172   0.40746   0.00000  Uiso   1.00
H220   H     0.38902   0.80506   0.72979   0.00000  Uiso   1.00
H221   H     0.46146   0.85798   0.00003   0.00000  Uiso   1.00
O222   O     0.71439   0.66410   0.46185   0.00000  Uiso   1.00
O223   O     0.39858   0.86527   0.88472   0.00000  Uiso   1.00
O224   O     0.49363   0.93471   0.92730   0.00000  Uiso   1.00
N225   N     0.68567   0.73608   0.47559   0.00000  Uiso   1.00
N226   N     0.46062   0.87943   0.77696   0.00000  Uiso   1.00
N227   N     0.52835   0.92892   0.09471   0.00000  Uiso   1.00
N228   N     0.64033   0.68252   0.42661   0.00000  Uiso   1.00
N229   N     0.41528   0.82587   0.72798   0.00000  Uiso   1.00
N230   N     0.48300   0.87535   0.04573   0.00000  Uiso   1.00
C231   C     0.06222   0.35285   0.95335   0.00000  Uiso   1.00
C232   C     0.08517   0.30758   0.94750   0.00000  Uiso   1.00
C233   C     0.12971   0.29935   0.96987   0.00000  Uiso   1.00
C234   C     0.14429   0.25564   0.95984   0.00000  Uiso   1.00
C235   C     0.18431   0.19055   0.95556   0.00000  Uiso   1.00
C236   C     0.02314   0.34708   0.03057   0.00000  Uiso   1.00
C237   C     0.01554   0.37207   0.12278   0.00000  Uiso   1.00
C238   C     0.97790   0.36162   0.18267   0.00000  Uiso   1.00
C239   C     0.92162   0.35788   0.30732   0.00000  Uiso   1.00
C240   C     0.04181   0.36072   0.84254   0.00000  Uiso   1.00
C241   C     0.04990   0.39718   0.77665   0.00000  Uiso   1.00
C242   C     0.02797   0.39821   0.67824   0.00000  Uiso   1.00
C243   C     0.00068   0.41565   0.51094   0.00000  Uiso   1.00
C244   C     0.00889   0.28986   0.89576   0.00000  Uiso   1.00
C245   C     0.05620   0.27337   0.91622   0.00000  Uiso   1.00
C246   C     0.07071   0.22966   0.90614   0.00000  Uiso   1.00
C247   C     0.11527   0.22137   0.92850   0.00000  Uiso   1.00
C248   C     0.99418   0.31287   0.99929   0.00000  Uiso   1.00
C249   C     0.95654   0.30238   0.05905   0.00000  Uiso   1.00
C250   C     0.94888   0.32735   0.15133   0.00000  Uiso   1.00
C251   C     0.01285   0.32650   0.81125   0.00000  Uiso   1.00
C252   C     0.99090   0.32749   0.71293   0.00000  Uiso   1.00
C253   C     0.99895   0.36394   0.64691   0.00000  Uiso   1.00
H254   H     0.08477   0.37948   0.97771   0.00000  Uiso   1.00
H255   H     0.15212   0.32584   0.99409   0.00000  Uiso   1.00
H256   H     0.03796   0.39855   0.14696   0.00000  Uiso   1.00
H257   H     0.07232   0.42365   0.80089   0.00000  Uiso   1.00
H258   H     0.21401   0.25127   0.99848   0.00000  Uiso   1.00
H259   H     0.97329   0.40460   0.32081   0.00000  Uiso   1.00
H260   H     0.04574   0.45752   0.59105   0.00000  Uiso   1.00
H261   H     0.98634   0.26322   0.87140   0.00000  Uiso   1.00
H262   H     0.04829   0.20319   0.88193   0.00000  Uiso   1.00
H263   H     0.93413   0.27591   0.03482   0.00000  Uiso   1.00
H264   H     0.96849   0.30101   0.68875   0.00000  Uiso   1.00
H265   H     0.12973   0.15172   0.90746   0.00000  Uiso   1.00
H266   H     0.88902   0.30506   0.22979   0.00000  Uiso   1.00
H267   H     0.96146   0.35798   0.50003   0.00000  Uiso   1.00
O268   O     0.21439   0.16410   0.96185   0.00000  Uiso   1.00
O269   O     0.89858   0.36527   0.38472   0.00000  Uiso   1.00
O270   O     0.99363   0.43471   0.42730   0.00000  Uiso   1.00
N271   N     0.18567   0.23608   0.97559   0.00000  Uiso   1.00
N272   N     0.96062   0.37943   0.27696   0.00000  Uiso   1.00
N273   N     0.02835   0.42892   0.59471   0.00000  Uiso   1.00
N274   N     0.14033   0.18252   0.92661   0.00000  Uiso   1.00
N275   N     0.91528   0.32587   0.22798   0.00000  Uiso   1.00
N276   N     0.98300   0.37535   0.54573   0.00000  Uiso   1.00
C277   C     0.43778   0.14715   0.45335   0.00000  Uiso   1.00
C278   C     0.41483   0.19242   0.44750   0.00000  Uiso   1.00
C279   C     0.37029   0.20065   0.46987   0.00000  Uiso   1.00
C280   C     0.35571   0.24436   0.45984   0.00000  Uiso   1.00
C281   C     0.31569   0.30945   0.45556   0.00000  Uiso   1.00
C282   C     0.47686   0.15292   0.53057   0.00000  Uiso   1.00
C283   C     0.48446   0.12793   0.62278   0.00000  Uiso   1.00
C284   C     0.52210   0.13838   0.68267   0.00000  Uiso   1.00
C285   C     0.57838   0.14212   0.80732   0.00000  Uiso   1.00
C286   C     0.45819   0.13928   0.34254   0.00000  Uiso   1.00
C287   C     0.45010   0.10282   0.27665   0.00000  Uiso   1.00
C288   C     0.47203   0.10179   0.17824   0.00000  Uiso   1.00
C289   C     0.49932   0.08435   0.01094   0.00000  Uiso   1.00
C290   C     0.49111   0.21014   0.39576   0.00000  Uiso   1.00
C291   C     0.44380   0.22663   0.41622   0.00000  Uiso   1.00
C292   C     0.42929   0.27034   0.40614   0.00000  Uiso   1.00
C293   C     0.38473   0.27863   0.42850   0.00000  Uiso   1.00
C294   C     0.50582   0.18713   0.49929   0.00000  Uiso   1.00
C295   C     0.54346   0.19762   0.55905   0.00000  Uiso   1.00
C296   C     0.55112   0.17265   0.65133   0.00000  Uiso   1.00
C297   C     0.48715   0.17350   0.31125   0.00000  Uiso   1.00
C298   C     0.50910   0.17251   0.21293   0.00000  Uiso   1.00
C299   C     0.50105   0.13606   0.14691   0.00000  Uiso   1.00
H300   H     0.41523   0.12052   0.47771   0.00000  Uiso   1.00
H301   H     0.34788   0.17416   0.49409   0.00000  Uiso   1.00
H302   H     0.46204   0.10145   0.64696   0.00000  Uiso   1.00
H303   H     0.42768   0.07635   0.30089   0.00000  Uiso   1.00
H304   H     0.28599   0.24873   0.49848   0.00000  Uiso   1.00
H305   H     0.52671   0.09540   0.82081   0.00000  Uiso   1.00
H306   H     0.45426   0.04248   0.09105   0.00000  Uiso   1.00
H307   H     0.51366   0.23678   0.37140   0.00000  Uiso   1.00
H308   H     0.45171   0.29681   0.38193   0.00000  Uiso   1.00
H309   H     0.56587   0.22409   0.53482   0.00000  Uiso   1.00
H310   H     0.53151   0.19899   0.18875   0.00000  Uiso   1.00
H311   H     0.37027   0.34828   0.40746   0.00000  Uiso   1.00
H312   H     0.61098   0.19494   0.72979   0.00000  Uiso   1.00
H313   H     0.53854   0.14202   0.00003   0.00000  Uiso   1.00
O314   O     0.28561   0.33590   0.46185   0.00000  Uiso   1.00
O315   O     0.60142   0.13473   0.88472   0.00000  Uiso   1.00
O316   O     0.50637   0.06529   0.92730   0.00000  Uiso   1.00
N317   N     0.31433   0.26392   0.47559   0.00000  Uiso   1.00
N318   N     0.53938   0.12057   0.77696   0.00000  Uiso   1.00
N319   N     0.47165   0.07108   0.09471   0.00000  Uiso   1.00
N320   N     0.35967   0.31748   0.42661   0.00000  Uiso   1.00
N321   N     0.58472   0.17413   0.72798   0.00000  Uiso   1.00
N322   N     0.51700   0.12465   0.04573   0.00000  Uiso   1.00
C323   C     0.93778   0.64715   0.95335   0.00000  Uiso   1.00
C324   C     0.91483   0.69242   0.94750   0.00000  Uiso   1.00
C325   C     0.87029   0.70065   0.96987   0.00000  Uiso   1.00
C326   C     0.85571   0.74436   0.95984   0.00000  Uiso   1.00
C327   C     0.81569   0.80945   0.95556   0.00000  Uiso   1.00
C328   C     0.97686   0.65292   0.03057   0.00000  Uiso   1.00
C329   C     0.98446   0.62793   0.12278   0.00000  Uiso   1.00
C330   C     0.02210   0.63838   0.18267   0.00000  Uiso   1.00
C331   C     0.07838   0.64212   0.30732   0.00000  Uiso   1.00
C332   C     0.95819   0.63928   0.84254   0.00000  Uiso   1.00
C333   C     0.95010   0.60282   0.77665   0.00000  Uiso   1.00
C334   C     0.97203   0.60179   0.67824   0.00000  Uiso   1.00
C335   C     0.99932   0.58435   0.51094   0.00000  Uiso   1.00
C336   C     0.99111   0.71014   0.89576   0.00000  Uiso   1.00
C337   C     0.94380   0.72663   0.91622   0.00000  Uiso   1.00
C338   C     0.92929   0.77034   0.90614   0.00000  Uiso   1.00
C339   C     0.88473   0.77863   0.92850   0.00000  Uiso   1.00
C340   C     0.00582   0.68713   0.99929   0.00000  Uiso   1.00
C341   C     0.04346   0.69762   0.05905   0.00000  Uiso   1.00
C342   C     0.05112   0.67265   0.15133   0.00000  Uiso   1.00
C343   C     0.98715   0.67350   0.81125   0.00000  Uiso   1.00
C344   C     0.00910   0.67251   0.71293   0.00000  Uiso   1.00
C345   C     0.00105   0.63606   0.64691   0.00000  Uiso   1.00
H346   H     0.91523   0.62052   0.97771   0.00000  Uiso   1.00
H347   H     0.84788   0.67416   0.99409   0.00000  Uiso   1.00
H348   H     0.96204   0.60145   0.14696   0.00000  Uiso   1.00
H349   H     0.92768   0.57635   0.80089   0.00000  Uiso   1.00
H350   H     0.78599   0.74873   0.99848   0.00000  Uiso   1.00
H351   H     0.02671   0.59540   0.32081   0.00000  Uiso   1.00
H352   H     0.95426   0.54248   0.59105   0.00000  Uiso   1.00
H353   H     0.01366   0.73678   0.87140   0.00000  Uiso   1.00
H354   H     0.95171   0.79681   0.88193   0.00000  Uiso   1.00
H355   H     0.06587   0.72409   0.03482   0.00000  Uiso   1.00
H356   H     0.03151   0.69899   0.68875   0.00000  Uiso   1.00
H357   H     0.87027   0.84828   0.90746   0.00000  Uiso   1.00
H358   H     0.11098   0.69494   0.22979   0.00000  Uiso   1.00
H359   H     0.03854   0.64202   0.50003   0.00000  Uiso   1.00
O360   O     0.78561   0.83590   0.96185   0.00000  Uiso   1.00
O361   O     0.10142   0.63473   0.38472   0.00000  Uiso   1.00
O362   O     0.00637   0.56529   0.42730   0.00000  Uiso   1.00
N363   N     0.81433   0.76392   0.97559   0.00000  Uiso   1.00
N364   N     0.03938   0.62057   0.27696   0.00000  Uiso   1.00
N365   N     0.97165   0.57108   0.59471   0.00000  Uiso   1.00
N366   N     0.85967   0.81748   0.92661   0.00000  Uiso   1.00
N367   N     0.08472   0.67413   0.22798   0.00000  Uiso   1.00
N368   N     0.01700   0.62465   0.54573   0.00000  Uiso   1.00
C369   C     0.35285   0.56222   0.20335   0.00000  Uiso   1.00
C370   C     0.30758   0.58517   0.19750   0.00000  Uiso   1.00
C371   C     0.29935   0.62971   0.21987   0.00000  Uiso   1.00
C372   C     0.25564   0.64429   0.20984   0.00000  Uiso   1.00
C373   C     0.19055   0.68431   0.20556   0.00000  Uiso   1.00
C374   C     0.34708   0.52314   0.28057   0.00000  Uiso   1.00
C375   C     0.37207   0.51554   0.37278   0.00000  Uiso   1.00
C376   C     0.36162   0.47790   0.43267   0.00000  Uiso   1.00
C377   C     0.35788   0.42162   0.55732   0.00000  Uiso   1.00
C378   C     0.36072   0.54181   0.09254   0.00000  Uiso   1.00
C379   C     0.39718   0.54990   0.02665   0.00000  Uiso   1.00
C380   C     0.39821   0.52797   0.92824   0.00000  Uiso   1.00
C381   C     0.41565   0.50068   0.76094   0.00000  Uiso   1.00
C382   C     0.28986   0.50889   0.14576   0.00000  Uiso   1.00
C383   C     0.27337   0.55620   0.16622   0.00000  Uiso   1.00
C384   C     0.22966   0.57071   0.15614   0.00000  Uiso   1.00
C385   C     0.22137   0.61527   0.17850   0.00000  Uiso   1.00
C386   C     0.31287   0.49418   0.24929   0.00000  Uiso   1.00
C387   C     0.30238   0.45654   0.30905   0.00000  Uiso   1.00
C388   C     0.32735   0.44888   0.40133   0.00000  Uiso   1.00
C389   C     0.32650   0.51285   0.06125   0.00000  Uiso   1.00
C390   C     0.32749   0.49090   0.96293   0.00000  Uiso   1.00
C391   C     0.36394   0.49895   0.89691   0.00000  Uiso   1.00
H392   H     0.37948   0.58477   0.22771   0.00000  Uiso   1.00
H393   H     0.32584   0.65212   0.24409   0.00000  Uiso   1.00
H394   H     0.39855   0.53796   0.39696   0.00000  Uiso   1.00
H395   H     0.42365   0.57232   0.05089   0.00000  Uiso   1.00
H396   H     0.25127   0.71401   0.24848   0.00000  Uiso   1.00
H397   H     0.40460   0.47329   0.57081   0.00000  Uiso   1.00
H398   H     0.45752   0.54574   0.84105   0.00000  Uiso   1.00
H399   H     0.26322   0.48634   0.12140   0.00000  Uiso   1.00
H400   H     0.20319   0.54829   0.13193   0.00000  Uiso   1.00
H401   H     0.27591   0.43413   0.28482   0.00000  Uiso   1.00
H402   H     0.30101   0.46849   0.93875   0.00000  Uiso   1.00
H403   H     0.15172   0.62973   0.15746   0.00000  Uiso   1.00
H404   H     0.30506   0.38902   0.47979   0.00000  Uiso   1.00
H405   H     0.35798   0.46146   0.75003   0.00000  Uiso   1.00
O406   O     0.16410   0.71439   0.21185   0.00000  Uiso   1.00
O407   O     0.36527   0.39858   0.63472   0.00000  Uiso   1.00
O408   O     0.43471   0.49363   0.67730   0.00000  Uiso   1.00
N409   N     0.23608   0.68567   0.22559   0.00000  Uiso   1.00
N410   N     0.37943   0.46062   0.52696   0.00000  Uiso   1.00
N411   N     0.42892   0.52835   0.84471   0.00000  Uiso   1.00
N412   N     0.18252   0.64033   0.17661   0.00000  Uiso   1.00
N413   N     0.32587   0.41528   0.47798   0.00000  Uiso   1.00
N414   N     0.37535   0.48300   0.79573   0.00000  Uiso   1.00
C415   C     0.85285   0.06222   0.70335   0.00000  Uiso   1.00
C416   C     0.80758   0.08517   0.69750   0.00000  Uiso   1.00
C417   C     0.79935   0.12971   0.71987   0.00000  Uiso   1.00
C418   C     0.75564   0.14429   0.70984   0.00000  Uiso   1.00
C419   C     0.69055   0.18431   0.70556   0.00000  Uiso   1.00
C420   C     0.84708   0.02314   0.78057   0.00000  Uiso   1.00
C421   C     0.87207   0.01554   0.87278   0.00000  Uiso   1.00
C422   C     0.86162   0.97790   0.93267   0.00000  Uiso   1.00
C423   C     0.85788   0.92162   0.05732   0.00000  Uiso   1.00
C424   C     0.86072   0.04181   0.59254   0.00000  Uiso   1.00
C425   C     0.89718   0.04990   0.52665   0.00000  Uiso   1.00
C426   C     0.89821   0.02797   0.42824   0.00000  Uiso   1.00
C427   C     0.91565   0.00068   0.26094   0.00000  Uiso   1.00
C428   C     0.78986   0.00889   0.64576   0.00000  Uiso   1.00
C429   C     0.77337   0.05620   0.66622   0.00000  Uiso   1.00
C430   C     0.72966   0.07071   0.65614   0.00000  Uiso   1.00
C431   C     0.72137   0.11527   0.67850   0.00000  Uiso   1.00
C432   C     0.81287   0.99418   0.74929   0.00000  Uiso   1.00
C433   C     0.80238   0.95654   0.80905   0.00000  Uiso   1.00
C434   C     0.82735   0.94888   0.90133   0.00000  Uiso   1.00
C435   C     0.82650   0.01285   0.56125   0.00000  Uiso   1.00
C436   C     0.82749   0.99090   0.46293   0.00000  Uiso   1.00
C437   C     0.86394   0.99895   0.39691   0.00000  Uiso   1.00
H438   H     0.87948   0.08477   0.72771   0.00000  Uiso   1.00
H439   H     0.82584   0.15212   0.74409   0.00000  Uiso   1.00
H440   H     0.89855   0.03796   0.89696   0.00000  Uiso   1.00
H441   H     0.92365   0.07232   0.55089   0.00000  Uiso   1.00
H442   H     0.75127   0.21401   0.74848   0.00000  Uiso   1.00
H443   H     0.90460   0.97329   0.07081   0.00000  Uiso   1.00
H444   H     0.95752   0.04574   0.34105   0.00000  Uiso   1.00
H445   H     0.76322   0.98634   0.62140   0.00000  Uiso   1.00
H446   H     0.70319   0.04829   0.63193   0.00000  Uiso   1.00
H447   H     0.77591   0.93413   0.78482   0.00000  Uiso   1.00
H448   H     0.80101   0.96849   0.43875   0.00000  Uiso   1.00
H449   H     0.65172   0.12973   0.65746   0.00000  Uiso   1.00
H450   H     0.80506   0.88902   0.97979   0.00000  Uiso   1.00
H451   H     0.85798   0.96146   0.25003   0.00000  Uiso   1.00
O452   O     0.66410   0.21439   0.71185   0.00000  Uiso   1.00
O453   O     0.86527   0.89858   0.13472   0.00000  Uiso   1.00
O454   O     0.93471   0.99363   0.17730   0.00000  Uiso   1.00
N455   N     0.73608   0.18567   0.72559   0.00000  Uiso   1.00
N456   N     0.87943   0.96062   0.02696   0.00000  Uiso   1.00
N457   N     0.92892   0.02835   0.34471   0.00000  Uiso   1.00
N458   N     0.68252   0.14033   0.67661   0.00000  Uiso   1.00
N459   N     0.82587   0.91528   0.97798   0.00000  Uiso   1.00
N460   N     0.87535   0.98300   0.29573   0.00000  Uiso   1.00
C461   C     0.64715   0.43778   0.20335   0.00000  Uiso   1.00
C462   C     0.69242   0.41483   0.19750   0.00000  Uiso   1.00
C463   C     0.70065   0.37029   0.21987   0.00000  Uiso   1.00
C464   C     0.74436   0.35571   0.20984   0.00000  Uiso   1.00
C465   C     0.80945   0.31569   0.20556   0.00000  Uiso   1.00
C466   C     0.65292   0.47686   0.28057   0.00000  Uiso   1.00
C467   C     0.62793   0.48446   0.37278   0.00000  Uiso   1.00
C468   C     0.63838   0.52210   0.43267   0.00000  Uiso   1.00
C469   C     0.64212   0.57838   0.55732   0.00000  Uiso   1.00
C470   C     0.63928   0.45819   0.09254   0.00000  Uiso   1.00
C471   C     0.60282   0.45010   0.02665   0.00000  Uiso   1.00
C472   C     0.60179   0.47203   0.92824   0.00000  Uiso   1.00
C473   C     0.58435   0.49932   0.76094   0.00000  Uiso   1.00
C474   C     0.71014   0.49111   0.14576   0.00000  Uiso   1.00
C475   C     0.72663   0.44380   0.16622   0.00000  Uiso   1.00
C476   C     0.77034   0.42929   0.15614   0.00000  Uiso   1.00
C477   C     0.77863   0.38473   0.17850   0.00000  Uiso   1.00
C478   C     0.68713   0.50582   0.24929   0.00000  Uiso   1.00
C479   C     0.69762   0.54346   0.30905   0.00000  Uiso   1.00
C480   C     0.67265   0.55112   0.40133   0.00000  Uiso   1.00
C481   C     0.67350   0.48715   0.06125   0.00000  Uiso   1.00
C482   C     0.67251   0.50910   0.96293   0.00000  Uiso   1.00
C483   C     0.63606   0.50105   0.89691   0.00000  Uiso   1.00
H484   H     0.62052   0.41523   0.22771   0.00000  Uiso   1.00
H485   H     0.67416   0.34788   0.24409   0.00000  Uiso   1.00
H486   H     0.60145   0.46204   0.39696   0.00000  Uiso   1.00
H487   H     0.57635   0.42768   0.05089   0.00000  Uiso   1.00
H488   H     0.74873   0.28599   0.24848   0.00000  Uiso   1.00
H489   H     0.59540   0.52671   0.57081   0.00000  Uiso   1.00
H490   H     0.54248   0.45426   0.84105   0.00000  Uiso   1.00
H491   H     0.73678   0.51366   0.12140   0.00000  Uiso   1.00
H492   H     0.79681   0.45171   0.13193   0.00000  Uiso   1.00
H493   H     0.72409   0.56587   0.28482   0.00000  Uiso   1.00
H494   H     0.69899   0.53151   0.93875   0.00000  Uiso   1.00
H495   H     0.84828   0.37027   0.15746   0.00000  Uiso   1.00
H496   H     0.69494   0.61098   0.47979   0.00000  Uiso   1.00
H497   H     0.64202   0.53854   0.75003   0.00000  Uiso   1.00
O498   O     0.83590   0.28561   0.21185   0.00000  Uiso   1.00
O499   O     0.63473   0.60142   0.63472   0.00000  Uiso   1.00
O500   O     0.56529   0.50637   0.67730   0.00000  Uiso   1.00
N501   N     0.76392   0.31433   0.22559   0.00000  Uiso   1.00
N502   N     0.62057   0.53938   0.52696   0.00000  Uiso   1.00
N503   N     0.57108   0.47165   0.84471   0.00000  Uiso   1.00
N504   N     0.81748   0.35967   0.17661   0.00000  Uiso   1.00
N505   N     0.67413   0.58472   0.47798   0.00000  Uiso   1.00
N506   N     0.62465   0.51700   0.79573   0.00000  Uiso   1.00
C507   C     0.14715   0.93778   0.70335   0.00000  Uiso   1.00
C508   C     0.19242   0.91483   0.69750   0.00000  Uiso   1.00
C509   C     0.20065   0.87029   0.71987   0.00000  Uiso   1.00
C510   C     0.24436   0.85571   0.70984   0.00000  Uiso   1.00
C511   C     0.30945   0.81569   0.70556   0.00000  Uiso   1.00
C512   C     0.15292   0.97686   0.78057   0.00000  Uiso   1.00
C513   C     0.12793   0.98446   0.87278   0.00000  Uiso   1.00
C514   C     0.13838   0.02210   0.93267   0.00000  Uiso   1.00
C515   C     0.14212   0.07838   0.05732   0.00000  Uiso   1.00
C516   C     0.13928   0.95819   0.59254   0.00000  Uiso   1.00
C517   C     0.10282   0.95010   0.52665   0.00000  Uiso   1.00
C518   C     0.10179   0.97203   0.42824   0.00000  Uiso   1.00
C519   C     0.08435   0.99932   0.26094   0.00000  Uiso   1.00
C520   C     0.21014   0.99111   0.64576   0.00000  Uiso   1.00
C521   C     0.22663   0.94380   0.66622   0.00000  Uiso   1.00
C522   C     0.27034   0.92929   0.65614   0.00000  Uiso   1.00
C523   C     0.27863   0.88473   0.67850   0.00000  Uiso   1.00
C524   C     0.18713   0.00582   0.74929   0.00000  Uiso   1.00
C525   C     0.19762   0.04346   0.80905   0.00000  Uiso   1.00
C526   C     0.17265   0.05112   0.90133   0.00000  Uiso   1.00
C527   C     0.17350   0.98715   0.56125   0.00000  Uiso   1.00
C528   C     0.17251   0.00910   0.46293   0.00000  Uiso   1.00
C529   C     0.13606   0.00105   0.39691   0.00000  Uiso   1.00
H530   H     0.12052   0.91523   0.72771   0.00000  Uiso   1.00
H531   H     0.17416   0.84788   0.74409   0.00000  Uiso   1.00
H532   H     0.10145   0.96204   0.89696   0.00000  Uiso   1.00
H533   H     0.07635   0.92768   0.55089   0.00000  Uiso   1.00
H534   H     0.24873   0.78599   0.74848   0.00000  Uiso   1.00
H535   H     0.09540   0.02671   0.07081   0.00000  Uiso   1.00
H536   H     0.04248   0.95426   0.34105   0.00000  Uiso   1.00
H537   H     0.23678   0.01366   0.62140   0.00000  Uiso   1.00
H538   H     0.29681   0.95171   0.63193   0.00000  Uiso   1.00
H539   H     0.22409   0.06587   0.78482   0.00000  Uiso   1.00
H540   H     0.19899   0.03151   0.43875   0.00000  Uiso   1.00
H541   H     0.34828   0.87027   0.65746   0.00000  Uiso   1.00
H542   H     0.19494   0.11098   0.97979   0.00000  Uiso   1.00
H543   H     0.14202   0.03854   0.25003   0.00000  Uiso   1.00
O544   O     0.33590   0.78561   0.71185   0.00000  Uiso   1.00
O545   O     0.13473   0.10142   0.13472   0.00000  Uiso   1.00
O546   O     0.06529   0.00637   0.17730   0.00000  Uiso   1.00
N547   N     0.26392   0.81433   0.72559   0.00000  Uiso   1.00
N548   N     0.12057   0.03938   0.02696   0.00000  Uiso   1.00
N549   N     0.07108   0.97165   0.34471   0.00000  Uiso   1.00
N550   N     0.31748   0.85967   0.67661   0.00000  Uiso   1.00
N551   N     0.17413   0.08472   0.97798   0.00000  Uiso   1.00
N552   N     0.12465   0.01700   0.29573   0.00000  Uiso   1.00
C553   C     0.93778   0.85285   0.29665   0.00000  Uiso   1.00
C554   C     0.91483   0.80758   0.30250   0.00000  Uiso   1.00
C555   C     0.87029   0.79935   0.28013   0.00000  Uiso   1.00
C556   C     0.85571   0.75564   0.29016   0.00000  Uiso   1.00
C557   C     0.81569   0.69055   0.29444   0.00000  Uiso   1.00
C558   C     0.97686   0.84708   0.21943   0.00000  Uiso   1.00
C559   C     0.98446   0.87207   0.12722   0.00000  Uiso   1.00
C560   C     0.02210   0.86162   0.06733   0.00000  Uiso   1.00
C561   C     0.07838   0.85788   0.94268   0.00000  Uiso   1.00
C562   C     0.95819   0.86072   0.40746   0.00000  Uiso   1.00
C563   C     0.95010   0.89718   0.47335   0.00000  Uiso   1.00
C564   C     0.97203   0.89821   0.57176   0.00000  Uiso   1.00
C565   C     0.99932   0.91565   0.73906   0.00000  Uiso   1.00
C566   C     0.99111   0.78986   0.35424   0.00000  Uiso   1.00
C567   C     0.94380   0.77337   0.33378   0.00000  Uiso   1.00
C568   C     0.92929   0.72966   0.34386   0.00000  Uiso   1.00
C569   C     0.88473   0.72137   0.32150   0.00000  Uiso   1.00
C570   C     0.00582   0.81287   0.25071   0.00000  Uiso   1.00
C571   C     0.04346   0.80238   0.19095   0.00000  Uiso   1.00
C572   C     0.05112   0.82735   0.09867   0.00000  Uiso   1.00
C573   C     0.98715   0.82650   0.43875   0.00000  Uiso   1.00
C574   C     0.00910   0.82749   0.53707   0.00000  Uiso   1.00
C575   C     0.00105   0.86394   0.60309   0.00000  Uiso   1.00
H576   H     0.91523   0.87948   0.27229   0.00000  Uiso   1.00
H577   H     0.84788   0.82584   0.25591   0.00000  Uiso   1.00
H578   H     0.96204   0.89855   0.10304   0.00000  Uiso   1.00
H579   H     0.92768   0.92365   0.44911   0.00000  Uiso   1.00
H580   H     0.78599   0.75127   0.25152   0.00000  Uiso   1.00
H581   H     0.02671   0.90460   0.92919   0.00000  Uiso   1.00
H582   H     0.95426   0.95752   0.65895   0.00000  Uiso   1.00
H583   H     0.01366   0.76322   0.37860   0.00000  Uiso   1.00
H584   H     0.95171   0.70319   0.36807   0.00000  Uiso   1.00
H585   H     0.06587   0.77591   0.21518   0.00000  Uiso   1.00
H586   H     0.03151   0.80101   0.56125   0.00000  Uiso   1.00
H587   H     0.87027   0.65172   0.34254   0.00000  Uiso   1.00
H588   H     0.11098   0.80506   0.02021   0.00000  Uiso   1.00
H589   H     0.03854   0.85798   0.74997   0.00000  Uiso   1.00
O590   O     0.78561   0.66410   0.28815   0.00000  Uiso   1.00
O591   O     0.10142   0.86527   0.86528   0.00000  Uiso   1.00
O592   O     0.00637   0.93471   0.82270   0.00000  Uiso   1.00
N593   N     0.81433   0.73608   0.27441   0.00000  Uiso   1.00
N594   N     0.03938   0.87943   0.97304   0.00000  Uiso   1.00
N595   N     0.97165   0.92892   0.65529   0.00000  Uiso   1.00
N596   N     0.85967   0.68252   0.32339   0.00000  Uiso   1.00
N597   N     0.08472   0.82587   0.02202   0.00000  Uiso   1.00
N598   N     0.01700   0.87535   0.70427   0.00000  Uiso   1.00
C599   C     0.43778   0.35285   0.79665   0.00000  Uiso   1.00
C600   C     0.41483   0.30758   0.80250   0.00000  Uiso   1.00
C601   C     0.37029   0.29935   0.78013   0.00000  Uiso   1.00
C602   C     0.35571   0.25564   0.79016   0.00000  Uiso   1.00
C603   C     0.31569   0.19055   0.79444   0.00000  Uiso   1.00
C604   C     0.47686   0.34708   0.71943   0.00000  Uiso   1.00
C605   C     0.48446   0.37207   0.62722   0.00000  Uiso   1.00
C606   C     0.52210   0.36162   0.56733   0.00000  Uiso   1.00
C607   C     0.57838   0.35788   0.44268   0.00000  Uiso   1.00
C608   C     0.45819   0.36072   0.90746   0.00000  Uiso   1.00
C609   C     0.45010   0.39718   0.97335   0.00000  Uiso   1.00
C610   C     0.47203   0.39821   0.07176   0.00000  Uiso   1.00
C611   C     0.49932   0.41565   0.23906   0.00000  Uiso   1.00
C612   C     0.49111   0.28986   0.85424   0.00000  Uiso   1.00
C613   C     0.44380   0.27337   0.83378   0.00000  Uiso   1.00
C614   C     0.42929   0.22966   0.84386   0.00000  Uiso   1.00
C615   C     0.38473   0.22137   0.82150   0.00000  Uiso   1.00
C616   C     0.50582   0.31287   0.75071   0.00000  Uiso   1.00
C617   C     0.54346   0.30238   0.69095   0.00000  Uiso   1.00
C618   C     0.55112   0.32735   0.59867   0.00000  Uiso   1.00
C619   C     0.48715   0.32650   0.93875   0.00000  Uiso   1.00
C620   C     0.50910   0.32749   0.03707   0.00000  Uiso   1.00
C621   C     0.50105   0.36394   0.10309   0.00000  Uiso   1.00
H622   H     0.41523   0.37948   0.77229   0.00000  Uiso   1.00
H623   H     0.34788   0.32584   0.75591   0.00000  Uiso   1.00
H624   H     0.46204   0.39855   0.60304   0.00000  Uiso   1.00
H625   H     0.42768   0.42365   0.94911   0.00000  Uiso   1.00
H626   H     0.28599   0.25127   0.75152   0.00000  Uiso   1.00
H627   H     0.52671   0.40460   0.42919   0.00000  Uiso   1.00
H628   H     0.45426   0.45752   0.15895   0.00000  Uiso   1.00
H629   H     0.51366   0.26322   0.87860   0.00000  Uiso   1.00
H630   H     0.45171   0.20319   0.86807   0.00000  Uiso   1.00
H631   H     0.56587   0.27591   0.71518   0.00000  Uiso   1.00
H632   H     0.53151   0.30101   0.06125   0.00000  Uiso   1.00
H633   H     0.37027   0.15172   0.84254   0.00000  Uiso   1.00
H634   H     0.61098   0.30506   0.52021   0.00000  Uiso   1.00
H635   H     0.53854   0.35798   0.24997   0.00000  Uiso   1.00
O636   O     0.28561   0.16410   0.78815   0.00000  Uiso   1.00
O637   O     0.60142   0.36527   0.36528   0.00000  Uiso   1.00
O638   O     0.50637   0.43471   0.32270   0.00000  Uiso   1.00
N639   N     0.31433   0.23608   0.77441   0.00000  Uiso   1.00
N640   N     0.53938   0.37943   0.47304   0.00000  Uiso   1.00
N641   N     0.47165   0.42892   0.15529   0.00000  Uiso   1.00
N642   N     0.35967   0.18252   0.82339   0.00000  Uiso   1.00
N643   N     0.58472   0.32587   0.52202   0.00000  Uiso   1.00
N644   N     0.51700   0.37535   0.20427   0.00000  Uiso   1.00
C645   C     0.06222   0.14715   0.29665   0.00000  Uiso   1.00
C646   C     0.08517   0.19242   0.30250   0.00000  Uiso   1.00
C647   C     0.12971   0.20065   0.28013   0.00000  Uiso   1.00
C648   C     0.14429   0.24436   0.29016   0.00000  Uiso   1.00
C649   C     0.18431   0.30945   0.29444   0.00000  Uiso   1.00
C650   C     0.02314   0.15292   0.21943   0.00000  Uiso   1.00
C651   C     0.01554   0.12793   0.12722   0.00000  Uiso   1.00
C652   C     0.97790   0.13838   0.06733   0.00000  Uiso   1.00
C653   C     0.92162   0.14212   0.94268   0.00000  Uiso   1.00
C654   C     0.04181   0.13928   0.40746   0.00000  Uiso   1.00
C655   C     0.04990   0.10282   0.47335   0.00000  Uiso   1.00
C656   C     0.02797   0.10179   0.57176   0.00000  Uiso   1.00
C657   C     0.00068   0.08435   0.73906   0.00000  Uiso   1.00
C658   C     0.00889   0.21014   0.35424   0.00000  Uiso   1.00
C659   C     0.05620   0.22663   0.33378   0.00000  Uiso   1.00
C660   C     0.07071   0.27034   0.34386   0.00000  Uiso   1.00
C661   C     0.11527   0.27863   0.32150   0.00000  Uiso   1.00
C662   C     0.99418   0.18713   0.25071   0.00000  Uiso   1.00
C663   C     0.95654   0.19762   0.19095   0.00000  Uiso   1.00
C664   C     0.94888   0.17265   0.09867   0.00000  Uiso   1.00
C665   C     0.01285   0.17350   0.43875   0.00000  Uiso   1.00
C666   C     0.99090   0.17251   0.53707   0.00000  Uiso   1.00
C667   C     0.99895   0.13606   0.60309   0.00000  Uiso   1.00
H668   H     0.08477   0.12052   0.27229   0.00000  Uiso   1.00
H669   H     0.15212   0.17416   0.25591   0.00000  Uiso   1.00
H670   H     0.03796   0.10145   0.10304   0.00000  Uiso   1.00
H671   H     0.07232   0.07635   0.44911   0.00000  Uiso   1.00
H672   H     0.21401   0.24873   0.25152   0.00000  Uiso   1.00
H673   H     0.97329   0.09540   0.92919   0.00000  Uiso   1.00
H674   H     0.04574   0.04248   0.65895   0.00000  Uiso   1.00
H675   H     0.98634   0.23678   0.37860   0.00000  Uiso   1.00
H676   H     0.04829   0.29681   0.36807   0.00000  Uiso   1.00
H677   H     0.93413   0.22409   0.21518   0.00000  Uiso   1.00
H678   H     0.96849   0.19899   0.56125   0.00000  Uiso   1.00
H679   H     0.12973   0.34828   0.34254   0.00000  Uiso   1.00
H680   H     0.88902   0.19494   0.02021   0.00000  Uiso   1.00
H681   H     0.96146   0.14202   0.74997   0.00000  Uiso   1.00
O682   O     0.21439   0.33590   0.28815   0.00000  Uiso   1.00
O683   O     0.89858   0.13473   0.86528   0.00000  Uiso   1.00
O684   O     0.99363   0.06529   0.82270   0.00000  Uiso   1.00
N685   N     0.18567   0.26392   0.27441   0.00000  Uiso   1.00
N686   N     0.96062   0.12057   0.97304   0.00000  Uiso   1.00
N687   N     0.02835   0.07108   0.65529   0.00000  Uiso   1.00
N688   N     0.14033   0.31748   0.32339   0.00000  Uiso   1.00
N689   N     0.91528   0.17413   0.02202   0.00000  Uiso   1.00
N690   N     0.98300   0.12465   0.70427   0.00000  Uiso   1.00
C691   C     0.56222   0.64715   0.79665   0.00000  Uiso   1.00
C692   C     0.58517   0.69242   0.80250   0.00000  Uiso   1.00
C693   C     0.62971   0.70065   0.78013   0.00000  Uiso   1.00
C694   C     0.64429   0.74436   0.79016   0.00000  Uiso   1.00
C695   C     0.68431   0.80945   0.79444   0.00000  Uiso   1.00
C696   C     0.52314   0.65292   0.71943   0.00000  Uiso   1.00
C697   C     0.51554   0.62793   0.62722   0.00000  Uiso   1.00
C698   C     0.47790   0.63838   0.56733   0.00000  Uiso   1.00
C699   C     0.42162   0.64212   0.44268   0.00000  Uiso   1.00
C700   C     0.54181   0.63928   0.90746   0.00000  Uiso   1.00
C701   C     0.54990   0.60282   0.97335   0.00000  Uiso   1.00
C702   C     0.52797   0.60179   0.07176   0.00000  Uiso   1.00
C703   C     0.50068   0.58435   0.23906   0.00000  Uiso   1.00
C704   C     0.50889   0.71014   0.85424   0.00000  Uiso   1.00
C705   C     0.55620   0.72663   0.83378   0.00000  Uiso   1.00
C706   C     0.57071   0.77034   0.84386   0.00000  Uiso   1.00
C707   C     0.61527   0.77863   0.82150   0.00000  Uiso   1.00
C708   C     0.49418   0.68713   0.75071   0.00000  Uiso   1.00
C709   C     0.45654   0.69762   0.69095   0.00000  Uiso   1.00
C710   C     0.44888   0.67265   0.59867   0.00000  Uiso   1.00
C711   C     0.51285   0.67350   0.93875   0.00000  Uiso   1.00
C712   C     0.49090   0.67251   0.03707   0.00000  Uiso   1.00
C713   C     0.49895   0.63606   0.10309   0.00000  Uiso   1.00
H714   H     0.58477   0.62052   0.77229   0.00000  Uiso   1.00
H715   H     0.65212   0.67416   0.75591   0.00000  Uiso   1.00
H716   H     0.53796   0.60145   0.60304   0.00000  Uiso   1.00
H717   H     0.57232   0.57635   0.94911   0.00000  Uiso   1.00
H718   H     0.71401   0.74873   0.75152   0.00000  Uiso   1.00
H719   H     0.47329   0.59540   0.42919   0.00000  Uiso   1.00
H720   H     0.54574   0.54248   0.15895   0.00000  Uiso   1.00
H721   H     0.48634   0.73678   0.87860   0.00000  Uiso   1.00
H722   H     0.54829   0.79681   0.86807   0.00000  Uiso   1.00
H723   H     0.43413   0.72409   0.71518   0.00000  Uiso   1.00
H724   H     0.46849   0.69899   0.06125   0.00000  Uiso   1.00
H725   H     0.62973   0.84828   0.84254   0.00000  Uiso   1.00
H726   H     0.38902   0.69494   0.52021   0.00000  Uiso   1.00
H727   H     0.46146   0.64202   0.24997   0.00000  Uiso   1.00
O728   O     0.71439   0.83590   0.78815   0.00000  Uiso   1.00
O729   O     0.39858   0.63473   0.36528   0.00000  Uiso   1.00
O730   O     0.49363   0.56529   0.32270   0.00000  Uiso   1.00
N731   N     0.68567   0.76392   0.77441   0.00000  Uiso   1.00
N732   N     0.46062   0.62057   0.47304   0.00000  Uiso   1.00
N733   N     0.52835   0.57108   0.15529   0.00000  Uiso   1.00
N734   N     0.64033   0.81748   0.82339   0.00000  Uiso   1.00
N735   N     0.41528   0.67413   0.52202   0.00000  Uiso   1.00
N736   N     0.48300   0.62465   0.20427   0.00000  Uiso   1.00
