data_job_05132
_audit_creation_date              2018-12-19
_audit_creation_method            'Materials Studio'
_symmetry_space_group_name_H-M    'P1'
_symmetry_Int_Tables_number       1
_symmetry_cell_setting            triclinic
loop_
_symmetry_equiv_pos_as_xyz
  x,y,z
_cell_length_a                    27.6421
_cell_length_b                    27.6421
_cell_length_c                    12.3445
_cell_angle_alpha                 90.0000
_cell_angle_beta                  90.0000
_cell_angle_gamma                 90.0000
loop_
_atom_site_label
_atom_site_type_symbol
_atom_site_fract_x
_atom_site_fract_y
_atom_site_fract_z
_atom_site_U_iso_or_equiv
_atom_site_adp_type
_atom_site_occupancy
C1     C     0.93868   0.30990   0.81537   0.00000  Uiso   1.00
C2     C     0.99191   0.29823   0.79604   0.00000  Uiso   1.00
C3     C     0.01329   0.25313   0.80812   0.00000  Uiso   1.00
C4     C     0.06248   0.24993   0.78656   0.00000  Uiso   1.00
C5     C     0.14105   0.22566   0.76154   0.00000  Uiso   1.00
C6     C     0.93784   0.35050   0.89898   0.00000  Uiso   1.00
C7     C     0.91376   0.34934   0.99759   0.00000  Uiso   1.00
C8     C     0.91744   0.39014   0.06268   0.00000  Uiso   1.00
C9     C     0.91204   0.44703   0.19743   0.00000  Uiso   1.00
C10    C     0.92012   0.33203   0.71014   0.00000  Uiso   1.00
C11    C     0.88112   0.31535   0.64998   0.00000  Uiso   1.00
C12    C     0.86986   0.34061   0.55608   0.00000  Uiso   1.00
C13    C     0.83694   0.36883   0.39764   0.00000  Uiso   1.00
C14    C     0.98803   0.38442   0.75560   0.00000  Uiso   1.00
C15    C     0.01871   0.33871   0.76358   0.00000  Uiso   1.00
C16    C     0.06788   0.33558   0.74199   0.00000  Uiso   1.00
C17    C     0.08933   0.29048   0.75403   0.00000  Uiso   1.00
C18    C     0.96464   0.39098   0.86652   0.00000  Uiso   1.00
C19    C     0.96835   0.43179   0.93147   0.00000  Uiso   1.00
C20    C     0.94428   0.43069   0.03016   0.00000  Uiso   1.00
C21    C     0.94692   0.37251   0.67767   0.00000  Uiso   1.00
C22    C     0.93571   0.39780   0.58386   0.00000  Uiso   1.00
C23    C     0.89671   0.38116   0.52357   0.00000  Uiso   1.00
H24    H     0.91782   0.27839   0.84064   0.00000  Uiso   1.00
H25    H     0.99254   0.22182   0.83325   0.00000  Uiso   1.00
H26    H     0.89302   0.31802   0.02269   0.00000  Uiso   1.00
H27    H     0.86039   0.28403   0.67513   0.00000  Uiso   1.00
H28    H     0.08720   0.17695   0.81077   0.00000  Uiso   1.00
H29    H     0.87735   0.37980   0.21020   0.00000  Uiso   1.00
H30    H     0.80853   0.30813   0.47730   0.00000  Uiso   1.00
H31    H     0.00889   0.41593   0.73033   0.00000  Uiso   1.00
H32    H     0.08861   0.36691   0.71687   0.00000  Uiso   1.00
H33    H     0.98909   0.46311   0.90632   0.00000  Uiso   1.00
H34    H     0.95646   0.42912   0.55876   0.00000  Uiso   1.00
H35    H     0.16518   0.29471   0.71633   0.00000  Uiso   1.00
H36    H     0.95532   0.49756   0.11575   0.00000  Uiso   1.00
H37    H     0.88651   0.42589   0.38285   0.00000  Uiso   1.00
O38    O     0.17699   0.20110   0.75673   0.00000  Uiso   1.00
O39    O     0.90167   0.46723   0.28074   0.00000  Uiso   1.00
O40    O     0.81138   0.37321   0.31920   0.00000  Uiso   1.00
N41    N     0.09461   0.21139   0.79037   0.00000  Uiso   1.00
N42    N     0.89842   0.40104   0.16381   0.00000  Uiso   1.00
N43    N     0.83407   0.33405   0.47863   0.00000  Uiso   1.00
N44    N     0.13657   0.27476   0.73955   0.00000  Uiso   1.00
N45    N     0.94038   0.46440   0.11299   0.00000  Uiso   1.00
N46    N     0.87603   0.39741   0.42781   0.00000  Uiso   1.00
C47    C     0.43868   0.80990   0.31537   0.00000  Uiso   1.00
C48    C     0.49191   0.79823   0.29604   0.00000  Uiso   1.00
C49    C     0.51329   0.75313   0.30812   0.00000  Uiso   1.00
C50    C     0.56248   0.74993   0.28656   0.00000  Uiso   1.00
C51    C     0.64105   0.72566   0.26154   0.00000  Uiso   1.00
C52    C     0.43784   0.85050   0.39898   0.00000  Uiso   1.00
C53    C     0.41376   0.84934   0.49759   0.00000  Uiso   1.00
C54    C     0.41744   0.89014   0.56268   0.00000  Uiso   1.00
C55    C     0.41204   0.94703   0.69743   0.00000  Uiso   1.00
C56    C     0.42012   0.83203   0.21014   0.00000  Uiso   1.00
C57    C     0.38112   0.81535   0.14998   0.00000  Uiso   1.00
C58    C     0.36986   0.84061   0.05608   0.00000  Uiso   1.00
C59    C     0.33694   0.86883   0.89764   0.00000  Uiso   1.00
C60    C     0.48803   0.88442   0.25560   0.00000  Uiso   1.00
C61    C     0.51871   0.83871   0.26358   0.00000  Uiso   1.00
C62    C     0.56788   0.83558   0.24199   0.00000  Uiso   1.00
C63    C     0.58933   0.79048   0.25403   0.00000  Uiso   1.00
C64    C     0.46464   0.89098   0.36652   0.00000  Uiso   1.00
C65    C     0.46835   0.93179   0.43147   0.00000  Uiso   1.00
C66    C     0.44428   0.93069   0.53016   0.00000  Uiso   1.00
C67    C     0.44692   0.87251   0.17767   0.00000  Uiso   1.00
C68    C     0.43571   0.89780   0.08386   0.00000  Uiso   1.00
C69    C     0.39671   0.88116   0.02357   0.00000  Uiso   1.00
H70    H     0.41782   0.77839   0.34064   0.00000  Uiso   1.00
H71    H     0.49254   0.72182   0.33325   0.00000  Uiso   1.00
H72    H     0.39302   0.81802   0.52269   0.00000  Uiso   1.00
H73    H     0.36039   0.78403   0.17513   0.00000  Uiso   1.00
H74    H     0.58720   0.67695   0.31077   0.00000  Uiso   1.00
H75    H     0.37735   0.87980   0.71020   0.00000  Uiso   1.00
H76    H     0.30853   0.80813   0.97730   0.00000  Uiso   1.00
H77    H     0.50889   0.91593   0.23033   0.00000  Uiso   1.00
H78    H     0.58861   0.86691   0.21687   0.00000  Uiso   1.00
H79    H     0.48909   0.96311   0.40632   0.00000  Uiso   1.00
H80    H     0.45646   0.92912   0.05876   0.00000  Uiso   1.00
H81    H     0.66518   0.79471   0.21633   0.00000  Uiso   1.00
H82    H     0.45532   0.99756   0.61575   0.00000  Uiso   1.00
H83    H     0.38651   0.92589   0.88285   0.00000  Uiso   1.00
O84    O     0.67699   0.70110   0.25673   0.00000  Uiso   1.00
O85    O     0.40167   0.96723   0.78074   0.00000  Uiso   1.00
O86    O     0.31138   0.87321   0.81920   0.00000  Uiso   1.00
N87    N     0.59461   0.71139   0.29037   0.00000  Uiso   1.00
N88    N     0.39842   0.90104   0.66381   0.00000  Uiso   1.00
N89    N     0.33407   0.83405   0.97863   0.00000  Uiso   1.00
N90    N     0.63657   0.77476   0.23955   0.00000  Uiso   1.00
N91    N     0.44038   0.96440   0.61299   0.00000  Uiso   1.00
N92    N     0.37603   0.89741   0.92781   0.00000  Uiso   1.00
C93    C     0.06132   0.69010   0.81537   0.00000  Uiso   1.00
C94    C     0.00809   0.70177   0.79604   0.00000  Uiso   1.00
C95    C     0.98671   0.74687   0.80812   0.00000  Uiso   1.00
C96    C     0.93752   0.75007   0.78656   0.00000  Uiso   1.00
C97    C     0.85895   0.77434   0.76154   0.00000  Uiso   1.00
C98    C     0.06216   0.64950   0.89898   0.00000  Uiso   1.00
C99    C     0.08624   0.65066   0.99759   0.00000  Uiso   1.00
C100   C     0.08256   0.60986   0.06268   0.00000  Uiso   1.00
C101   C     0.08796   0.55297   0.19743   0.00000  Uiso   1.00
C102   C     0.07988   0.66797   0.71014   0.00000  Uiso   1.00
C103   C     0.11888   0.68465   0.64998   0.00000  Uiso   1.00
C104   C     0.13014   0.65939   0.55608   0.00000  Uiso   1.00
C105   C     0.16306   0.63117   0.39764   0.00000  Uiso   1.00
C106   C     0.01197   0.61558   0.75560   0.00000  Uiso   1.00
C107   C     0.98129   0.66129   0.76358   0.00000  Uiso   1.00
C108   C     0.93212   0.66442   0.74199   0.00000  Uiso   1.00
C109   C     0.91067   0.70952   0.75403   0.00000  Uiso   1.00
C110   C     0.03536   0.60902   0.86652   0.00000  Uiso   1.00
C111   C     0.03165   0.56821   0.93147   0.00000  Uiso   1.00
C112   C     0.05572   0.56931   0.03016   0.00000  Uiso   1.00
C113   C     0.05308   0.62749   0.67767   0.00000  Uiso   1.00
C114   C     0.06429   0.60220   0.58386   0.00000  Uiso   1.00
C115   C     0.10329   0.61884   0.52357   0.00000  Uiso   1.00
H116   H     0.08218   0.72161   0.84064   0.00000  Uiso   1.00
H117   H     0.00746   0.77818   0.83325   0.00000  Uiso   1.00
H118   H     0.10698   0.68198   0.02269   0.00000  Uiso   1.00
H119   H     0.13961   0.71597   0.67513   0.00000  Uiso   1.00
H120   H     0.91280   0.82305   0.81077   0.00000  Uiso   1.00
H121   H     0.12265   0.62020   0.21020   0.00000  Uiso   1.00
H122   H     0.19147   0.69187   0.47730   0.00000  Uiso   1.00
H123   H     0.99111   0.58407   0.73033   0.00000  Uiso   1.00
H124   H     0.91139   0.63309   0.71687   0.00000  Uiso   1.00
H125   H     0.01091   0.53689   0.90632   0.00000  Uiso   1.00
H126   H     0.04354   0.57088   0.55876   0.00000  Uiso   1.00
H127   H     0.83482   0.70529   0.71633   0.00000  Uiso   1.00
H128   H     0.04468   0.50244   0.11575   0.00000  Uiso   1.00
H129   H     0.11349   0.57411   0.38285   0.00000  Uiso   1.00
O130   O     0.82301   0.79890   0.75673   0.00000  Uiso   1.00
O131   O     0.09833   0.53277   0.28074   0.00000  Uiso   1.00
O132   O     0.18862   0.62679   0.31920   0.00000  Uiso   1.00
N133   N     0.90539   0.78861   0.79037   0.00000  Uiso   1.00
N134   N     0.10158   0.59896   0.16381   0.00000  Uiso   1.00
N135   N     0.16593   0.66595   0.47863   0.00000  Uiso   1.00
N136   N     0.86343   0.72524   0.73955   0.00000  Uiso   1.00
N137   N     0.05962   0.53560   0.11299   0.00000  Uiso   1.00
N138   N     0.12397   0.60259   0.42781   0.00000  Uiso   1.00
C139   C     0.56132   0.19010   0.31537   0.00000  Uiso   1.00
C140   C     0.50809   0.20177   0.29604   0.00000  Uiso   1.00
C141   C     0.48671   0.24687   0.30812   0.00000  Uiso   1.00
C142   C     0.43752   0.25007   0.28656   0.00000  Uiso   1.00
C143   C     0.35895   0.27434   0.26154   0.00000  Uiso   1.00
C144   C     0.56216   0.14950   0.39898   0.00000  Uiso   1.00
C145   C     0.58624   0.15066   0.49759   0.00000  Uiso   1.00
C146   C     0.58256   0.10986   0.56268   0.00000  Uiso   1.00
C147   C     0.58796   0.05297   0.69743   0.00000  Uiso   1.00
C148   C     0.57988   0.16797   0.21014   0.00000  Uiso   1.00
C149   C     0.61888   0.18465   0.14998   0.00000  Uiso   1.00
C150   C     0.63014   0.15939   0.05608   0.00000  Uiso   1.00
C151   C     0.66306   0.13117   0.89764   0.00000  Uiso   1.00
C152   C     0.51197   0.11558   0.25560   0.00000  Uiso   1.00
C153   C     0.48129   0.16129   0.26358   0.00000  Uiso   1.00
C154   C     0.43212   0.16442   0.24199   0.00000  Uiso   1.00
C155   C     0.41067   0.20952   0.25403   0.00000  Uiso   1.00
C156   C     0.53536   0.10902   0.36652   0.00000  Uiso   1.00
C157   C     0.53165   0.06821   0.43147   0.00000  Uiso   1.00
C158   C     0.55572   0.06931   0.53016   0.00000  Uiso   1.00
C159   C     0.55308   0.12749   0.17767   0.00000  Uiso   1.00
C160   C     0.56429   0.10220   0.08386   0.00000  Uiso   1.00
C161   C     0.60329   0.11884   0.02357   0.00000  Uiso   1.00
H162   H     0.58218   0.22161   0.34064   0.00000  Uiso   1.00
H163   H     0.50746   0.27818   0.33325   0.00000  Uiso   1.00
H164   H     0.60698   0.18198   0.52269   0.00000  Uiso   1.00
H165   H     0.63961   0.21597   0.17513   0.00000  Uiso   1.00
H166   H     0.41280   0.32305   0.31077   0.00000  Uiso   1.00
H167   H     0.62265   0.12020   0.71020   0.00000  Uiso   1.00
H168   H     0.69147   0.19187   0.97730   0.00000  Uiso   1.00
H169   H     0.49111   0.08407   0.23033   0.00000  Uiso   1.00
H170   H     0.41139   0.13309   0.21687   0.00000  Uiso   1.00
H171   H     0.51091   0.03689   0.40632   0.00000  Uiso   1.00
H172   H     0.54354   0.07088   0.05876   0.00000  Uiso   1.00
H173   H     0.33482   0.20529   0.21633   0.00000  Uiso   1.00
H174   H     0.54468   0.00244   0.61575   0.00000  Uiso   1.00
H175   H     0.61349   0.07411   0.88285   0.00000  Uiso   1.00
O176   O     0.32301   0.29890   0.25673   0.00000  Uiso   1.00
O177   O     0.59833   0.03277   0.78074   0.00000  Uiso   1.00
O178   O     0.68862   0.12679   0.81920   0.00000  Uiso   1.00
N179   N     0.40539   0.28861   0.29037   0.00000  Uiso   1.00
N180   N     0.60158   0.09896   0.66381   0.00000  Uiso   1.00
N181   N     0.66593   0.16595   0.97863   0.00000  Uiso   1.00
N182   N     0.36343   0.22524   0.23955   0.00000  Uiso   1.00
N183   N     0.55962   0.03560   0.61299   0.00000  Uiso   1.00
N184   N     0.62397   0.10259   0.92781   0.00000  Uiso   1.00
C185   C     0.30990   0.06132   0.18463   0.00000  Uiso   1.00
C186   C     0.29823   0.00809   0.20396   0.00000  Uiso   1.00
C187   C     0.25313   0.98671   0.19188   0.00000  Uiso   1.00
C188   C     0.24993   0.93752   0.21344   0.00000  Uiso   1.00
C189   C     0.22566   0.85895   0.23846   0.00000  Uiso   1.00
C190   C     0.35050   0.06216   0.10102   0.00000  Uiso   1.00
C191   C     0.34934   0.08624   0.00241   0.00000  Uiso   1.00
C192   C     0.39014   0.08256   0.93732   0.00000  Uiso   1.00
C193   C     0.44703   0.08796   0.80257   0.00000  Uiso   1.00
C194   C     0.33203   0.07988   0.28986   0.00000  Uiso   1.00
C195   C     0.31535   0.11888   0.35002   0.00000  Uiso   1.00
C196   C     0.34061   0.13014   0.44392   0.00000  Uiso   1.00
C197   C     0.36883   0.16306   0.60236   0.00000  Uiso   1.00
C198   C     0.38442   0.01197   0.24440   0.00000  Uiso   1.00
C199   C     0.33871   0.98129   0.23642   0.00000  Uiso   1.00
C200   C     0.33558   0.93212   0.25801   0.00000  Uiso   1.00
C201   C     0.29048   0.91067   0.24597   0.00000  Uiso   1.00
C202   C     0.39098   0.03536   0.13348   0.00000  Uiso   1.00
C203   C     0.43179   0.03165   0.06853   0.00000  Uiso   1.00
C204   C     0.43069   0.05572   0.96984   0.00000  Uiso   1.00
C205   C     0.37251   0.05308   0.32233   0.00000  Uiso   1.00
C206   C     0.39780   0.06429   0.41614   0.00000  Uiso   1.00
C207   C     0.38116   0.10329   0.47643   0.00000  Uiso   1.00
H208   H     0.27839   0.08218   0.15936   0.00000  Uiso   1.00
H209   H     0.22182   0.00746   0.16675   0.00000  Uiso   1.00
H210   H     0.31802   0.10698   0.97731   0.00000  Uiso   1.00
H211   H     0.28403   0.13961   0.32487   0.00000  Uiso   1.00
H212   H     0.17695   0.91280   0.18923   0.00000  Uiso   1.00
H213   H     0.37980   0.12265   0.78980   0.00000  Uiso   1.00
H214   H     0.30813   0.19147   0.52270   0.00000  Uiso   1.00
H215   H     0.41593   0.99111   0.26967   0.00000  Uiso   1.00
H216   H     0.36691   0.91139   0.28313   0.00000  Uiso   1.00
H217   H     0.46311   0.01091   0.09368   0.00000  Uiso   1.00
H218   H     0.42912   0.04354   0.44124   0.00000  Uiso   1.00
H219   H     0.29471   0.83482   0.28367   0.00000  Uiso   1.00
H220   H     0.49756   0.04468   0.88425   0.00000  Uiso   1.00
H221   H     0.42589   0.11349   0.61715   0.00000  Uiso   1.00
O222   O     0.20110   0.82301   0.24327   0.00000  Uiso   1.00
O223   O     0.46723   0.09833   0.71926   0.00000  Uiso   1.00
O224   O     0.37321   0.18862   0.68080   0.00000  Uiso   1.00
N225   N     0.21139   0.90539   0.20963   0.00000  Uiso   1.00
N226   N     0.40104   0.10158   0.83619   0.00000  Uiso   1.00
N227   N     0.33405   0.16593   0.52137   0.00000  Uiso   1.00
N228   N     0.27476   0.86343   0.26045   0.00000  Uiso   1.00
N229   N     0.46440   0.05962   0.88701   0.00000  Uiso   1.00
N230   N     0.39741   0.12397   0.57219   0.00000  Uiso   1.00
C231   C     0.80990   0.56132   0.68463   0.00000  Uiso   1.00
C232   C     0.79823   0.50809   0.70396   0.00000  Uiso   1.00
C233   C     0.75313   0.48671   0.69188   0.00000  Uiso   1.00
C234   C     0.74993   0.43752   0.71344   0.00000  Uiso   1.00
C235   C     0.72566   0.35895   0.73846   0.00000  Uiso   1.00
C236   C     0.85050   0.56216   0.60102   0.00000  Uiso   1.00
C237   C     0.84934   0.58624   0.50241   0.00000  Uiso   1.00
C238   C     0.89014   0.58256   0.43732   0.00000  Uiso   1.00
C239   C     0.94703   0.58796   0.30257   0.00000  Uiso   1.00
C240   C     0.83203   0.57988   0.78986   0.00000  Uiso   1.00
C241   C     0.81535   0.61888   0.85002   0.00000  Uiso   1.00
C242   C     0.84061   0.63014   0.94392   0.00000  Uiso   1.00
C243   C     0.86883   0.66306   0.10236   0.00000  Uiso   1.00
C244   C     0.88442   0.51197   0.74440   0.00000  Uiso   1.00
C245   C     0.83871   0.48129   0.73642   0.00000  Uiso   1.00
C246   C     0.83558   0.43212   0.75801   0.00000  Uiso   1.00
C247   C     0.79048   0.41067   0.74597   0.00000  Uiso   1.00
C248   C     0.89098   0.53536   0.63348   0.00000  Uiso   1.00
C249   C     0.93179   0.53165   0.56853   0.00000  Uiso   1.00
C250   C     0.93069   0.55572   0.46984   0.00000  Uiso   1.00
C251   C     0.87251   0.55308   0.82233   0.00000  Uiso   1.00
C252   C     0.89780   0.56429   0.91614   0.00000  Uiso   1.00
C253   C     0.88116   0.60329   0.97643   0.00000  Uiso   1.00
H254   H     0.77839   0.58218   0.65936   0.00000  Uiso   1.00
H255   H     0.72182   0.50746   0.66675   0.00000  Uiso   1.00
H256   H     0.81802   0.60698   0.47731   0.00000  Uiso   1.00
H257   H     0.78403   0.63961   0.82487   0.00000  Uiso   1.00
H258   H     0.67695   0.41280   0.68923   0.00000  Uiso   1.00
H259   H     0.87980   0.62265   0.28980   0.00000  Uiso   1.00
H260   H     0.80813   0.69147   0.02270   0.00000  Uiso   1.00
H261   H     0.91593   0.49111   0.76967   0.00000  Uiso   1.00
H262   H     0.86691   0.41139   0.78313   0.00000  Uiso   1.00
H263   H     0.96311   0.51091   0.59368   0.00000  Uiso   1.00
H264   H     0.92912   0.54354   0.94124   0.00000  Uiso   1.00
H265   H     0.79471   0.33482   0.78367   0.00000  Uiso   1.00
H266   H     0.99756   0.54468   0.38425   0.00000  Uiso   1.00
H267   H     0.92589   0.61349   0.11715   0.00000  Uiso   1.00
O268   O     0.70110   0.32301   0.74327   0.00000  Uiso   1.00
O269   O     0.96723   0.59833   0.21926   0.00000  Uiso   1.00
O270   O     0.87321   0.68862   0.18080   0.00000  Uiso   1.00
N271   N     0.71139   0.40539   0.70963   0.00000  Uiso   1.00
N272   N     0.90104   0.60158   0.33619   0.00000  Uiso   1.00
N273   N     0.83405   0.66593   0.02137   0.00000  Uiso   1.00
N274   N     0.77476   0.36343   0.76045   0.00000  Uiso   1.00
N275   N     0.96440   0.55962   0.38701   0.00000  Uiso   1.00
N276   N     0.89741   0.62397   0.07219   0.00000  Uiso   1.00
C277   C     0.69010   0.93868   0.18463   0.00000  Uiso   1.00
C278   C     0.70177   0.99191   0.20396   0.00000  Uiso   1.00
C279   C     0.74687   0.01329   0.19188   0.00000  Uiso   1.00
C280   C     0.75007   0.06248   0.21344   0.00000  Uiso   1.00
C281   C     0.77434   0.14105   0.23846   0.00000  Uiso   1.00
C282   C     0.64950   0.93784   0.10102   0.00000  Uiso   1.00
C283   C     0.65066   0.91376   0.00241   0.00000  Uiso   1.00
C284   C     0.60986   0.91744   0.93732   0.00000  Uiso   1.00
C285   C     0.55297   0.91204   0.80257   0.00000  Uiso   1.00
C286   C     0.66797   0.92012   0.28986   0.00000  Uiso   1.00
C287   C     0.68465   0.88112   0.35002   0.00000  Uiso   1.00
C288   C     0.65939   0.86986   0.44392   0.00000  Uiso   1.00
C289   C     0.63117   0.83694   0.60236   0.00000  Uiso   1.00
C290   C     0.61558   0.98803   0.24440   0.00000  Uiso   1.00
C291   C     0.66129   0.01871   0.23642   0.00000  Uiso   1.00
C292   C     0.66442   0.06788   0.25801   0.00000  Uiso   1.00
C293   C     0.70952   0.08933   0.24597   0.00000  Uiso   1.00
C294   C     0.60902   0.96464   0.13348   0.00000  Uiso   1.00
C295   C     0.56821   0.96835   0.06853   0.00000  Uiso   1.00
C296   C     0.56931   0.94428   0.96984   0.00000  Uiso   1.00
C297   C     0.62749   0.94692   0.32233   0.00000  Uiso   1.00
C298   C     0.60220   0.93571   0.41614   0.00000  Uiso   1.00
C299   C     0.61884   0.89671   0.47643   0.00000  Uiso   1.00
H300   H     0.72161   0.91782   0.15936   0.00000  Uiso   1.00
H301   H     0.77818   0.99254   0.16675   0.00000  Uiso   1.00
H302   H     0.68198   0.89302   0.97731   0.00000  Uiso   1.00
H303   H     0.71597   0.86039   0.32487   0.00000  Uiso   1.00
H304   H     0.82305   0.08720   0.18923   0.00000  Uiso   1.00
H305   H     0.62020   0.87735   0.78980   0.00000  Uiso   1.00
H306   H     0.69187   0.80853   0.52270   0.00000  Uiso   1.00
H307   H     0.58407   0.00889   0.26967   0.00000  Uiso   1.00
H308   H     0.63309   0.08861   0.28313   0.00000  Uiso   1.00
H309   H     0.53689   0.98909   0.09368   0.00000  Uiso   1.00
H310   H     0.57088   0.95646   0.44124   0.00000  Uiso   1.00
H311   H     0.70529   0.16518   0.28367   0.00000  Uiso   1.00
H312   H     0.50244   0.95532   0.88425   0.00000  Uiso   1.00
H313   H     0.57411   0.88651   0.61715   0.00000  Uiso   1.00
O314   O     0.79890   0.17699   0.24327   0.00000  Uiso   1.00
O315   O     0.53277   0.90167   0.71926   0.00000  Uiso   1.00
O316   O     0.62679   0.81138   0.68080   0.00000  Uiso   1.00
N317   N     0.78861   0.09461   0.20963   0.00000  Uiso   1.00
N318   N     0.59896   0.89842   0.83619   0.00000  Uiso   1.00
N319   N     0.66595   0.83407   0.52137   0.00000  Uiso   1.00
N320   N     0.72524   0.13657   0.26045   0.00000  Uiso   1.00
N321   N     0.53560   0.94038   0.88701   0.00000  Uiso   1.00
N322   N     0.60259   0.87603   0.57219   0.00000  Uiso   1.00
C323   C     0.19010   0.43868   0.68463   0.00000  Uiso   1.00
C324   C     0.20177   0.49191   0.70396   0.00000  Uiso   1.00
C325   C     0.24687   0.51329   0.69188   0.00000  Uiso   1.00
C326   C     0.25007   0.56248   0.71344   0.00000  Uiso   1.00
C327   C     0.27434   0.64105   0.73846   0.00000  Uiso   1.00
C328   C     0.14950   0.43784   0.60102   0.00000  Uiso   1.00
C329   C     0.15066   0.41376   0.50241   0.00000  Uiso   1.00
C330   C     0.10986   0.41744   0.43732   0.00000  Uiso   1.00
C331   C     0.05297   0.41204   0.30257   0.00000  Uiso   1.00
C332   C     0.16797   0.42012   0.78986   0.00000  Uiso   1.00
C333   C     0.18465   0.38112   0.85002   0.00000  Uiso   1.00
C334   C     0.15939   0.36986   0.94392   0.00000  Uiso   1.00
C335   C     0.13117   0.33694   0.10236   0.00000  Uiso   1.00
C336   C     0.11558   0.48803   0.74440   0.00000  Uiso   1.00
C337   C     0.16129   0.51871   0.73642   0.00000  Uiso   1.00
C338   C     0.16442   0.56788   0.75801   0.00000  Uiso   1.00
C339   C     0.20952   0.58933   0.74597   0.00000  Uiso   1.00
C340   C     0.10902   0.46464   0.63348   0.00000  Uiso   1.00
C341   C     0.06821   0.46835   0.56853   0.00000  Uiso   1.00
C342   C     0.06931   0.44428   0.46984   0.00000  Uiso   1.00
C343   C     0.12749   0.44692   0.82233   0.00000  Uiso   1.00
C344   C     0.10220   0.43571   0.91614   0.00000  Uiso   1.00
C345   C     0.11884   0.39671   0.97643   0.00000  Uiso   1.00
H346   H     0.22161   0.41782   0.65936   0.00000  Uiso   1.00
H347   H     0.27818   0.49254   0.66675   0.00000  Uiso   1.00
H348   H     0.18198   0.39302   0.47731   0.00000  Uiso   1.00
H349   H     0.21597   0.36039   0.82487   0.00000  Uiso   1.00
H350   H     0.32305   0.58720   0.68923   0.00000  Uiso   1.00
H351   H     0.12020   0.37735   0.28980   0.00000  Uiso   1.00
H352   H     0.19187   0.30853   0.02270   0.00000  Uiso   1.00
H353   H     0.08407   0.50889   0.76967   0.00000  Uiso   1.00
H354   H     0.13309   0.58861   0.78313   0.00000  Uiso   1.00
H355   H     0.03689   0.48909   0.59368   0.00000  Uiso   1.00
H356   H     0.07088   0.45646   0.94124   0.00000  Uiso   1.00
H357   H     0.20529   0.66518   0.78367   0.00000  Uiso   1.00
H358   H     0.00244   0.45532   0.38425   0.00000  Uiso   1.00
H359   H     0.07411   0.38651   0.11715   0.00000  Uiso   1.00
O360   O     0.29890   0.67699   0.74327   0.00000  Uiso   1.00
O361   O     0.03277   0.40167   0.21926   0.00000  Uiso   1.00
O362   O     0.12679   0.31138   0.18080   0.00000  Uiso   1.00
N363   N     0.28861   0.59461   0.70963   0.00000  Uiso   1.00
N364   N     0.09896   0.39842   0.33619   0.00000  Uiso   1.00
N365   N     0.16595   0.33407   0.02137   0.00000  Uiso   1.00
N366   N     0.22524   0.63657   0.76045   0.00000  Uiso   1.00
N367   N     0.03560   0.44038   0.38701   0.00000  Uiso   1.00
N368   N     0.10259   0.37603   0.07219   0.00000  Uiso   1.00
C369   C     0.56132   0.30990   0.93463   0.00000  Uiso   1.00
C370   C     0.50809   0.29823   0.95396   0.00000  Uiso   1.00
C371   C     0.48671   0.25313   0.94188   0.00000  Uiso   1.00
C372   C     0.43752   0.24993   0.96344   0.00000  Uiso   1.00
C373   C     0.35895   0.22566   0.98846   0.00000  Uiso   1.00
C374   C     0.56216   0.35050   0.85102   0.00000  Uiso   1.00
C375   C     0.58624   0.34934   0.75241   0.00000  Uiso   1.00
C376   C     0.58256   0.39014   0.68732   0.00000  Uiso   1.00
C377   C     0.58796   0.44703   0.55257   0.00000  Uiso   1.00
C378   C     0.57988   0.33203   0.03986   0.00000  Uiso   1.00
C379   C     0.61888   0.31535   0.10002   0.00000  Uiso   1.00
C380   C     0.63014   0.34061   0.19392   0.00000  Uiso   1.00
C381   C     0.66306   0.36883   0.35236   0.00000  Uiso   1.00
C382   C     0.51197   0.38442   0.99440   0.00000  Uiso   1.00
C383   C     0.48129   0.33871   0.98642   0.00000  Uiso   1.00
C384   C     0.43212   0.33558   0.00801   0.00000  Uiso   1.00
C385   C     0.41067   0.29048   0.99597   0.00000  Uiso   1.00
C386   C     0.53536   0.39098   0.88348   0.00000  Uiso   1.00
C387   C     0.53165   0.43179   0.81853   0.00000  Uiso   1.00
C388   C     0.55572   0.43069   0.71984   0.00000  Uiso   1.00
C389   C     0.55308   0.37251   0.07233   0.00000  Uiso   1.00
C390   C     0.56429   0.39780   0.16614   0.00000  Uiso   1.00
C391   C     0.60329   0.38116   0.22643   0.00000  Uiso   1.00
H392   H     0.58218   0.27839   0.90936   0.00000  Uiso   1.00
H393   H     0.50746   0.22182   0.91675   0.00000  Uiso   1.00
H394   H     0.60698   0.31802   0.72731   0.00000  Uiso   1.00
H395   H     0.63961   0.28403   0.07487   0.00000  Uiso   1.00
H396   H     0.41280   0.17695   0.93923   0.00000  Uiso   1.00
H397   H     0.62265   0.37980   0.53980   0.00000  Uiso   1.00
H398   H     0.69147   0.30813   0.27270   0.00000  Uiso   1.00
H399   H     0.49111   0.41593   0.01967   0.00000  Uiso   1.00
H400   H     0.41139   0.36691   0.03313   0.00000  Uiso   1.00
H401   H     0.51091   0.46311   0.84368   0.00000  Uiso   1.00
H402   H     0.54354   0.42912   0.19124   0.00000  Uiso   1.00
H403   H     0.33482   0.29471   0.03367   0.00000  Uiso   1.00
H404   H     0.54468   0.49756   0.63425   0.00000  Uiso   1.00
H405   H     0.61349   0.42589   0.36715   0.00000  Uiso   1.00
O406   O     0.32301   0.20110   0.99327   0.00000  Uiso   1.00
O407   O     0.59833   0.46723   0.46926   0.00000  Uiso   1.00
O408   O     0.68862   0.37321   0.43080   0.00000  Uiso   1.00
N409   N     0.40539   0.21139   0.95963   0.00000  Uiso   1.00
N410   N     0.60158   0.40104   0.58619   0.00000  Uiso   1.00
N411   N     0.66593   0.33405   0.27137   0.00000  Uiso   1.00
N412   N     0.36343   0.27476   0.01045   0.00000  Uiso   1.00
N413   N     0.55962   0.46440   0.63701   0.00000  Uiso   1.00
N414   N     0.62397   0.39741   0.32219   0.00000  Uiso   1.00
C415   C     0.06132   0.80990   0.43463   0.00000  Uiso   1.00
C416   C     0.00809   0.79823   0.45396   0.00000  Uiso   1.00
C417   C     0.98671   0.75313   0.44188   0.00000  Uiso   1.00
C418   C     0.93752   0.74993   0.46344   0.00000  Uiso   1.00
C419   C     0.85895   0.72566   0.48846   0.00000  Uiso   1.00
C420   C     0.06216   0.85050   0.35102   0.00000  Uiso   1.00
C421   C     0.08624   0.84934   0.25241   0.00000  Uiso   1.00
C422   C     0.08256   0.89014   0.18732   0.00000  Uiso   1.00
C423   C     0.08796   0.94703   0.05257   0.00000  Uiso   1.00
C424   C     0.07988   0.83203   0.53986   0.00000  Uiso   1.00
C425   C     0.11888   0.81535   0.60002   0.00000  Uiso   1.00
C426   C     0.13014   0.84061   0.69392   0.00000  Uiso   1.00
C427   C     0.16306   0.86883   0.85236   0.00000  Uiso   1.00
C428   C     0.01197   0.88442   0.49440   0.00000  Uiso   1.00
C429   C     0.98129   0.83871   0.48642   0.00000  Uiso   1.00
C430   C     0.93212   0.83558   0.50801   0.00000  Uiso   1.00
C431   C     0.91067   0.79048   0.49597   0.00000  Uiso   1.00
C432   C     0.03536   0.89098   0.38348   0.00000  Uiso   1.00
C433   C     0.03165   0.93179   0.31853   0.00000  Uiso   1.00
C434   C     0.05572   0.93069   0.21984   0.00000  Uiso   1.00
C435   C     0.05308   0.87251   0.57233   0.00000  Uiso   1.00
C436   C     0.06429   0.89780   0.66614   0.00000  Uiso   1.00
C437   C     0.10329   0.88116   0.72643   0.00000  Uiso   1.00
H438   H     0.08218   0.77839   0.40936   0.00000  Uiso   1.00
H439   H     0.00746   0.72182   0.41675   0.00000  Uiso   1.00
H440   H     0.10698   0.81802   0.22731   0.00000  Uiso   1.00
H441   H     0.13961   0.78403   0.57487   0.00000  Uiso   1.00
H442   H     0.91280   0.67695   0.43923   0.00000  Uiso   1.00
H443   H     0.12265   0.87980   0.03980   0.00000  Uiso   1.00
H444   H     0.19147   0.80813   0.77270   0.00000  Uiso   1.00
H445   H     0.99111   0.91593   0.51967   0.00000  Uiso   1.00
H446   H     0.91139   0.86691   0.53313   0.00000  Uiso   1.00
H447   H     0.01091   0.96311   0.34368   0.00000  Uiso   1.00
H448   H     0.04354   0.92912   0.69124   0.00000  Uiso   1.00
H449   H     0.83482   0.79471   0.53367   0.00000  Uiso   1.00
H450   H     0.04468   0.99756   0.13425   0.00000  Uiso   1.00
H451   H     0.11349   0.92589   0.86715   0.00000  Uiso   1.00
O452   O     0.82301   0.70110   0.49327   0.00000  Uiso   1.00
O453   O     0.09833   0.96723   0.96926   0.00000  Uiso   1.00
O454   O     0.18862   0.87321   0.93080   0.00000  Uiso   1.00
N455   N     0.90539   0.71139   0.45963   0.00000  Uiso   1.00
N456   N     0.10158   0.90104   0.08619   0.00000  Uiso   1.00
N457   N     0.16593   0.83405   0.77137   0.00000  Uiso   1.00
N458   N     0.86343   0.77476   0.51045   0.00000  Uiso   1.00
N459   N     0.05962   0.96440   0.13701   0.00000  Uiso   1.00
N460   N     0.12397   0.89741   0.82219   0.00000  Uiso   1.00
C461   C     0.43868   0.69010   0.93463   0.00000  Uiso   1.00
C462   C     0.49191   0.70177   0.95396   0.00000  Uiso   1.00
C463   C     0.51329   0.74687   0.94188   0.00000  Uiso   1.00
C464   C     0.56248   0.75007   0.96344   0.00000  Uiso   1.00
C465   C     0.64105   0.77434   0.98846   0.00000  Uiso   1.00
C466   C     0.43784   0.64950   0.85102   0.00000  Uiso   1.00
C467   C     0.41376   0.65066   0.75241   0.00000  Uiso   1.00
C468   C     0.41744   0.60986   0.68732   0.00000  Uiso   1.00
C469   C     0.41204   0.55297   0.55257   0.00000  Uiso   1.00
C470   C     0.42012   0.66797   0.03986   0.00000  Uiso   1.00
C471   C     0.38112   0.68465   0.10002   0.00000  Uiso   1.00
C472   C     0.36986   0.65939   0.19392   0.00000  Uiso   1.00
C473   C     0.33694   0.63117   0.35236   0.00000  Uiso   1.00
C474   C     0.48803   0.61558   0.99440   0.00000  Uiso   1.00
C475   C     0.51871   0.66129   0.98642   0.00000  Uiso   1.00
C476   C     0.56788   0.66442   0.00801   0.00000  Uiso   1.00
C477   C     0.58933   0.70952   0.99597   0.00000  Uiso   1.00
C478   C     0.46464   0.60902   0.88348   0.00000  Uiso   1.00
C479   C     0.46835   0.56821   0.81853   0.00000  Uiso   1.00
C480   C     0.44428   0.56931   0.71984   0.00000  Uiso   1.00
C481   C     0.44692   0.62749   0.07233   0.00000  Uiso   1.00
C482   C     0.43571   0.60220   0.16614   0.00000  Uiso   1.00
C483   C     0.39671   0.61884   0.22643   0.00000  Uiso   1.00
H484   H     0.41782   0.72161   0.90936   0.00000  Uiso   1.00
H485   H     0.49254   0.77818   0.91675   0.00000  Uiso   1.00
H486   H     0.39302   0.68198   0.72731   0.00000  Uiso   1.00
H487   H     0.36039   0.71597   0.07487   0.00000  Uiso   1.00
H488   H     0.58720   0.82305   0.93923   0.00000  Uiso   1.00
H489   H     0.37735   0.62020   0.53980   0.00000  Uiso   1.00
H490   H     0.30853   0.69187   0.27270   0.00000  Uiso   1.00
H491   H     0.50889   0.58407   0.01967   0.00000  Uiso   1.00
H492   H     0.58861   0.63309   0.03313   0.00000  Uiso   1.00
H493   H     0.48909   0.53689   0.84368   0.00000  Uiso   1.00
H494   H     0.45646   0.57088   0.19124   0.00000  Uiso   1.00
H495   H     0.66518   0.70529   0.03367   0.00000  Uiso   1.00
H496   H     0.45532   0.50244   0.63425   0.00000  Uiso   1.00
H497   H     0.38651   0.57411   0.36715   0.00000  Uiso   1.00
O498   O     0.67699   0.79890   0.99327   0.00000  Uiso   1.00
O499   O     0.40167   0.53277   0.46926   0.00000  Uiso   1.00
O500   O     0.31138   0.62679   0.43080   0.00000  Uiso   1.00
N501   N     0.59461   0.78861   0.95963   0.00000  Uiso   1.00
N502   N     0.39842   0.59896   0.58619   0.00000  Uiso   1.00
N503   N     0.33407   0.66595   0.27137   0.00000  Uiso   1.00
N504   N     0.63657   0.72524   0.01045   0.00000  Uiso   1.00
N505   N     0.44038   0.53560   0.63701   0.00000  Uiso   1.00
N506   N     0.37603   0.60259   0.32219   0.00000  Uiso   1.00
C507   C     0.93868   0.19010   0.43463   0.00000  Uiso   1.00
C508   C     0.99191   0.20177   0.45396   0.00000  Uiso   1.00
C509   C     0.01329   0.24687   0.44188   0.00000  Uiso   1.00
C510   C     0.06248   0.25007   0.46344   0.00000  Uiso   1.00
C511   C     0.14105   0.27434   0.48846   0.00000  Uiso   1.00
C512   C     0.93784   0.14950   0.35102   0.00000  Uiso   1.00
C513   C     0.91376   0.15066   0.25241   0.00000  Uiso   1.00
C514   C     0.91744   0.10986   0.18732   0.00000  Uiso   1.00
C515   C     0.91204   0.05297   0.05257   0.00000  Uiso   1.00
C516   C     0.92012   0.16797   0.53986   0.00000  Uiso   1.00
C517   C     0.88112   0.18465   0.60002   0.00000  Uiso   1.00
C518   C     0.86986   0.15939   0.69392   0.00000  Uiso   1.00
C519   C     0.83694   0.13117   0.85236   0.00000  Uiso   1.00
C520   C     0.98803   0.11558   0.49440   0.00000  Uiso   1.00
C521   C     0.01871   0.16129   0.48642   0.00000  Uiso   1.00
C522   C     0.06788   0.16442   0.50801   0.00000  Uiso   1.00
C523   C     0.08933   0.20952   0.49597   0.00000  Uiso   1.00
C524   C     0.96464   0.10902   0.38348   0.00000  Uiso   1.00
C525   C     0.96835   0.06821   0.31853   0.00000  Uiso   1.00
C526   C     0.94428   0.06931   0.21984   0.00000  Uiso   1.00
C527   C     0.94692   0.12749   0.57233   0.00000  Uiso   1.00
C528   C     0.93571   0.10220   0.66614   0.00000  Uiso   1.00
C529   C     0.89671   0.11884   0.72643   0.00000  Uiso   1.00
H530   H     0.91782   0.22161   0.40936   0.00000  Uiso   1.00
H531   H     0.99254   0.27818   0.41675   0.00000  Uiso   1.00
H532   H     0.89302   0.18198   0.22731   0.00000  Uiso   1.00
H533   H     0.86039   0.21597   0.57487   0.00000  Uiso   1.00
H534   H     0.08720   0.32305   0.43923   0.00000  Uiso   1.00
H535   H     0.87735   0.12020   0.03980   0.00000  Uiso   1.00
H536   H     0.80853   0.19187   0.77270   0.00000  Uiso   1.00
H537   H     0.00889   0.08407   0.51967   0.00000  Uiso   1.00
H538   H     0.08861   0.13309   0.53313   0.00000  Uiso   1.00
H539   H     0.98909   0.03689   0.34368   0.00000  Uiso   1.00
H540   H     0.95646   0.07088   0.69124   0.00000  Uiso   1.00
H541   H     0.16518   0.20529   0.53367   0.00000  Uiso   1.00
H542   H     0.95532   0.00244   0.13425   0.00000  Uiso   1.00
H543   H     0.88651   0.07411   0.86715   0.00000  Uiso   1.00
O544   O     0.17699   0.29890   0.49327   0.00000  Uiso   1.00
O545   O     0.90167   0.03277   0.96926   0.00000  Uiso   1.00
O546   O     0.81138   0.12679   0.93080   0.00000  Uiso   1.00
N547   N     0.09461   0.28861   0.45963   0.00000  Uiso   1.00
N548   N     0.89842   0.09896   0.08619   0.00000  Uiso   1.00
N549   N     0.83407   0.16595   0.77137   0.00000  Uiso   1.00
N550   N     0.13657   0.22524   0.51045   0.00000  Uiso   1.00
N551   N     0.94038   0.03560   0.13701   0.00000  Uiso   1.00
N552   N     0.87603   0.10259   0.82219   0.00000  Uiso   1.00
C553   C     0.19010   0.06132   0.56537   0.00000  Uiso   1.00
C554   C     0.20177   0.00809   0.54604   0.00000  Uiso   1.00
C555   C     0.24687   0.98671   0.55812   0.00000  Uiso   1.00
C556   C     0.25007   0.93752   0.53656   0.00000  Uiso   1.00
C557   C     0.27434   0.85895   0.51154   0.00000  Uiso   1.00
C558   C     0.14950   0.06216   0.64898   0.00000  Uiso   1.00
C559   C     0.15066   0.08624   0.74759   0.00000  Uiso   1.00
C560   C     0.10986   0.08256   0.81268   0.00000  Uiso   1.00
C561   C     0.05297   0.08796   0.94743   0.00000  Uiso   1.00
C562   C     0.16797   0.07988   0.46014   0.00000  Uiso   1.00
C563   C     0.18465   0.11888   0.39998   0.00000  Uiso   1.00
C564   C     0.15939   0.13014   0.30608   0.00000  Uiso   1.00
C565   C     0.13117   0.16306   0.14764   0.00000  Uiso   1.00
C566   C     0.11558   0.01197   0.50560   0.00000  Uiso   1.00
C567   C     0.16129   0.98129   0.51358   0.00000  Uiso   1.00
C568   C     0.16442   0.93212   0.49199   0.00000  Uiso   1.00
C569   C     0.20952   0.91067   0.50403   0.00000  Uiso   1.00
C570   C     0.10902   0.03536   0.61652   0.00000  Uiso   1.00
C571   C     0.06821   0.03165   0.68147   0.00000  Uiso   1.00
C572   C     0.06931   0.05572   0.78016   0.00000  Uiso   1.00
C573   C     0.12749   0.05308   0.42767   0.00000  Uiso   1.00
C574   C     0.10220   0.06429   0.33386   0.00000  Uiso   1.00
C575   C     0.11884   0.10329   0.27357   0.00000  Uiso   1.00
H576   H     0.22161   0.08218   0.59064   0.00000  Uiso   1.00
H577   H     0.27818   0.00746   0.58325   0.00000  Uiso   1.00
H578   H     0.18198   0.10698   0.77269   0.00000  Uiso   1.00
H579   H     0.21597   0.13961   0.42513   0.00000  Uiso   1.00
H580   H     0.32305   0.91280   0.56077   0.00000  Uiso   1.00
H581   H     0.12020   0.12265   0.96020   0.00000  Uiso   1.00
H582   H     0.19187   0.19147   0.22730   0.00000  Uiso   1.00
H583   H     0.08407   0.99111   0.48033   0.00000  Uiso   1.00
H584   H     0.13309   0.91139   0.46687   0.00000  Uiso   1.00
H585   H     0.03689   0.01091   0.65632   0.00000  Uiso   1.00
H586   H     0.07088   0.04354   0.30876   0.00000  Uiso   1.00
H587   H     0.20529   0.83482   0.46633   0.00000  Uiso   1.00
H588   H     0.00244   0.04468   0.86575   0.00000  Uiso   1.00
H589   H     0.07411   0.11349   0.13285   0.00000  Uiso   1.00
O590   O     0.29890   0.82301   0.50673   0.00000  Uiso   1.00
O591   O     0.03277   0.09833   0.03074   0.00000  Uiso   1.00
O592   O     0.12679   0.18862   0.06920   0.00000  Uiso   1.00
N593   N     0.28861   0.90539   0.54037   0.00000  Uiso   1.00
N594   N     0.09896   0.10158   0.91381   0.00000  Uiso   1.00
N595   N     0.16595   0.16593   0.22863   0.00000  Uiso   1.00
N596   N     0.22524   0.86343   0.48955   0.00000  Uiso   1.00
N597   N     0.03560   0.05962   0.86299   0.00000  Uiso   1.00
N598   N     0.10259   0.12397   0.17781   0.00000  Uiso   1.00
C599   C     0.69010   0.56132   0.06537   0.00000  Uiso   1.00
C600   C     0.70177   0.50809   0.04604   0.00000  Uiso   1.00
C601   C     0.74687   0.48671   0.05812   0.00000  Uiso   1.00
C602   C     0.75007   0.43752   0.03656   0.00000  Uiso   1.00
C603   C     0.77434   0.35895   0.01154   0.00000  Uiso   1.00
C604   C     0.64950   0.56216   0.14898   0.00000  Uiso   1.00
C605   C     0.65066   0.58624   0.24759   0.00000  Uiso   1.00
C606   C     0.60986   0.58256   0.31268   0.00000  Uiso   1.00
C607   C     0.55297   0.58796   0.44743   0.00000  Uiso   1.00
C608   C     0.66797   0.57988   0.96014   0.00000  Uiso   1.00
C609   C     0.68465   0.61888   0.89998   0.00000  Uiso   1.00
C610   C     0.65939   0.63014   0.80608   0.00000  Uiso   1.00
C611   C     0.63117   0.66306   0.64764   0.00000  Uiso   1.00
C612   C     0.61558   0.51197   0.00560   0.00000  Uiso   1.00
C613   C     0.66129   0.48129   0.01358   0.00000  Uiso   1.00
C614   C     0.66442   0.43212   0.99199   0.00000  Uiso   1.00
C615   C     0.70952   0.41067   0.00403   0.00000  Uiso   1.00
C616   C     0.60902   0.53536   0.11652   0.00000  Uiso   1.00
C617   C     0.56821   0.53165   0.18147   0.00000  Uiso   1.00
C618   C     0.56931   0.55572   0.28016   0.00000  Uiso   1.00
C619   C     0.62749   0.55308   0.92767   0.00000  Uiso   1.00
C620   C     0.60220   0.56429   0.83386   0.00000  Uiso   1.00
C621   C     0.61884   0.60329   0.77357   0.00000  Uiso   1.00
H622   H     0.72161   0.58218   0.09064   0.00000  Uiso   1.00
H623   H     0.77818   0.50746   0.08325   0.00000  Uiso   1.00
H624   H     0.68198   0.60698   0.27269   0.00000  Uiso   1.00
H625   H     0.71597   0.63961   0.92513   0.00000  Uiso   1.00
H626   H     0.82305   0.41280   0.06077   0.00000  Uiso   1.00
H627   H     0.62020   0.62265   0.46020   0.00000  Uiso   1.00
H628   H     0.69187   0.69147   0.72730   0.00000  Uiso   1.00
H629   H     0.58407   0.49111   0.98033   0.00000  Uiso   1.00
H630   H     0.63309   0.41139   0.96687   0.00000  Uiso   1.00
H631   H     0.53689   0.51091   0.15632   0.00000  Uiso   1.00
H632   H     0.57088   0.54354   0.80876   0.00000  Uiso   1.00
H633   H     0.70529   0.33482   0.96633   0.00000  Uiso   1.00
H634   H     0.50244   0.54468   0.36575   0.00000  Uiso   1.00
H635   H     0.57411   0.61349   0.63285   0.00000  Uiso   1.00
O636   O     0.79890   0.32301   0.00673   0.00000  Uiso   1.00
O637   O     0.53277   0.59833   0.53074   0.00000  Uiso   1.00
O638   O     0.62679   0.68862   0.56920   0.00000  Uiso   1.00
N639   N     0.78861   0.40539   0.04037   0.00000  Uiso   1.00
N640   N     0.59896   0.60158   0.41381   0.00000  Uiso   1.00
N641   N     0.66595   0.66593   0.72863   0.00000  Uiso   1.00
N642   N     0.72524   0.36343   0.98955   0.00000  Uiso   1.00
N643   N     0.53560   0.55962   0.36299   0.00000  Uiso   1.00
N644   N     0.60259   0.62397   0.67781   0.00000  Uiso   1.00
C645   C     0.80990   0.93868   0.56537   0.00000  Uiso   1.00
C646   C     0.79823   0.99191   0.54604   0.00000  Uiso   1.00
C647   C     0.75313   0.01329   0.55812   0.00000  Uiso   1.00
C648   C     0.74993   0.06248   0.53656   0.00000  Uiso   1.00
C649   C     0.72566   0.14105   0.51154   0.00000  Uiso   1.00
C650   C     0.85050   0.93784   0.64898   0.00000  Uiso   1.00
C651   C     0.84934   0.91376   0.74759   0.00000  Uiso   1.00
C652   C     0.89014   0.91744   0.81268   0.00000  Uiso   1.00
C653   C     0.94703   0.91204   0.94743   0.00000  Uiso   1.00
C654   C     0.83203   0.92012   0.46014   0.00000  Uiso   1.00
C655   C     0.81535   0.88112   0.39998   0.00000  Uiso   1.00
C656   C     0.84061   0.86986   0.30608   0.00000  Uiso   1.00
C657   C     0.86883   0.83694   0.14764   0.00000  Uiso   1.00
C658   C     0.88442   0.98803   0.50560   0.00000  Uiso   1.00
C659   C     0.83871   0.01871   0.51358   0.00000  Uiso   1.00
C660   C     0.83558   0.06788   0.49199   0.00000  Uiso   1.00
C661   C     0.79048   0.08933   0.50403   0.00000  Uiso   1.00
C662   C     0.89098   0.96464   0.61652   0.00000  Uiso   1.00
C663   C     0.93179   0.96835   0.68147   0.00000  Uiso   1.00
C664   C     0.93069   0.94428   0.78016   0.00000  Uiso   1.00
C665   C     0.87251   0.94692   0.42767   0.00000  Uiso   1.00
C666   C     0.89780   0.93571   0.33386   0.00000  Uiso   1.00
C667   C     0.88116   0.89671   0.27357   0.00000  Uiso   1.00
H668   H     0.77839   0.91782   0.59064   0.00000  Uiso   1.00
H669   H     0.72182   0.99254   0.58325   0.00000  Uiso   1.00
H670   H     0.81802   0.89302   0.77269   0.00000  Uiso   1.00
H671   H     0.78403   0.86039   0.42513   0.00000  Uiso   1.00
H672   H     0.67695   0.08720   0.56077   0.00000  Uiso   1.00
H673   H     0.87980   0.87735   0.96020   0.00000  Uiso   1.00
H674   H     0.80813   0.80853   0.22730   0.00000  Uiso   1.00
H675   H     0.91593   0.00889   0.48033   0.00000  Uiso   1.00
H676   H     0.86691   0.08861   0.46687   0.00000  Uiso   1.00
H677   H     0.96311   0.98909   0.65632   0.00000  Uiso   1.00
H678   H     0.92912   0.95646   0.30876   0.00000  Uiso   1.00
H679   H     0.79471   0.16518   0.46633   0.00000  Uiso   1.00
H680   H     0.99756   0.95532   0.86575   0.00000  Uiso   1.00
H681   H     0.92589   0.88651   0.13285   0.00000  Uiso   1.00
O682   O     0.70110   0.17699   0.50673   0.00000  Uiso   1.00
O683   O     0.96723   0.90167   0.03074   0.00000  Uiso   1.00
O684   O     0.87321   0.81138   0.06920   0.00000  Uiso   1.00
N685   N     0.71139   0.09461   0.54037   0.00000  Uiso   1.00
N686   N     0.90104   0.89842   0.91381   0.00000  Uiso   1.00
N687   N     0.83405   0.83407   0.22863   0.00000  Uiso   1.00
N688   N     0.77476   0.13657   0.48955   0.00000  Uiso   1.00
N689   N     0.96440   0.94038   0.86299   0.00000  Uiso   1.00
N690   N     0.89741   0.87603   0.17781   0.00000  Uiso   1.00
C691   C     0.30990   0.43868   0.06537   0.00000  Uiso   1.00
C692   C     0.29823   0.49191   0.04604   0.00000  Uiso   1.00
C693   C     0.25313   0.51329   0.05812   0.00000  Uiso   1.00
C694   C     0.24993   0.56248   0.03656   0.00000  Uiso   1.00
C695   C     0.22566   0.64105   0.01154   0.00000  Uiso   1.00
C696   C     0.35050   0.43784   0.14898   0.00000  Uiso   1.00
C697   C     0.34934   0.41376   0.24759   0.00000  Uiso   1.00
C698   C     0.39014   0.41744   0.31268   0.00000  Uiso   1.00
C699   C     0.44703   0.41204   0.44743   0.00000  Uiso   1.00
C700   C     0.33203   0.42012   0.96014   0.00000  Uiso   1.00
C701   C     0.31535   0.38112   0.89998   0.00000  Uiso   1.00
C702   C     0.34061   0.36986   0.80608   0.00000  Uiso   1.00
C703   C     0.36883   0.33694   0.64764   0.00000  Uiso   1.00
C704   C     0.38442   0.48803   0.00560   0.00000  Uiso   1.00
C705   C     0.33871   0.51871   0.01358   0.00000  Uiso   1.00
C706   C     0.33558   0.56788   0.99199   0.00000  Uiso   1.00
C707   C     0.29048   0.58933   0.00403   0.00000  Uiso   1.00
C708   C     0.39098   0.46464   0.11652   0.00000  Uiso   1.00
C709   C     0.43179   0.46835   0.18147   0.00000  Uiso   1.00
C710   C     0.43069   0.44428   0.28016   0.00000  Uiso   1.00
C711   C     0.37251   0.44692   0.92767   0.00000  Uiso   1.00
C712   C     0.39780   0.43571   0.83386   0.00000  Uiso   1.00
C713   C     0.38116   0.39671   0.77357   0.00000  Uiso   1.00
H714   H     0.27839   0.41782   0.09064   0.00000  Uiso   1.00
H715   H     0.22182   0.49254   0.08325   0.00000  Uiso   1.00
H716   H     0.31802   0.39302   0.27269   0.00000  Uiso   1.00
H717   H     0.28403   0.36039   0.92513   0.00000  Uiso   1.00
H718   H     0.17695   0.58720   0.06077   0.00000  Uiso   1.00
H719   H     0.37980   0.37735   0.46020   0.00000  Uiso   1.00
H720   H     0.30813   0.30853   0.72730   0.00000  Uiso   1.00
H721   H     0.41593   0.50889   0.98033   0.00000  Uiso   1.00
H722   H     0.36691   0.58861   0.96687   0.00000  Uiso   1.00
H723   H     0.46311   0.48909   0.15632   0.00000  Uiso   1.00
H724   H     0.42912   0.45646   0.80876   0.00000  Uiso   1.00
H725   H     0.29471   0.66518   0.96633   0.00000  Uiso   1.00
H726   H     0.49756   0.45532   0.36575   0.00000  Uiso   1.00
H727   H     0.42589   0.38651   0.63285   0.00000  Uiso   1.00
O728   O     0.20110   0.67699   0.00673   0.00000  Uiso   1.00
O729   O     0.46723   0.40167   0.53074   0.00000  Uiso   1.00
O730   O     0.37321   0.31138   0.56920   0.00000  Uiso   1.00
N731   N     0.21139   0.59461   0.04037   0.00000  Uiso   1.00
N732   N     0.40104   0.39842   0.41381   0.00000  Uiso   1.00
N733   N     0.33405   0.33407   0.72863   0.00000  Uiso   1.00
N734   N     0.27476   0.63657   0.98955   0.00000  Uiso   1.00
N735   N     0.46440   0.44038   0.36299   0.00000  Uiso   1.00
N736   N     0.39741   0.37603   0.67781   0.00000  Uiso   1.00
