data_job_05806
_audit_creation_date              2018-12-19
_audit_creation_method            'Materials Studio'
_symmetry_space_group_name_H-M    'P1'
_symmetry_Int_Tables_number       1
_symmetry_cell_setting            triclinic
loop_
_symmetry_equiv_pos_as_xyz
  x,y,z
_cell_length_a                    41.6938
_cell_length_b                    17.2906
_cell_length_c                    23.0509
_cell_angle_alpha                 90.0000
_cell_angle_beta                  90.0000
_cell_angle_gamma                 90.0000
loop_
_atom_site_label
_atom_site_type_symbol
_atom_site_fract_x
_atom_site_fract_y
_atom_site_fract_z
_atom_site_U_iso_or_equiv
_atom_site_adp_type
_atom_site_occupancy
C1     C     0.67267   0.54076   0.54511   0.00000  Uiso   1.00
C2     C     0.63712   0.53529   0.53018   0.00000  Uiso   1.00
C3     C     0.61717   0.59711   0.51702   0.00000  Uiso   1.00
C4     C     0.58537   0.58006   0.50458   0.00000  Uiso   1.00
C5     C     0.53189   0.58315   0.48132   0.00000  Uiso   1.00
C6     C     0.67650   0.50217   0.60419   0.00000  Uiso   1.00
C7     C     0.68969   0.53614   0.65325   0.00000  Uiso   1.00
C8     C     0.69104   0.49120   0.70311   0.00000  Uiso   1.00
C9     C     0.69874   0.44285   0.79474   0.00000  Uiso   1.00
C10    C     0.69000   0.48873   0.50185   0.00000  Uiso   1.00
C11    C     0.71453   0.51139   0.46488   0.00000  Uiso   1.00
C12    C     0.72725   0.45513   0.42858   0.00000  Uiso   1.00
C13    C     0.75589   0.38592   0.36132   0.00000  Uiso   1.00
C14    C     0.65165   0.40054   0.54641   0.00000  Uiso   1.00
C15    C     0.62570   0.45913   0.53089   0.00000  Uiso   1.00
C16    C     0.59392   0.44197   0.51846   0.00000  Uiso   1.00
C17    C     0.57393   0.50376   0.50528   0.00000  Uiso   1.00
C18    C     0.66509   0.42601   0.60490   0.00000  Uiso   1.00
C19    C     0.66643   0.38100   0.65469   0.00000  Uiso   1.00
C20    C     0.67960   0.41490   0.70381   0.00000  Uiso   1.00
C21    C     0.67858   0.41256   0.50255   0.00000  Uiso   1.00
C22    C     0.69127   0.35625   0.46631   0.00000  Uiso   1.00
C23    C     0.71581   0.37882   0.42929   0.00000  Uiso   1.00
H24    H     0.68156   0.60006   0.54456   0.00000  Uiso   1.00
H25    H     0.62602   0.65605   0.51649   0.00000  Uiso   1.00
H26    H     0.69852   0.59508   0.65269   0.00000  Uiso   1.00
H27    H     0.72336   0.57034   0.46435   0.00000  Uiso   1.00
H28    H     0.55940   0.68454   0.48569   0.00000  Uiso   1.00
H29    H     0.71228   0.55598   0.77288   0.00000  Uiso   1.00
H30    H     0.76466   0.50380   0.37572   0.00000  Uiso   1.00
H31    H     0.64276   0.34124   0.54696   0.00000  Uiso   1.00
H32    H     0.58509   0.38302   0.51901   0.00000  Uiso   1.00
H33    H     0.65759   0.32206   0.65522   0.00000  Uiso   1.00
H34    H     0.68243   0.29732   0.46687   0.00000  Uiso   1.00
H35    H     0.52618   0.46294   0.48774   0.00000  Uiso   1.00
H36    H     0.67907   0.33439   0.77493   0.00000  Uiso   1.00
H37    H     0.73144   0.28221   0.37777   0.00000  Uiso   1.00
O38    O     0.50554   0.60590   0.46830   0.00000  Uiso   1.00
O39    O     0.70613   0.43724   0.84509   0.00000  Uiso   1.00
O40    O     0.77484   0.36878   0.32402   0.00000  Uiso   1.00
N41    N     0.55950   0.62665   0.48999   0.00000  Uiso   1.00
N42    N     0.70243   0.50646   0.75851   0.00000  Uiso   1.00
N43    N     0.75140   0.45767   0.38720   0.00000  Uiso   1.00
N44    N     0.54162   0.50741   0.49110   0.00000  Uiso   1.00
N45    N     0.68456   0.38722   0.75961   0.00000  Uiso   1.00
N46    N     0.73353   0.33843   0.38831   0.00000  Uiso   1.00
C47    C     0.67267   0.04076   0.04511   0.00000  Uiso   1.00
C48    C     0.63712   0.03529   0.03018   0.00000  Uiso   1.00
C49    C     0.61717   0.09711   0.01702   0.00000  Uiso   1.00
C50    C     0.58537   0.08006   0.00458   0.00000  Uiso   1.00
C51    C     0.53189   0.08315   0.98132   0.00000  Uiso   1.00
C52    C     0.67650   0.00217   0.10419   0.00000  Uiso   1.00
C53    C     0.68969   0.03614   0.15325   0.00000  Uiso   1.00
C54    C     0.69104   0.99120   0.20311   0.00000  Uiso   1.00
C55    C     0.69874   0.94285   0.29474   0.00000  Uiso   1.00
C56    C     0.69000   0.98873   0.00185   0.00000  Uiso   1.00
C57    C     0.71453   0.01139   0.96488   0.00000  Uiso   1.00
C58    C     0.72725   0.95513   0.92858   0.00000  Uiso   1.00
C59    C     0.75589   0.88592   0.86132   0.00000  Uiso   1.00
C60    C     0.65165   0.90054   0.04641   0.00000  Uiso   1.00
C61    C     0.62570   0.95913   0.03089   0.00000  Uiso   1.00
C62    C     0.59392   0.94197   0.01846   0.00000  Uiso   1.00
C63    C     0.57393   0.00376   0.00528   0.00000  Uiso   1.00
C64    C     0.66509   0.92601   0.10490   0.00000  Uiso   1.00
C65    C     0.66643   0.88100   0.15469   0.00000  Uiso   1.00
C66    C     0.67960   0.91490   0.20381   0.00000  Uiso   1.00
C67    C     0.67858   0.91256   0.00255   0.00000  Uiso   1.00
C68    C     0.69127   0.85625   0.96631   0.00000  Uiso   1.00
C69    C     0.71581   0.87882   0.92929   0.00000  Uiso   1.00
H70    H     0.68156   0.10006   0.04456   0.00000  Uiso   1.00
H71    H     0.62602   0.15605   0.01649   0.00000  Uiso   1.00
H72    H     0.69852   0.09508   0.15269   0.00000  Uiso   1.00
H73    H     0.72336   0.07034   0.96435   0.00000  Uiso   1.00
H74    H     0.55940   0.18454   0.98569   0.00000  Uiso   1.00
H75    H     0.71228   0.05598   0.27288   0.00000  Uiso   1.00
H76    H     0.76466   0.00380   0.87572   0.00000  Uiso   1.00
H77    H     0.64276   0.84124   0.04696   0.00000  Uiso   1.00
H78    H     0.58509   0.88302   0.01901   0.00000  Uiso   1.00
H79    H     0.65759   0.82206   0.15522   0.00000  Uiso   1.00
H80    H     0.68243   0.79732   0.96687   0.00000  Uiso   1.00
H81    H     0.52618   0.96294   0.98774   0.00000  Uiso   1.00
H82    H     0.67907   0.83439   0.27493   0.00000  Uiso   1.00
H83    H     0.73144   0.78221   0.87777   0.00000  Uiso   1.00
O84    O     0.50554   0.10590   0.96830   0.00000  Uiso   1.00
O85    O     0.70613   0.93724   0.34509   0.00000  Uiso   1.00
O86    O     0.77484   0.86878   0.82402   0.00000  Uiso   1.00
N87    N     0.55950   0.12665   0.98999   0.00000  Uiso   1.00
N88    N     0.70243   0.00646   0.25851   0.00000  Uiso   1.00
N89    N     0.75140   0.95767   0.88720   0.00000  Uiso   1.00
N90    N     0.54162   0.00741   0.99110   0.00000  Uiso   1.00
N91    N     0.68456   0.88722   0.25961   0.00000  Uiso   1.00
N92    N     0.73353   0.83843   0.88831   0.00000  Uiso   1.00
C93    C     0.17267   0.54076   0.04511   0.00000  Uiso   1.00
C94    C     0.13712   0.53529   0.03018   0.00000  Uiso   1.00
C95    C     0.11717   0.59711   0.01702   0.00000  Uiso   1.00
C96    C     0.08537   0.58006   0.00458   0.00000  Uiso   1.00
C97    C     0.03189   0.58315   0.98132   0.00000  Uiso   1.00
C98    C     0.17650   0.50217   0.10419   0.00000  Uiso   1.00
C99    C     0.18969   0.53614   0.15325   0.00000  Uiso   1.00
C100   C     0.19104   0.49120   0.20311   0.00000  Uiso   1.00
C101   C     0.19874   0.44285   0.29474   0.00000  Uiso   1.00
C102   C     0.19000   0.48873   0.00185   0.00000  Uiso   1.00
C103   C     0.21453   0.51139   0.96488   0.00000  Uiso   1.00
C104   C     0.22725   0.45513   0.92858   0.00000  Uiso   1.00
C105   C     0.25589   0.38592   0.86132   0.00000  Uiso   1.00
C106   C     0.15165   0.40054   0.04641   0.00000  Uiso   1.00
C107   C     0.12570   0.45913   0.03089   0.00000  Uiso   1.00
C108   C     0.09392   0.44197   0.01846   0.00000  Uiso   1.00
C109   C     0.07393   0.50376   0.00528   0.00000  Uiso   1.00
C110   C     0.16509   0.42601   0.10490   0.00000  Uiso   1.00
C111   C     0.16643   0.38100   0.15469   0.00000  Uiso   1.00
C112   C     0.17960   0.41490   0.20381   0.00000  Uiso   1.00
C113   C     0.17858   0.41256   0.00255   0.00000  Uiso   1.00
C114   C     0.19127   0.35625   0.96631   0.00000  Uiso   1.00
C115   C     0.21581   0.37882   0.92929   0.00000  Uiso   1.00
H116   H     0.18156   0.60006   0.04456   0.00000  Uiso   1.00
H117   H     0.12602   0.65605   0.01649   0.00000  Uiso   1.00
H118   H     0.19852   0.59508   0.15269   0.00000  Uiso   1.00
H119   H     0.22336   0.57034   0.96435   0.00000  Uiso   1.00
H120   H     0.05940   0.68454   0.98569   0.00000  Uiso   1.00
H121   H     0.21228   0.55598   0.27288   0.00000  Uiso   1.00
H122   H     0.26466   0.50380   0.87572   0.00000  Uiso   1.00
H123   H     0.14276   0.34124   0.04696   0.00000  Uiso   1.00
H124   H     0.08509   0.38302   0.01901   0.00000  Uiso   1.00
H125   H     0.15759   0.32206   0.15522   0.00000  Uiso   1.00
H126   H     0.18243   0.29732   0.96687   0.00000  Uiso   1.00
H127   H     0.02618   0.46294   0.98774   0.00000  Uiso   1.00
H128   H     0.17907   0.33439   0.27493   0.00000  Uiso   1.00
H129   H     0.23144   0.28221   0.87777   0.00000  Uiso   1.00
O130   O     0.00554   0.60590   0.96830   0.00000  Uiso   1.00
O131   O     0.20613   0.43724   0.34509   0.00000  Uiso   1.00
O132   O     0.27484   0.36878   0.82402   0.00000  Uiso   1.00
N133   N     0.05950   0.62665   0.98999   0.00000  Uiso   1.00
N134   N     0.20243   0.50646   0.25851   0.00000  Uiso   1.00
N135   N     0.25140   0.45767   0.88720   0.00000  Uiso   1.00
N136   N     0.04162   0.50741   0.99110   0.00000  Uiso   1.00
N137   N     0.18456   0.38722   0.25961   0.00000  Uiso   1.00
N138   N     0.23353   0.33843   0.88831   0.00000  Uiso   1.00
C139   C     0.17267   0.04076   0.54511   0.00000  Uiso   1.00
C140   C     0.13712   0.03529   0.53018   0.00000  Uiso   1.00
C141   C     0.11717   0.09711   0.51702   0.00000  Uiso   1.00
C142   C     0.08537   0.08006   0.50458   0.00000  Uiso   1.00
C143   C     0.03189   0.08315   0.48132   0.00000  Uiso   1.00
C144   C     0.17650   0.00217   0.60419   0.00000  Uiso   1.00
C145   C     0.18969   0.03614   0.65325   0.00000  Uiso   1.00
C146   C     0.19104   0.99120   0.70311   0.00000  Uiso   1.00
C147   C     0.19874   0.94285   0.79474   0.00000  Uiso   1.00
C148   C     0.19000   0.98873   0.50185   0.00000  Uiso   1.00
C149   C     0.21453   0.01139   0.46488   0.00000  Uiso   1.00
C150   C     0.22725   0.95513   0.42858   0.00000  Uiso   1.00
C151   C     0.25589   0.88592   0.36132   0.00000  Uiso   1.00
C152   C     0.15165   0.90054   0.54641   0.00000  Uiso   1.00
C153   C     0.12570   0.95913   0.53089   0.00000  Uiso   1.00
C154   C     0.09392   0.94197   0.51846   0.00000  Uiso   1.00
C155   C     0.07393   0.00376   0.50528   0.00000  Uiso   1.00
C156   C     0.16509   0.92601   0.60490   0.00000  Uiso   1.00
C157   C     0.16643   0.88100   0.65469   0.00000  Uiso   1.00
C158   C     0.17960   0.91490   0.70381   0.00000  Uiso   1.00
C159   C     0.17858   0.91256   0.50255   0.00000  Uiso   1.00
C160   C     0.19127   0.85625   0.46631   0.00000  Uiso   1.00
C161   C     0.21581   0.87882   0.42929   0.00000  Uiso   1.00
H162   H     0.18156   0.10006   0.54456   0.00000  Uiso   1.00
H163   H     0.12602   0.15605   0.51649   0.00000  Uiso   1.00
H164   H     0.19852   0.09508   0.65269   0.00000  Uiso   1.00
H165   H     0.22336   0.07034   0.46435   0.00000  Uiso   1.00
H166   H     0.05940   0.18454   0.48569   0.00000  Uiso   1.00
H167   H     0.21228   0.05598   0.77288   0.00000  Uiso   1.00
H168   H     0.26466   0.00380   0.37572   0.00000  Uiso   1.00
H169   H     0.14276   0.84124   0.54696   0.00000  Uiso   1.00
H170   H     0.08509   0.88302   0.51901   0.00000  Uiso   1.00
H171   H     0.15759   0.82206   0.65522   0.00000  Uiso   1.00
H172   H     0.18243   0.79732   0.46687   0.00000  Uiso   1.00
H173   H     0.02618   0.96294   0.48774   0.00000  Uiso   1.00
H174   H     0.17907   0.83439   0.77493   0.00000  Uiso   1.00
H175   H     0.23144   0.78221   0.37777   0.00000  Uiso   1.00
O176   O     0.00554   0.10590   0.46830   0.00000  Uiso   1.00
O177   O     0.20613   0.93724   0.84509   0.00000  Uiso   1.00
O178   O     0.27484   0.86878   0.32402   0.00000  Uiso   1.00
N179   N     0.05950   0.12665   0.48999   0.00000  Uiso   1.00
N180   N     0.20243   0.00646   0.75851   0.00000  Uiso   1.00
N181   N     0.25140   0.95767   0.38720   0.00000  Uiso   1.00
N182   N     0.04162   0.00741   0.49110   0.00000  Uiso   1.00
N183   N     0.18456   0.88722   0.75961   0.00000  Uiso   1.00
N184   N     0.23353   0.83843   0.38831   0.00000  Uiso   1.00
C185   C     0.32733   0.45924   0.54511   0.00000  Uiso   1.00
C186   C     0.36288   0.46471   0.53018   0.00000  Uiso   1.00
C187   C     0.38283   0.40289   0.51702   0.00000  Uiso   1.00
C188   C     0.41463   0.41994   0.50458   0.00000  Uiso   1.00
C189   C     0.46811   0.41685   0.48132   0.00000  Uiso   1.00
C190   C     0.32350   0.49783   0.60419   0.00000  Uiso   1.00
C191   C     0.31031   0.46386   0.65325   0.00000  Uiso   1.00
C192   C     0.30896   0.50880   0.70311   0.00000  Uiso   1.00
C193   C     0.30126   0.55715   0.79474   0.00000  Uiso   1.00
C194   C     0.31000   0.51127   0.50185   0.00000  Uiso   1.00
C195   C     0.28547   0.48861   0.46488   0.00000  Uiso   1.00
C196   C     0.27275   0.54487   0.42858   0.00000  Uiso   1.00
C197   C     0.24411   0.61408   0.36132   0.00000  Uiso   1.00
C198   C     0.34835   0.59946   0.54641   0.00000  Uiso   1.00
C199   C     0.37430   0.54087   0.53089   0.00000  Uiso   1.00
C200   C     0.40608   0.55803   0.51846   0.00000  Uiso   1.00
C201   C     0.42607   0.49624   0.50528   0.00000  Uiso   1.00
C202   C     0.33491   0.57399   0.60490   0.00000  Uiso   1.00
C203   C     0.33357   0.61900   0.65469   0.00000  Uiso   1.00
C204   C     0.32040   0.58510   0.70381   0.00000  Uiso   1.00
C205   C     0.32142   0.58744   0.50255   0.00000  Uiso   1.00
C206   C     0.30873   0.64375   0.46631   0.00000  Uiso   1.00
C207   C     0.28419   0.62118   0.42929   0.00000  Uiso   1.00
H208   H     0.31844   0.39994   0.54456   0.00000  Uiso   1.00
H209   H     0.37398   0.34395   0.51649   0.00000  Uiso   1.00
H210   H     0.30148   0.40492   0.65269   0.00000  Uiso   1.00
H211   H     0.27664   0.42966   0.46435   0.00000  Uiso   1.00
H212   H     0.44060   0.31546   0.48569   0.00000  Uiso   1.00
H213   H     0.28772   0.44402   0.77288   0.00000  Uiso   1.00
H214   H     0.23534   0.49620   0.37572   0.00000  Uiso   1.00
H215   H     0.35724   0.65876   0.54696   0.00000  Uiso   1.00
H216   H     0.41491   0.61698   0.51901   0.00000  Uiso   1.00
H217   H     0.34241   0.67794   0.65522   0.00000  Uiso   1.00
H218   H     0.31757   0.70268   0.46687   0.00000  Uiso   1.00
H219   H     0.47382   0.53706   0.48774   0.00000  Uiso   1.00
H220   H     0.32093   0.66561   0.77493   0.00000  Uiso   1.00
H221   H     0.26856   0.71779   0.37777   0.00000  Uiso   1.00
O222   O     0.49446   0.39410   0.46830   0.00000  Uiso   1.00
O223   O     0.29387   0.56276   0.84509   0.00000  Uiso   1.00
O224   O     0.22516   0.63122   0.32402   0.00000  Uiso   1.00
N225   N     0.44050   0.37335   0.48999   0.00000  Uiso   1.00
N226   N     0.29757   0.49354   0.75851   0.00000  Uiso   1.00
N227   N     0.24860   0.54233   0.38720   0.00000  Uiso   1.00
N228   N     0.45838   0.49259   0.49110   0.00000  Uiso   1.00
N229   N     0.31544   0.61278   0.75961   0.00000  Uiso   1.00
N230   N     0.26647   0.66157   0.38831   0.00000  Uiso   1.00
C231   C     0.32733   0.95924   0.04511   0.00000  Uiso   1.00
C232   C     0.36288   0.96471   0.03018   0.00000  Uiso   1.00
C233   C     0.38283   0.90289   0.01702   0.00000  Uiso   1.00
C234   C     0.41463   0.91994   0.00458   0.00000  Uiso   1.00
C235   C     0.46811   0.91685   0.98132   0.00000  Uiso   1.00
C236   C     0.32350   0.99783   0.10419   0.00000  Uiso   1.00
C237   C     0.31031   0.96386   0.15325   0.00000  Uiso   1.00
C238   C     0.30896   0.00880   0.20311   0.00000  Uiso   1.00
C239   C     0.30126   0.05715   0.29474   0.00000  Uiso   1.00
C240   C     0.31000   0.01127   0.00185   0.00000  Uiso   1.00
C241   C     0.28547   0.98861   0.96488   0.00000  Uiso   1.00
C242   C     0.27275   0.04487   0.92858   0.00000  Uiso   1.00
C243   C     0.24411   0.11408   0.86132   0.00000  Uiso   1.00
C244   C     0.34835   0.09946   0.04641   0.00000  Uiso   1.00
C245   C     0.37430   0.04087   0.03089   0.00000  Uiso   1.00
C246   C     0.40608   0.05803   0.01846   0.00000  Uiso   1.00
C247   C     0.42607   0.99624   0.00528   0.00000  Uiso   1.00
C248   C     0.33491   0.07399   0.10490   0.00000  Uiso   1.00
C249   C     0.33357   0.11900   0.15469   0.00000  Uiso   1.00
C250   C     0.32040   0.08510   0.20381   0.00000  Uiso   1.00
C251   C     0.32142   0.08744   0.00255   0.00000  Uiso   1.00
C252   C     0.30873   0.14375   0.96631   0.00000  Uiso   1.00
C253   C     0.28419   0.12118   0.92929   0.00000  Uiso   1.00
H254   H     0.31844   0.89994   0.04456   0.00000  Uiso   1.00
H255   H     0.37398   0.84395   0.01649   0.00000  Uiso   1.00
H256   H     0.30148   0.90492   0.15269   0.00000  Uiso   1.00
H257   H     0.27664   0.92966   0.96435   0.00000  Uiso   1.00
H258   H     0.44060   0.81546   0.98569   0.00000  Uiso   1.00
H259   H     0.28772   0.94402   0.27288   0.00000  Uiso   1.00
H260   H     0.23534   0.99620   0.87572   0.00000  Uiso   1.00
H261   H     0.35724   0.15876   0.04696   0.00000  Uiso   1.00
H262   H     0.41491   0.11698   0.01901   0.00000  Uiso   1.00
H263   H     0.34241   0.17794   0.15522   0.00000  Uiso   1.00
H264   H     0.31757   0.20268   0.96687   0.00000  Uiso   1.00
H265   H     0.47382   0.03706   0.98774   0.00000  Uiso   1.00
H266   H     0.32093   0.16561   0.27493   0.00000  Uiso   1.00
H267   H     0.26856   0.21779   0.87777   0.00000  Uiso   1.00
O268   O     0.49446   0.89410   0.96830   0.00000  Uiso   1.00
O269   O     0.29387   0.06276   0.34509   0.00000  Uiso   1.00
O270   O     0.22516   0.13122   0.82402   0.00000  Uiso   1.00
N271   N     0.44050   0.87335   0.98999   0.00000  Uiso   1.00
N272   N     0.29757   0.99354   0.25851   0.00000  Uiso   1.00
N273   N     0.24860   0.04233   0.88720   0.00000  Uiso   1.00
N274   N     0.45838   0.99259   0.99110   0.00000  Uiso   1.00
N275   N     0.31544   0.11278   0.25961   0.00000  Uiso   1.00
N276   N     0.26647   0.16157   0.88831   0.00000  Uiso   1.00
C277   C     0.82733   0.45924   0.04511   0.00000  Uiso   1.00
C278   C     0.86288   0.46471   0.03018   0.00000  Uiso   1.00
C279   C     0.88283   0.40289   0.01702   0.00000  Uiso   1.00
C280   C     0.91463   0.41994   0.00458   0.00000  Uiso   1.00
C281   C     0.96811   0.41685   0.98132   0.00000  Uiso   1.00
C282   C     0.82350   0.49783   0.10419   0.00000  Uiso   1.00
C283   C     0.81031   0.46386   0.15325   0.00000  Uiso   1.00
C284   C     0.80896   0.50880   0.20311   0.00000  Uiso   1.00
C285   C     0.80126   0.55715   0.29474   0.00000  Uiso   1.00
C286   C     0.81000   0.51127   0.00185   0.00000  Uiso   1.00
C287   C     0.78547   0.48861   0.96488   0.00000  Uiso   1.00
C288   C     0.77275   0.54487   0.92858   0.00000  Uiso   1.00
C289   C     0.74411   0.61408   0.86132   0.00000  Uiso   1.00
C290   C     0.84835   0.59946   0.04641   0.00000  Uiso   1.00
C291   C     0.87430   0.54087   0.03089   0.00000  Uiso   1.00
C292   C     0.90608   0.55803   0.01846   0.00000  Uiso   1.00
C293   C     0.92607   0.49624   0.00528   0.00000  Uiso   1.00
C294   C     0.83491   0.57399   0.10490   0.00000  Uiso   1.00
C295   C     0.83357   0.61900   0.15469   0.00000  Uiso   1.00
C296   C     0.82040   0.58510   0.20381   0.00000  Uiso   1.00
C297   C     0.82142   0.58744   0.00255   0.00000  Uiso   1.00
C298   C     0.80873   0.64375   0.96631   0.00000  Uiso   1.00
C299   C     0.78419   0.62118   0.92929   0.00000  Uiso   1.00
H300   H     0.81844   0.39994   0.04456   0.00000  Uiso   1.00
H301   H     0.87398   0.34395   0.01649   0.00000  Uiso   1.00
H302   H     0.80148   0.40492   0.15269   0.00000  Uiso   1.00
H303   H     0.77664   0.42966   0.96435   0.00000  Uiso   1.00
H304   H     0.94060   0.31546   0.98569   0.00000  Uiso   1.00
H305   H     0.78772   0.44402   0.27288   0.00000  Uiso   1.00
H306   H     0.73534   0.49620   0.87572   0.00000  Uiso   1.00
H307   H     0.85724   0.65876   0.04696   0.00000  Uiso   1.00
H308   H     0.91491   0.61698   0.01901   0.00000  Uiso   1.00
H309   H     0.84241   0.67794   0.15522   0.00000  Uiso   1.00
H310   H     0.81757   0.70268   0.96687   0.00000  Uiso   1.00
H311   H     0.97382   0.53706   0.98774   0.00000  Uiso   1.00
H312   H     0.82093   0.66561   0.27493   0.00000  Uiso   1.00
H313   H     0.76856   0.71779   0.87777   0.00000  Uiso   1.00
O314   O     0.99446   0.39410   0.96830   0.00000  Uiso   1.00
O315   O     0.79387   0.56276   0.34509   0.00000  Uiso   1.00
O316   O     0.72516   0.63122   0.82402   0.00000  Uiso   1.00
N317   N     0.94050   0.37335   0.98999   0.00000  Uiso   1.00
N318   N     0.79757   0.49354   0.25851   0.00000  Uiso   1.00
N319   N     0.74860   0.54233   0.88720   0.00000  Uiso   1.00
N320   N     0.95838   0.49259   0.99110   0.00000  Uiso   1.00
N321   N     0.81544   0.61278   0.25961   0.00000  Uiso   1.00
N322   N     0.76647   0.66157   0.88831   0.00000  Uiso   1.00
C323   C     0.82733   0.95924   0.54511   0.00000  Uiso   1.00
C324   C     0.86288   0.96471   0.53018   0.00000  Uiso   1.00
C325   C     0.88283   0.90289   0.51702   0.00000  Uiso   1.00
C326   C     0.91463   0.91994   0.50458   0.00000  Uiso   1.00
C327   C     0.96811   0.91685   0.48132   0.00000  Uiso   1.00
C328   C     0.82350   0.99783   0.60419   0.00000  Uiso   1.00
C329   C     0.81031   0.96386   0.65325   0.00000  Uiso   1.00
C330   C     0.80896   0.00880   0.70311   0.00000  Uiso   1.00
C331   C     0.80126   0.05715   0.79474   0.00000  Uiso   1.00
C332   C     0.81000   0.01127   0.50185   0.00000  Uiso   1.00
C333   C     0.78547   0.98861   0.46488   0.00000  Uiso   1.00
C334   C     0.77275   0.04487   0.42858   0.00000  Uiso   1.00
C335   C     0.74411   0.11408   0.36132   0.00000  Uiso   1.00
C336   C     0.84835   0.09946   0.54641   0.00000  Uiso   1.00
C337   C     0.87430   0.04087   0.53089   0.00000  Uiso   1.00
C338   C     0.90608   0.05803   0.51846   0.00000  Uiso   1.00
C339   C     0.92607   0.99624   0.50528   0.00000  Uiso   1.00
C340   C     0.83491   0.07399   0.60490   0.00000  Uiso   1.00
C341   C     0.83357   0.11900   0.65469   0.00000  Uiso   1.00
C342   C     0.82040   0.08510   0.70381   0.00000  Uiso   1.00
C343   C     0.82142   0.08744   0.50255   0.00000  Uiso   1.00
C344   C     0.80873   0.14375   0.46631   0.00000  Uiso   1.00
C345   C     0.78419   0.12118   0.42929   0.00000  Uiso   1.00
H346   H     0.81844   0.89994   0.54456   0.00000  Uiso   1.00
H347   H     0.87398   0.84395   0.51649   0.00000  Uiso   1.00
H348   H     0.80148   0.90492   0.65269   0.00000  Uiso   1.00
H349   H     0.77664   0.92966   0.46435   0.00000  Uiso   1.00
H350   H     0.94060   0.81546   0.48569   0.00000  Uiso   1.00
H351   H     0.78772   0.94402   0.77288   0.00000  Uiso   1.00
H352   H     0.73534   0.99620   0.37572   0.00000  Uiso   1.00
H353   H     0.85724   0.15876   0.54696   0.00000  Uiso   1.00
H354   H     0.91491   0.11698   0.51901   0.00000  Uiso   1.00
H355   H     0.84241   0.17794   0.65522   0.00000  Uiso   1.00
H356   H     0.81757   0.20268   0.46687   0.00000  Uiso   1.00
H357   H     0.97382   0.03706   0.48774   0.00000  Uiso   1.00
H358   H     0.82093   0.16561   0.77493   0.00000  Uiso   1.00
H359   H     0.76856   0.21779   0.37777   0.00000  Uiso   1.00
O360   O     0.99446   0.89410   0.46830   0.00000  Uiso   1.00
O361   O     0.79387   0.06276   0.84509   0.00000  Uiso   1.00
O362   O     0.72516   0.13122   0.32402   0.00000  Uiso   1.00
N363   N     0.94050   0.87335   0.48999   0.00000  Uiso   1.00
N364   N     0.79757   0.99354   0.75851   0.00000  Uiso   1.00
N365   N     0.74860   0.04233   0.38720   0.00000  Uiso   1.00
N366   N     0.95838   0.99259   0.49110   0.00000  Uiso   1.00
N367   N     0.81544   0.11278   0.75961   0.00000  Uiso   1.00
N368   N     0.76647   0.16157   0.38831   0.00000  Uiso   1.00
C369   C     0.92267   0.70924   0.79511   0.00000  Uiso   1.00
C370   C     0.88712   0.71471   0.78018   0.00000  Uiso   1.00
C371   C     0.86717   0.65289   0.76702   0.00000  Uiso   1.00
C372   C     0.83537   0.66994   0.75458   0.00000  Uiso   1.00
C373   C     0.78189   0.66685   0.73132   0.00000  Uiso   1.00
C374   C     0.92650   0.74783   0.85419   0.00000  Uiso   1.00
C375   C     0.93969   0.71386   0.90325   0.00000  Uiso   1.00
C376   C     0.94104   0.75880   0.95311   0.00000  Uiso   1.00
C377   C     0.94874   0.80715   0.04474   0.00000  Uiso   1.00
C378   C     0.94000   0.76127   0.75185   0.00000  Uiso   1.00
C379   C     0.96453   0.73861   0.71488   0.00000  Uiso   1.00
C380   C     0.97725   0.79487   0.67858   0.00000  Uiso   1.00
C381   C     0.00589   0.86408   0.61132   0.00000  Uiso   1.00
C382   C     0.90165   0.84946   0.79641   0.00000  Uiso   1.00
C383   C     0.87570   0.79087   0.78089   0.00000  Uiso   1.00
C384   C     0.84392   0.80803   0.76846   0.00000  Uiso   1.00
C385   C     0.82393   0.74624   0.75528   0.00000  Uiso   1.00
C386   C     0.91509   0.82399   0.85490   0.00000  Uiso   1.00
C387   C     0.91643   0.86900   0.90469   0.00000  Uiso   1.00
C388   C     0.92960   0.83510   0.95381   0.00000  Uiso   1.00
C389   C     0.92858   0.83744   0.75255   0.00000  Uiso   1.00
C390   C     0.94127   0.89375   0.71631   0.00000  Uiso   1.00
C391   C     0.96581   0.87118   0.67929   0.00000  Uiso   1.00
H392   H     0.93156   0.64994   0.79456   0.00000  Uiso   1.00
H393   H     0.87602   0.59395   0.76649   0.00000  Uiso   1.00
H394   H     0.94852   0.65492   0.90269   0.00000  Uiso   1.00
H395   H     0.97336   0.67966   0.71435   0.00000  Uiso   1.00
H396   H     0.80940   0.56546   0.73569   0.00000  Uiso   1.00
H397   H     0.96228   0.69402   0.02288   0.00000  Uiso   1.00
H398   H     0.01466   0.74620   0.62572   0.00000  Uiso   1.00
H399   H     0.89276   0.90876   0.79696   0.00000  Uiso   1.00
H400   H     0.83509   0.86698   0.76901   0.00000  Uiso   1.00
H401   H     0.90759   0.92794   0.90522   0.00000  Uiso   1.00
H402   H     0.93243   0.95268   0.71687   0.00000  Uiso   1.00
H403   H     0.77618   0.78706   0.73774   0.00000  Uiso   1.00
H404   H     0.92907   0.91561   0.02493   0.00000  Uiso   1.00
H405   H     0.98144   0.96779   0.62777   0.00000  Uiso   1.00
O406   O     0.75554   0.64410   0.71830   0.00000  Uiso   1.00
O407   O     0.95613   0.81276   0.09509   0.00000  Uiso   1.00
O408   O     0.02484   0.88122   0.57402   0.00000  Uiso   1.00
N409   N     0.80950   0.62335   0.73999   0.00000  Uiso   1.00
N410   N     0.95243   0.74354   0.00851   0.00000  Uiso   1.00
N411   N     0.00140   0.79233   0.63720   0.00000  Uiso   1.00
N412   N     0.79162   0.74259   0.74110   0.00000  Uiso   1.00
N413   N     0.93456   0.86278   0.00961   0.00000  Uiso   1.00
N414   N     0.98353   0.91157   0.63831   0.00000  Uiso   1.00
C415   C     0.92267   0.20924   0.29511   0.00000  Uiso   1.00
C416   C     0.88712   0.21471   0.28018   0.00000  Uiso   1.00
C417   C     0.86717   0.15289   0.26702   0.00000  Uiso   1.00
C418   C     0.83537   0.16994   0.25458   0.00000  Uiso   1.00
C419   C     0.78189   0.16685   0.23132   0.00000  Uiso   1.00
C420   C     0.92650   0.24783   0.35419   0.00000  Uiso   1.00
C421   C     0.93969   0.21386   0.40325   0.00000  Uiso   1.00
C422   C     0.94104   0.25880   0.45311   0.00000  Uiso   1.00
C423   C     0.94874   0.30715   0.54474   0.00000  Uiso   1.00
C424   C     0.94000   0.26127   0.25185   0.00000  Uiso   1.00
C425   C     0.96453   0.23861   0.21488   0.00000  Uiso   1.00
C426   C     0.97725   0.29487   0.17858   0.00000  Uiso   1.00
C427   C     0.00589   0.36408   0.11132   0.00000  Uiso   1.00
C428   C     0.90165   0.34946   0.29641   0.00000  Uiso   1.00
C429   C     0.87570   0.29087   0.28089   0.00000  Uiso   1.00
C430   C     0.84392   0.30803   0.26846   0.00000  Uiso   1.00
C431   C     0.82393   0.24624   0.25528   0.00000  Uiso   1.00
C432   C     0.91509   0.32399   0.35490   0.00000  Uiso   1.00
C433   C     0.91643   0.36900   0.40469   0.00000  Uiso   1.00
C434   C     0.92960   0.33510   0.45381   0.00000  Uiso   1.00
C435   C     0.92858   0.33744   0.25255   0.00000  Uiso   1.00
C436   C     0.94127   0.39375   0.21631   0.00000  Uiso   1.00
C437   C     0.96581   0.37118   0.17929   0.00000  Uiso   1.00
H438   H     0.93156   0.14994   0.29456   0.00000  Uiso   1.00
H439   H     0.87602   0.09395   0.26649   0.00000  Uiso   1.00
H440   H     0.94852   0.15492   0.40269   0.00000  Uiso   1.00
H441   H     0.97336   0.17966   0.21435   0.00000  Uiso   1.00
H442   H     0.80940   0.06546   0.23569   0.00000  Uiso   1.00
H443   H     0.96228   0.19402   0.52288   0.00000  Uiso   1.00
H444   H     0.01466   0.24620   0.12572   0.00000  Uiso   1.00
H445   H     0.89276   0.40876   0.29696   0.00000  Uiso   1.00
H446   H     0.83509   0.36698   0.26901   0.00000  Uiso   1.00
H447   H     0.90759   0.42794   0.40522   0.00000  Uiso   1.00
H448   H     0.93243   0.45268   0.21687   0.00000  Uiso   1.00
H449   H     0.77618   0.28706   0.23774   0.00000  Uiso   1.00
H450   H     0.92907   0.41561   0.52493   0.00000  Uiso   1.00
H451   H     0.98144   0.46779   0.12777   0.00000  Uiso   1.00
O452   O     0.75554   0.14410   0.21830   0.00000  Uiso   1.00
O453   O     0.95613   0.31276   0.59509   0.00000  Uiso   1.00
O454   O     0.02484   0.38122   0.07402   0.00000  Uiso   1.00
N455   N     0.80950   0.12335   0.23999   0.00000  Uiso   1.00
N456   N     0.95243   0.24354   0.50851   0.00000  Uiso   1.00
N457   N     0.00140   0.29233   0.13720   0.00000  Uiso   1.00
N458   N     0.79162   0.24259   0.24110   0.00000  Uiso   1.00
N459   N     0.93456   0.36278   0.50961   0.00000  Uiso   1.00
N460   N     0.98353   0.41157   0.13831   0.00000  Uiso   1.00
C461   C     0.42267   0.70924   0.29511   0.00000  Uiso   1.00
C462   C     0.38712   0.71471   0.28018   0.00000  Uiso   1.00
C463   C     0.36717   0.65289   0.26702   0.00000  Uiso   1.00
C464   C     0.33537   0.66994   0.25458   0.00000  Uiso   1.00
C465   C     0.28189   0.66685   0.23132   0.00000  Uiso   1.00
C466   C     0.42650   0.74783   0.35419   0.00000  Uiso   1.00
C467   C     0.43969   0.71386   0.40325   0.00000  Uiso   1.00
C468   C     0.44104   0.75880   0.45311   0.00000  Uiso   1.00
C469   C     0.44874   0.80715   0.54474   0.00000  Uiso   1.00
C470   C     0.44000   0.76127   0.25185   0.00000  Uiso   1.00
C471   C     0.46453   0.73861   0.21488   0.00000  Uiso   1.00
C472   C     0.47725   0.79487   0.17858   0.00000  Uiso   1.00
C473   C     0.50589   0.86408   0.11132   0.00000  Uiso   1.00
C474   C     0.40165   0.84946   0.29641   0.00000  Uiso   1.00
C475   C     0.37570   0.79087   0.28089   0.00000  Uiso   1.00
C476   C     0.34392   0.80803   0.26846   0.00000  Uiso   1.00
C477   C     0.32393   0.74624   0.25528   0.00000  Uiso   1.00
C478   C     0.41509   0.82399   0.35490   0.00000  Uiso   1.00
C479   C     0.41643   0.86900   0.40469   0.00000  Uiso   1.00
C480   C     0.42960   0.83510   0.45381   0.00000  Uiso   1.00
C481   C     0.42858   0.83744   0.25255   0.00000  Uiso   1.00
C482   C     0.44127   0.89375   0.21631   0.00000  Uiso   1.00
C483   C     0.46581   0.87118   0.17929   0.00000  Uiso   1.00
H484   H     0.43156   0.64994   0.29456   0.00000  Uiso   1.00
H485   H     0.37602   0.59395   0.26649   0.00000  Uiso   1.00
H486   H     0.44852   0.65492   0.40269   0.00000  Uiso   1.00
H487   H     0.47336   0.67966   0.21435   0.00000  Uiso   1.00
H488   H     0.30940   0.56546   0.23569   0.00000  Uiso   1.00
H489   H     0.46228   0.69402   0.52288   0.00000  Uiso   1.00
H490   H     0.51466   0.74620   0.12572   0.00000  Uiso   1.00
H491   H     0.39276   0.90876   0.29696   0.00000  Uiso   1.00
H492   H     0.33509   0.86698   0.26901   0.00000  Uiso   1.00
H493   H     0.40759   0.92794   0.40522   0.00000  Uiso   1.00
H494   H     0.43243   0.95268   0.21687   0.00000  Uiso   1.00
H495   H     0.27618   0.78706   0.23774   0.00000  Uiso   1.00
H496   H     0.42907   0.91561   0.52493   0.00000  Uiso   1.00
H497   H     0.48144   0.96779   0.12777   0.00000  Uiso   1.00
O498   O     0.25554   0.64410   0.21830   0.00000  Uiso   1.00
O499   O     0.45613   0.81276   0.59509   0.00000  Uiso   1.00
O500   O     0.52484   0.88122   0.07402   0.00000  Uiso   1.00
N501   N     0.30950   0.62335   0.23999   0.00000  Uiso   1.00
N502   N     0.45243   0.74354   0.50851   0.00000  Uiso   1.00
N503   N     0.50140   0.79233   0.13720   0.00000  Uiso   1.00
N504   N     0.29162   0.74259   0.24110   0.00000  Uiso   1.00
N505   N     0.43456   0.86278   0.50961   0.00000  Uiso   1.00
N506   N     0.48353   0.91157   0.13831   0.00000  Uiso   1.00
C507   C     0.42267   0.20924   0.79511   0.00000  Uiso   1.00
C508   C     0.38712   0.21471   0.78018   0.00000  Uiso   1.00
C509   C     0.36717   0.15289   0.76702   0.00000  Uiso   1.00
C510   C     0.33537   0.16994   0.75458   0.00000  Uiso   1.00
C511   C     0.28189   0.16685   0.73132   0.00000  Uiso   1.00
C512   C     0.42650   0.24783   0.85419   0.00000  Uiso   1.00
C513   C     0.43969   0.21386   0.90325   0.00000  Uiso   1.00
C514   C     0.44104   0.25880   0.95311   0.00000  Uiso   1.00
C515   C     0.44874   0.30715   0.04474   0.00000  Uiso   1.00
C516   C     0.44000   0.26127   0.75185   0.00000  Uiso   1.00
C517   C     0.46453   0.23861   0.71488   0.00000  Uiso   1.00
C518   C     0.47725   0.29487   0.67858   0.00000  Uiso   1.00
C519   C     0.50589   0.36408   0.61132   0.00000  Uiso   1.00
C520   C     0.40165   0.34946   0.79641   0.00000  Uiso   1.00
C521   C     0.37570   0.29087   0.78089   0.00000  Uiso   1.00
C522   C     0.34392   0.30803   0.76846   0.00000  Uiso   1.00
C523   C     0.32393   0.24624   0.75528   0.00000  Uiso   1.00
C524   C     0.41509   0.32399   0.85490   0.00000  Uiso   1.00
C525   C     0.41643   0.36900   0.90469   0.00000  Uiso   1.00
C526   C     0.42960   0.33510   0.95381   0.00000  Uiso   1.00
C527   C     0.42858   0.33744   0.75255   0.00000  Uiso   1.00
C528   C     0.44127   0.39375   0.71631   0.00000  Uiso   1.00
C529   C     0.46581   0.37118   0.67929   0.00000  Uiso   1.00
H530   H     0.43156   0.14994   0.79456   0.00000  Uiso   1.00
H531   H     0.37602   0.09395   0.76649   0.00000  Uiso   1.00
H532   H     0.44852   0.15492   0.90269   0.00000  Uiso   1.00
H533   H     0.47336   0.17966   0.71435   0.00000  Uiso   1.00
H534   H     0.30940   0.06546   0.73569   0.00000  Uiso   1.00
H535   H     0.46228   0.19402   0.02288   0.00000  Uiso   1.00
H536   H     0.51466   0.24620   0.62572   0.00000  Uiso   1.00
H537   H     0.39276   0.40876   0.79696   0.00000  Uiso   1.00
H538   H     0.33509   0.36698   0.76901   0.00000  Uiso   1.00
H539   H     0.40759   0.42794   0.90522   0.00000  Uiso   1.00
H540   H     0.43243   0.45268   0.71687   0.00000  Uiso   1.00
H541   H     0.27618   0.28706   0.73774   0.00000  Uiso   1.00
H542   H     0.42907   0.41561   0.02493   0.00000  Uiso   1.00
H543   H     0.48144   0.46779   0.62777   0.00000  Uiso   1.00
O544   O     0.25554   0.14410   0.71830   0.00000  Uiso   1.00
O545   O     0.45613   0.31276   0.09509   0.00000  Uiso   1.00
O546   O     0.52484   0.38122   0.57402   0.00000  Uiso   1.00
N547   N     0.30950   0.12335   0.73999   0.00000  Uiso   1.00
N548   N     0.45243   0.24354   0.00851   0.00000  Uiso   1.00
N549   N     0.50140   0.29233   0.63720   0.00000  Uiso   1.00
N550   N     0.29162   0.24259   0.74110   0.00000  Uiso   1.00
N551   N     0.43456   0.36278   0.00961   0.00000  Uiso   1.00
N552   N     0.48353   0.41157   0.63831   0.00000  Uiso   1.00
C553   C     0.57733   0.79076   0.79511   0.00000  Uiso   1.00
C554   C     0.61288   0.78529   0.78018   0.00000  Uiso   1.00
C555   C     0.63283   0.84711   0.76702   0.00000  Uiso   1.00
C556   C     0.66463   0.83006   0.75458   0.00000  Uiso   1.00
C557   C     0.71811   0.83315   0.73132   0.00000  Uiso   1.00
C558   C     0.57350   0.75217   0.85419   0.00000  Uiso   1.00
C559   C     0.56031   0.78614   0.90325   0.00000  Uiso   1.00
C560   C     0.55896   0.74120   0.95311   0.00000  Uiso   1.00
C561   C     0.55126   0.69285   0.04474   0.00000  Uiso   1.00
C562   C     0.56000   0.73873   0.75185   0.00000  Uiso   1.00
C563   C     0.53547   0.76139   0.71488   0.00000  Uiso   1.00
C564   C     0.52275   0.70513   0.67858   0.00000  Uiso   1.00
C565   C     0.49411   0.63592   0.61132   0.00000  Uiso   1.00
C566   C     0.59835   0.65054   0.79641   0.00000  Uiso   1.00
C567   C     0.62430   0.70913   0.78089   0.00000  Uiso   1.00
C568   C     0.65608   0.69197   0.76846   0.00000  Uiso   1.00
C569   C     0.67607   0.75376   0.75528   0.00000  Uiso   1.00
C570   C     0.58491   0.67601   0.85490   0.00000  Uiso   1.00
C571   C     0.58357   0.63100   0.90469   0.00000  Uiso   1.00
C572   C     0.57040   0.66490   0.95381   0.00000  Uiso   1.00
C573   C     0.57142   0.66256   0.75255   0.00000  Uiso   1.00
C574   C     0.55873   0.60625   0.71631   0.00000  Uiso   1.00
C575   C     0.53419   0.62882   0.67929   0.00000  Uiso   1.00
H576   H     0.56844   0.85006   0.79456   0.00000  Uiso   1.00
H577   H     0.62398   0.90605   0.76649   0.00000  Uiso   1.00
H578   H     0.55148   0.84508   0.90269   0.00000  Uiso   1.00
H579   H     0.52664   0.82034   0.71435   0.00000  Uiso   1.00
H580   H     0.69060   0.93454   0.73569   0.00000  Uiso   1.00
H581   H     0.53772   0.80598   0.02288   0.00000  Uiso   1.00
H582   H     0.48534   0.75380   0.62572   0.00000  Uiso   1.00
H583   H     0.60724   0.59124   0.79696   0.00000  Uiso   1.00
H584   H     0.66491   0.63302   0.76901   0.00000  Uiso   1.00
H585   H     0.59241   0.57206   0.90522   0.00000  Uiso   1.00
H586   H     0.56757   0.54732   0.71687   0.00000  Uiso   1.00
H587   H     0.72382   0.71294   0.73774   0.00000  Uiso   1.00
H588   H     0.57093   0.58439   0.02493   0.00000  Uiso   1.00
H589   H     0.51856   0.53221   0.62777   0.00000  Uiso   1.00
O590   O     0.74446   0.85590   0.71830   0.00000  Uiso   1.00
O591   O     0.54387   0.68724   0.09509   0.00000  Uiso   1.00
O592   O     0.47516   0.61878   0.57402   0.00000  Uiso   1.00
N593   N     0.69050   0.87665   0.73999   0.00000  Uiso   1.00
N594   N     0.54757   0.75646   0.00851   0.00000  Uiso   1.00
N595   N     0.49860   0.70767   0.63720   0.00000  Uiso   1.00
N596   N     0.70838   0.75741   0.74110   0.00000  Uiso   1.00
N597   N     0.56544   0.63722   0.00961   0.00000  Uiso   1.00
N598   N     0.51647   0.58843   0.63831   0.00000  Uiso   1.00
C599   C     0.57733   0.29076   0.29511   0.00000  Uiso   1.00
C600   C     0.61288   0.28529   0.28018   0.00000  Uiso   1.00
C601   C     0.63283   0.34711   0.26702   0.00000  Uiso   1.00
C602   C     0.66463   0.33006   0.25458   0.00000  Uiso   1.00
C603   C     0.71811   0.33315   0.23132   0.00000  Uiso   1.00
C604   C     0.57350   0.25217   0.35419   0.00000  Uiso   1.00
C605   C     0.56031   0.28614   0.40325   0.00000  Uiso   1.00
C606   C     0.55896   0.24120   0.45311   0.00000  Uiso   1.00
C607   C     0.55126   0.19285   0.54474   0.00000  Uiso   1.00
C608   C     0.56000   0.23873   0.25185   0.00000  Uiso   1.00
C609   C     0.53547   0.26139   0.21488   0.00000  Uiso   1.00
C610   C     0.52275   0.20513   0.17858   0.00000  Uiso   1.00
C611   C     0.49411   0.13592   0.11132   0.00000  Uiso   1.00
C612   C     0.59835   0.15054   0.29641   0.00000  Uiso   1.00
C613   C     0.62430   0.20913   0.28089   0.00000  Uiso   1.00
C614   C     0.65608   0.19197   0.26846   0.00000  Uiso   1.00
C615   C     0.67607   0.25376   0.25528   0.00000  Uiso   1.00
C616   C     0.58491   0.17601   0.35490   0.00000  Uiso   1.00
C617   C     0.58357   0.13100   0.40469   0.00000  Uiso   1.00
C618   C     0.57040   0.16490   0.45381   0.00000  Uiso   1.00
C619   C     0.57142   0.16256   0.25255   0.00000  Uiso   1.00
C620   C     0.55873   0.10625   0.21631   0.00000  Uiso   1.00
C621   C     0.53419   0.12882   0.17929   0.00000  Uiso   1.00
H622   H     0.56844   0.35006   0.29456   0.00000  Uiso   1.00
H623   H     0.62398   0.40605   0.26649   0.00000  Uiso   1.00
H624   H     0.55148   0.34508   0.40269   0.00000  Uiso   1.00
H625   H     0.52664   0.32034   0.21435   0.00000  Uiso   1.00
H626   H     0.69060   0.43454   0.23569   0.00000  Uiso   1.00
H627   H     0.53772   0.30598   0.52288   0.00000  Uiso   1.00
H628   H     0.48534   0.25380   0.12572   0.00000  Uiso   1.00
H629   H     0.60724   0.09124   0.29696   0.00000  Uiso   1.00
H630   H     0.66491   0.13302   0.26901   0.00000  Uiso   1.00
H631   H     0.59241   0.07206   0.40522   0.00000  Uiso   1.00
H632   H     0.56757   0.04732   0.21687   0.00000  Uiso   1.00
H633   H     0.72382   0.21294   0.23774   0.00000  Uiso   1.00
H634   H     0.57093   0.08439   0.52493   0.00000  Uiso   1.00
H635   H     0.51856   0.03221   0.12777   0.00000  Uiso   1.00
O636   O     0.74446   0.35590   0.21830   0.00000  Uiso   1.00
O637   O     0.54387   0.18724   0.59509   0.00000  Uiso   1.00
O638   O     0.47516   0.11878   0.07402   0.00000  Uiso   1.00
N639   N     0.69050   0.37665   0.23999   0.00000  Uiso   1.00
N640   N     0.54757   0.25646   0.50851   0.00000  Uiso   1.00
N641   N     0.49860   0.20767   0.13720   0.00000  Uiso   1.00
N642   N     0.70838   0.25741   0.24110   0.00000  Uiso   1.00
N643   N     0.56544   0.13722   0.50961   0.00000  Uiso   1.00
N644   N     0.51647   0.08843   0.13831   0.00000  Uiso   1.00
C645   C     0.07733   0.79076   0.29511   0.00000  Uiso   1.00
C646   C     0.11288   0.78529   0.28018   0.00000  Uiso   1.00
C647   C     0.13283   0.84711   0.26702   0.00000  Uiso   1.00
C648   C     0.16463   0.83006   0.25458   0.00000  Uiso   1.00
C649   C     0.21811   0.83315   0.23132   0.00000  Uiso   1.00
C650   C     0.07350   0.75217   0.35419   0.00000  Uiso   1.00
C651   C     0.06031   0.78614   0.40325   0.00000  Uiso   1.00
C652   C     0.05896   0.74120   0.45311   0.00000  Uiso   1.00
C653   C     0.05126   0.69285   0.54474   0.00000  Uiso   1.00
C654   C     0.06000   0.73873   0.25185   0.00000  Uiso   1.00
C655   C     0.03547   0.76139   0.21488   0.00000  Uiso   1.00
C656   C     0.02275   0.70513   0.17858   0.00000  Uiso   1.00
C657   C     0.99411   0.63592   0.11132   0.00000  Uiso   1.00
C658   C     0.09835   0.65054   0.29641   0.00000  Uiso   1.00
C659   C     0.12430   0.70913   0.28089   0.00000  Uiso   1.00
C660   C     0.15608   0.69197   0.26846   0.00000  Uiso   1.00
C661   C     0.17607   0.75376   0.25528   0.00000  Uiso   1.00
C662   C     0.08491   0.67601   0.35490   0.00000  Uiso   1.00
C663   C     0.08357   0.63100   0.40469   0.00000  Uiso   1.00
C664   C     0.07040   0.66490   0.45381   0.00000  Uiso   1.00
C665   C     0.07142   0.66256   0.25255   0.00000  Uiso   1.00
C666   C     0.05873   0.60625   0.21631   0.00000  Uiso   1.00
C667   C     0.03419   0.62882   0.17929   0.00000  Uiso   1.00
H668   H     0.06844   0.85006   0.29456   0.00000  Uiso   1.00
H669   H     0.12398   0.90605   0.26649   0.00000  Uiso   1.00
H670   H     0.05148   0.84508   0.40269   0.00000  Uiso   1.00
H671   H     0.02664   0.82034   0.21435   0.00000  Uiso   1.00
H672   H     0.19060   0.93454   0.23569   0.00000  Uiso   1.00
H673   H     0.03772   0.80598   0.52288   0.00000  Uiso   1.00
H674   H     0.98534   0.75380   0.12572   0.00000  Uiso   1.00
H675   H     0.10724   0.59124   0.29696   0.00000  Uiso   1.00
H676   H     0.16491   0.63302   0.26901   0.00000  Uiso   1.00
H677   H     0.09241   0.57206   0.40522   0.00000  Uiso   1.00
H678   H     0.06757   0.54732   0.21687   0.00000  Uiso   1.00
H679   H     0.22382   0.71294   0.23774   0.00000  Uiso   1.00
H680   H     0.07093   0.58439   0.52493   0.00000  Uiso   1.00
H681   H     0.01856   0.53221   0.12777   0.00000  Uiso   1.00
O682   O     0.24446   0.85590   0.21830   0.00000  Uiso   1.00
O683   O     0.04387   0.68724   0.59509   0.00000  Uiso   1.00
O684   O     0.97516   0.61878   0.07402   0.00000  Uiso   1.00
N685   N     0.19050   0.87665   0.23999   0.00000  Uiso   1.00
N686   N     0.04757   0.75646   0.50851   0.00000  Uiso   1.00
N687   N     0.99860   0.70767   0.13720   0.00000  Uiso   1.00
N688   N     0.20838   0.75741   0.24110   0.00000  Uiso   1.00
N689   N     0.06544   0.63722   0.50961   0.00000  Uiso   1.00
N690   N     0.01647   0.58843   0.13831   0.00000  Uiso   1.00
C691   C     0.07733   0.29076   0.79511   0.00000  Uiso   1.00
C692   C     0.11288   0.28529   0.78018   0.00000  Uiso   1.00
C693   C     0.13283   0.34711   0.76702   0.00000  Uiso   1.00
C694   C     0.16463   0.33006   0.75458   0.00000  Uiso   1.00
C695   C     0.21811   0.33315   0.73132   0.00000  Uiso   1.00
C696   C     0.07350   0.25217   0.85419   0.00000  Uiso   1.00
C697   C     0.06031   0.28614   0.90325   0.00000  Uiso   1.00
C698   C     0.05896   0.24120   0.95311   0.00000  Uiso   1.00
C699   C     0.05126   0.19285   0.04474   0.00000  Uiso   1.00
C700   C     0.06000   0.23873   0.75185   0.00000  Uiso   1.00
C701   C     0.03547   0.26139   0.71488   0.00000  Uiso   1.00
C702   C     0.02275   0.20513   0.67858   0.00000  Uiso   1.00
C703   C     0.99411   0.13592   0.61132   0.00000  Uiso   1.00
C704   C     0.09835   0.15054   0.79641   0.00000  Uiso   1.00
C705   C     0.12430   0.20913   0.78089   0.00000  Uiso   1.00
C706   C     0.15608   0.19197   0.76846   0.00000  Uiso   1.00
C707   C     0.17607   0.25376   0.75528   0.00000  Uiso   1.00
C708   C     0.08491   0.17601   0.85490   0.00000  Uiso   1.00
C709   C     0.08357   0.13100   0.90469   0.00000  Uiso   1.00
C710   C     0.07040   0.16490   0.95381   0.00000  Uiso   1.00
C711   C     0.07142   0.16256   0.75255   0.00000  Uiso   1.00
C712   C     0.05873   0.10625   0.71631   0.00000  Uiso   1.00
C713   C     0.03419   0.12882   0.67929   0.00000  Uiso   1.00
H714   H     0.06844   0.35006   0.79456   0.00000  Uiso   1.00
H715   H     0.12398   0.40605   0.76649   0.00000  Uiso   1.00
H716   H     0.05148   0.34508   0.90269   0.00000  Uiso   1.00
H717   H     0.02664   0.32034   0.71435   0.00000  Uiso   1.00
H718   H     0.19060   0.43454   0.73569   0.00000  Uiso   1.00
H719   H     0.03772   0.30598   0.02288   0.00000  Uiso   1.00
H720   H     0.98534   0.25380   0.62572   0.00000  Uiso   1.00
H721   H     0.10724   0.09124   0.79696   0.00000  Uiso   1.00
H722   H     0.16491   0.13302   0.76901   0.00000  Uiso   1.00
H723   H     0.09241   0.07206   0.90522   0.00000  Uiso   1.00
H724   H     0.06757   0.04732   0.71687   0.00000  Uiso   1.00
H725   H     0.22382   0.21294   0.73774   0.00000  Uiso   1.00
H726   H     0.07093   0.08439   0.02493   0.00000  Uiso   1.00
H727   H     0.01856   0.03221   0.62777   0.00000  Uiso   1.00
O728   O     0.24446   0.35590   0.71830   0.00000  Uiso   1.00
O729   O     0.04387   0.18724   0.09509   0.00000  Uiso   1.00
O730   O     0.97516   0.11878   0.57402   0.00000  Uiso   1.00
N731   N     0.19050   0.37665   0.73999   0.00000  Uiso   1.00
N732   N     0.04757   0.25646   0.00851   0.00000  Uiso   1.00
N733   N     0.99860   0.20767   0.63720   0.00000  Uiso   1.00
N734   N     0.20838   0.25741   0.74110   0.00000  Uiso   1.00
N735   N     0.06544   0.13722   0.00961   0.00000  Uiso   1.00
N736   N     0.01647   0.08843   0.63831   0.00000  Uiso   1.00
