data_job_04959
_audit_creation_date              2018-12-19
_audit_creation_method            'Materials Studio'
_symmetry_space_group_name_H-M    'P1'
_symmetry_Int_Tables_number       1
_symmetry_cell_setting            triclinic
loop_
_symmetry_equiv_pos_as_xyz
  x,y,z
_cell_length_a                    24.5323
_cell_length_b                    24.5323
_cell_length_c                    16.7057
_cell_angle_alpha                 90.0000
_cell_angle_beta                  90.0000
_cell_angle_gamma                 90.0000
loop_
_atom_site_label
_atom_site_type_symbol
_atom_site_fract_x
_atom_site_fract_y
_atom_site_fract_z
_atom_site_U_iso_or_equiv
_atom_site_adp_type
_atom_site_occupancy
C1     C     0.06459   0.78581   0.31461   0.00000  Uiso   1.00
C2     C     0.07870   0.83743   0.26817   0.00000  Uiso   1.00
C3     C     0.04381   0.86566   0.21761   0.00000  Uiso   1.00
C4     C     0.06445   0.91196   0.18067   0.00000  Uiso   1.00
C5     C     0.07821   0.98946   0.10653   0.00000  Uiso   1.00
C6     C     0.10675   0.74333   0.28995   0.00000  Uiso   1.00
C7     C     0.09543   0.69243   0.25770   0.00000  Uiso   1.00
C8     C     0.13969   0.65951   0.23910   0.00000  Uiso   1.00
C9     C     0.19699   0.59089   0.19882   0.00000  Uiso   1.00
C10    C     0.07598   0.79861   0.40235   0.00000  Uiso   1.00
C11    C     0.03880   0.79419   0.46463   0.00000  Uiso   1.00
C12    C     0.05716   0.80780   0.54066   0.00000  Uiso   1.00
C13    C     0.06669   0.82502   0.67490   0.00000  Uiso   1.00
C14    C     0.16331   0.81784   0.33891   0.00000  Uiso   1.00
C15    C     0.13233   0.85483   0.28137   0.00000  Uiso   1.00
C16    C     0.15303   0.90110   0.24450   0.00000  Uiso   1.00
C17    C     0.11817   0.92939   0.19389   0.00000  Uiso   1.00
C18    C     0.16037   0.76072   0.30314   0.00000  Uiso   1.00
C19    C     0.20466   0.72787   0.28459   0.00000  Uiso   1.00
C20    C     0.19341   0.67694   0.25232   0.00000  Uiso   1.00
C21    C     0.12960   0.81601   0.41555   0.00000  Uiso   1.00
C22    C     0.14803   0.82962   0.49151   0.00000  Uiso   1.00
C23    C     0.11088   0.82522   0.55388   0.00000  Uiso   1.00
H24    H     0.02285   0.77226   0.30433   0.00000  Uiso   1.00
H25    H     0.00231   0.85218   0.20741   0.00000  Uiso   1.00
H26    H     0.05393   0.67898   0.24750   0.00000  Uiso   1.00
H27    H     0.99731   0.78072   0.45439   0.00000  Uiso   1.00
H28    H     0.00320   0.94845   0.10575   0.00000  Uiso   1.00
H29    H     0.11204   0.58324   0.19032   0.00000  Uiso   1.00
H30    H     0.99264   0.79778   0.62657   0.00000  Uiso   1.00
H31    H     0.20506   0.83138   0.34919   0.00000  Uiso   1.00
H32    H     0.19453   0.91455   0.25472   0.00000  Uiso   1.00
H33    H     0.24615   0.74134   0.29482   0.00000  Uiso   1.00
H34    H     0.18952   0.84308   0.50170   0.00000  Uiso   1.00
H35    H     0.15921   0.99907   0.14415   0.00000  Uiso   1.00
H36    H     0.26805   0.63385   0.22872   0.00000  Uiso   1.00
H37    H     0.14865   0.84839   0.66497   0.00000  Uiso   1.00
O38    O     0.07099   0.02739   0.06198   0.00000  Uiso   1.00
O39    O     0.21379   0.54824   0.17294   0.00000  Uiso   1.00
O40    O     0.05713   0.82971   0.74530   0.00000  Uiso   1.00
N41    N     0.04136   0.94896   0.12776   0.00000  Uiso   1.00
N42    N     0.14312   0.60750   0.20682   0.00000  Uiso   1.00
N43    N     0.03149   0.80807   0.61468   0.00000  Uiso   1.00
N44    N     0.12531   0.97619   0.14843   0.00000  Uiso   1.00
N45    N     0.22707   0.63474   0.22748   0.00000  Uiso   1.00
N46    N     0.11544   0.83530   0.63535   0.00000  Uiso   1.00
C47    C     0.56459   0.28581   0.81461   0.00000  Uiso   1.00
C48    C     0.57870   0.33743   0.76817   0.00000  Uiso   1.00
C49    C     0.54381   0.36566   0.71761   0.00000  Uiso   1.00
C50    C     0.56445   0.41196   0.68067   0.00000  Uiso   1.00
C51    C     0.57821   0.48946   0.60653   0.00000  Uiso   1.00
C52    C     0.60675   0.24333   0.78995   0.00000  Uiso   1.00
C53    C     0.59543   0.19243   0.75770   0.00000  Uiso   1.00
C54    C     0.63969   0.15951   0.73910   0.00000  Uiso   1.00
C55    C     0.69699   0.09089   0.69882   0.00000  Uiso   1.00
C56    C     0.57598   0.29861   0.90235   0.00000  Uiso   1.00
C57    C     0.53880   0.29419   0.96463   0.00000  Uiso   1.00
C58    C     0.55716   0.30780   0.04066   0.00000  Uiso   1.00
C59    C     0.56669   0.32502   0.17490   0.00000  Uiso   1.00
C60    C     0.66331   0.31784   0.83891   0.00000  Uiso   1.00
C61    C     0.63233   0.35483   0.78137   0.00000  Uiso   1.00
C62    C     0.65303   0.40110   0.74450   0.00000  Uiso   1.00
C63    C     0.61817   0.42939   0.69389   0.00000  Uiso   1.00
C64    C     0.66037   0.26072   0.80314   0.00000  Uiso   1.00
C65    C     0.70466   0.22787   0.78459   0.00000  Uiso   1.00
C66    C     0.69341   0.17694   0.75232   0.00000  Uiso   1.00
C67    C     0.62960   0.31601   0.91555   0.00000  Uiso   1.00
C68    C     0.64803   0.32962   0.99151   0.00000  Uiso   1.00
C69    C     0.61088   0.32522   0.05388   0.00000  Uiso   1.00
H70    H     0.52285   0.27226   0.80433   0.00000  Uiso   1.00
H71    H     0.50231   0.35218   0.70741   0.00000  Uiso   1.00
H72    H     0.55393   0.17898   0.74750   0.00000  Uiso   1.00
H73    H     0.49731   0.28072   0.95439   0.00000  Uiso   1.00
H74    H     0.50320   0.44845   0.60575   0.00000  Uiso   1.00
H75    H     0.61204   0.08324   0.69032   0.00000  Uiso   1.00
H76    H     0.49264   0.29778   0.12657   0.00000  Uiso   1.00
H77    H     0.70506   0.33138   0.84919   0.00000  Uiso   1.00
H78    H     0.69453   0.41455   0.75472   0.00000  Uiso   1.00
H79    H     0.74615   0.24134   0.79482   0.00000  Uiso   1.00
H80    H     0.68952   0.34308   0.00170   0.00000  Uiso   1.00
H81    H     0.65921   0.49907   0.64415   0.00000  Uiso   1.00
H82    H     0.76805   0.13385   0.72872   0.00000  Uiso   1.00
H83    H     0.64865   0.34839   0.16497   0.00000  Uiso   1.00
O84    O     0.57099   0.52739   0.56198   0.00000  Uiso   1.00
O85    O     0.71379   0.04824   0.67294   0.00000  Uiso   1.00
O86    O     0.55713   0.32971   0.24530   0.00000  Uiso   1.00
N87    N     0.54136   0.44896   0.62776   0.00000  Uiso   1.00
N88    N     0.64312   0.10750   0.70682   0.00000  Uiso   1.00
N89    N     0.53149   0.30807   0.11468   0.00000  Uiso   1.00
N90    N     0.62531   0.47619   0.64843   0.00000  Uiso   1.00
N91    N     0.72707   0.13474   0.72748   0.00000  Uiso   1.00
N92    N     0.61544   0.33530   0.13535   0.00000  Uiso   1.00
C93    C     0.43541   0.71419   0.81461   0.00000  Uiso   1.00
C94    C     0.42130   0.66257   0.76817   0.00000  Uiso   1.00
C95    C     0.45619   0.63434   0.71761   0.00000  Uiso   1.00
C96    C     0.43555   0.58804   0.68067   0.00000  Uiso   1.00
C97    C     0.42179   0.51054   0.60653   0.00000  Uiso   1.00
C98    C     0.39325   0.75667   0.78995   0.00000  Uiso   1.00
C99    C     0.40457   0.80757   0.75770   0.00000  Uiso   1.00
C100   C     0.36031   0.84049   0.73910   0.00000  Uiso   1.00
C101   C     0.30301   0.90911   0.69882   0.00000  Uiso   1.00
C102   C     0.42402   0.70139   0.90235   0.00000  Uiso   1.00
C103   C     0.46120   0.70581   0.96463   0.00000  Uiso   1.00
C104   C     0.44284   0.69220   0.04066   0.00000  Uiso   1.00
C105   C     0.43331   0.67498   0.17490   0.00000  Uiso   1.00
C106   C     0.33669   0.68216   0.83891   0.00000  Uiso   1.00
C107   C     0.36767   0.64517   0.78137   0.00000  Uiso   1.00
C108   C     0.34697   0.59890   0.74450   0.00000  Uiso   1.00
C109   C     0.38183   0.57061   0.69389   0.00000  Uiso   1.00
C110   C     0.33963   0.73928   0.80314   0.00000  Uiso   1.00
C111   C     0.29534   0.77213   0.78459   0.00000  Uiso   1.00
C112   C     0.30659   0.82306   0.75232   0.00000  Uiso   1.00
C113   C     0.37040   0.68399   0.91555   0.00000  Uiso   1.00
C114   C     0.35197   0.67038   0.99151   0.00000  Uiso   1.00
C115   C     0.38912   0.67478   0.05388   0.00000  Uiso   1.00
H116   H     0.47715   0.72774   0.80433   0.00000  Uiso   1.00
H117   H     0.49769   0.64782   0.70741   0.00000  Uiso   1.00
H118   H     0.44607   0.82102   0.74750   0.00000  Uiso   1.00
H119   H     0.50269   0.71928   0.95439   0.00000  Uiso   1.00
H120   H     0.49680   0.55155   0.60575   0.00000  Uiso   1.00
H121   H     0.38796   0.91676   0.69032   0.00000  Uiso   1.00
H122   H     0.50736   0.70222   0.12657   0.00000  Uiso   1.00
H123   H     0.29494   0.66862   0.84919   0.00000  Uiso   1.00
H124   H     0.30547   0.58545   0.75472   0.00000  Uiso   1.00
H125   H     0.25385   0.75866   0.79482   0.00000  Uiso   1.00
H126   H     0.31048   0.65692   0.00170   0.00000  Uiso   1.00
H127   H     0.34079   0.50093   0.64415   0.00000  Uiso   1.00
H128   H     0.23195   0.86615   0.72872   0.00000  Uiso   1.00
H129   H     0.35135   0.65161   0.16497   0.00000  Uiso   1.00
O130   O     0.42901   0.47261   0.56198   0.00000  Uiso   1.00
O131   O     0.28621   0.95176   0.67294   0.00000  Uiso   1.00
O132   O     0.44287   0.67029   0.24530   0.00000  Uiso   1.00
N133   N     0.45864   0.55104   0.62776   0.00000  Uiso   1.00
N134   N     0.35688   0.89250   0.70682   0.00000  Uiso   1.00
N135   N     0.46851   0.69193   0.11468   0.00000  Uiso   1.00
N136   N     0.37469   0.52381   0.64843   0.00000  Uiso   1.00
N137   N     0.27293   0.86526   0.72748   0.00000  Uiso   1.00
N138   N     0.38456   0.66470   0.13535   0.00000  Uiso   1.00
C139   C     0.93541   0.21419   0.31461   0.00000  Uiso   1.00
C140   C     0.92130   0.16257   0.26817   0.00000  Uiso   1.00
C141   C     0.95619   0.13434   0.21761   0.00000  Uiso   1.00
C142   C     0.93555   0.08804   0.18067   0.00000  Uiso   1.00
C143   C     0.92179   0.01054   0.10653   0.00000  Uiso   1.00
C144   C     0.89325   0.25667   0.28995   0.00000  Uiso   1.00
C145   C     0.90457   0.30757   0.25770   0.00000  Uiso   1.00
C146   C     0.86031   0.34049   0.23910   0.00000  Uiso   1.00
C147   C     0.80301   0.40911   0.19882   0.00000  Uiso   1.00
C148   C     0.92402   0.20139   0.40235   0.00000  Uiso   1.00
C149   C     0.96120   0.20581   0.46463   0.00000  Uiso   1.00
C150   C     0.94284   0.19220   0.54066   0.00000  Uiso   1.00
C151   C     0.93331   0.17498   0.67490   0.00000  Uiso   1.00
C152   C     0.83669   0.18216   0.33891   0.00000  Uiso   1.00
C153   C     0.86767   0.14517   0.28137   0.00000  Uiso   1.00
C154   C     0.84697   0.09890   0.24450   0.00000  Uiso   1.00
C155   C     0.88183   0.07061   0.19389   0.00000  Uiso   1.00
C156   C     0.83963   0.23928   0.30314   0.00000  Uiso   1.00
C157   C     0.79534   0.27213   0.28459   0.00000  Uiso   1.00
C158   C     0.80659   0.32306   0.25232   0.00000  Uiso   1.00
C159   C     0.87040   0.18399   0.41555   0.00000  Uiso   1.00
C160   C     0.85197   0.17038   0.49151   0.00000  Uiso   1.00
C161   C     0.88912   0.17478   0.55388   0.00000  Uiso   1.00
H162   H     0.97715   0.22774   0.30433   0.00000  Uiso   1.00
H163   H     0.99769   0.14782   0.20741   0.00000  Uiso   1.00
H164   H     0.94607   0.32102   0.24750   0.00000  Uiso   1.00
H165   H     0.00269   0.21928   0.45439   0.00000  Uiso   1.00
H166   H     0.99680   0.05155   0.10575   0.00000  Uiso   1.00
H167   H     0.88796   0.41676   0.19032   0.00000  Uiso   1.00
H168   H     0.00736   0.20222   0.62657   0.00000  Uiso   1.00
H169   H     0.79494   0.16862   0.34919   0.00000  Uiso   1.00
H170   H     0.80547   0.08545   0.25472   0.00000  Uiso   1.00
H171   H     0.75385   0.25866   0.29482   0.00000  Uiso   1.00
H172   H     0.81048   0.15692   0.50170   0.00000  Uiso   1.00
H173   H     0.84079   0.00093   0.14415   0.00000  Uiso   1.00
H174   H     0.73195   0.36615   0.22872   0.00000  Uiso   1.00
H175   H     0.85135   0.15161   0.66497   0.00000  Uiso   1.00
O176   O     0.92901   0.97261   0.06198   0.00000  Uiso   1.00
O177   O     0.78621   0.45176   0.17294   0.00000  Uiso   1.00
O178   O     0.94287   0.17029   0.74530   0.00000  Uiso   1.00
N179   N     0.95864   0.05104   0.12776   0.00000  Uiso   1.00
N180   N     0.85688   0.39250   0.20682   0.00000  Uiso   1.00
N181   N     0.96851   0.19193   0.61468   0.00000  Uiso   1.00
N182   N     0.87469   0.02381   0.14843   0.00000  Uiso   1.00
N183   N     0.77293   0.36526   0.22748   0.00000  Uiso   1.00
N184   N     0.88456   0.16470   0.63535   0.00000  Uiso   1.00
C185   C     0.21419   0.56459   0.56461   0.00000  Uiso   1.00
C186   C     0.16257   0.57870   0.51817   0.00000  Uiso   1.00
C187   C     0.13434   0.54381   0.46761   0.00000  Uiso   1.00
C188   C     0.08804   0.56445   0.43067   0.00000  Uiso   1.00
C189   C     0.01054   0.57821   0.35653   0.00000  Uiso   1.00
C190   C     0.25667   0.60675   0.53995   0.00000  Uiso   1.00
C191   C     0.30757   0.59543   0.50770   0.00000  Uiso   1.00
C192   C     0.34049   0.63969   0.48910   0.00000  Uiso   1.00
C193   C     0.40911   0.69699   0.44882   0.00000  Uiso   1.00
C194   C     0.20139   0.57598   0.65235   0.00000  Uiso   1.00
C195   C     0.20581   0.53880   0.71463   0.00000  Uiso   1.00
C196   C     0.19220   0.55716   0.79066   0.00000  Uiso   1.00
C197   C     0.17498   0.56669   0.92490   0.00000  Uiso   1.00
C198   C     0.18216   0.66331   0.58891   0.00000  Uiso   1.00
C199   C     0.14517   0.63233   0.53137   0.00000  Uiso   1.00
C200   C     0.09890   0.65303   0.49450   0.00000  Uiso   1.00
C201   C     0.07061   0.61817   0.44389   0.00000  Uiso   1.00
C202   C     0.23928   0.66037   0.55314   0.00000  Uiso   1.00
C203   C     0.27213   0.70466   0.53459   0.00000  Uiso   1.00
C204   C     0.32306   0.69341   0.50232   0.00000  Uiso   1.00
C205   C     0.18399   0.62960   0.66555   0.00000  Uiso   1.00
C206   C     0.17038   0.64803   0.74151   0.00000  Uiso   1.00
C207   C     0.17478   0.61088   0.80388   0.00000  Uiso   1.00
H208   H     0.22774   0.52285   0.55433   0.00000  Uiso   1.00
H209   H     0.14782   0.50231   0.45741   0.00000  Uiso   1.00
H210   H     0.32102   0.55393   0.49750   0.00000  Uiso   1.00
H211   H     0.21928   0.49731   0.70439   0.00000  Uiso   1.00
H212   H     0.05155   0.50320   0.35575   0.00000  Uiso   1.00
H213   H     0.41676   0.61204   0.44032   0.00000  Uiso   1.00
H214   H     0.20222   0.49264   0.87657   0.00000  Uiso   1.00
H215   H     0.16862   0.70506   0.59919   0.00000  Uiso   1.00
H216   H     0.08545   0.69453   0.50472   0.00000  Uiso   1.00
H217   H     0.25866   0.74615   0.54482   0.00000  Uiso   1.00
H218   H     0.15692   0.68952   0.75170   0.00000  Uiso   1.00
H219   H     0.00093   0.65921   0.39415   0.00000  Uiso   1.00
H220   H     0.36615   0.76805   0.47872   0.00000  Uiso   1.00
H221   H     0.15161   0.64865   0.91497   0.00000  Uiso   1.00
O222   O     0.97261   0.57099   0.31198   0.00000  Uiso   1.00
O223   O     0.45176   0.71379   0.42294   0.00000  Uiso   1.00
O224   O     0.17029   0.55713   0.99530   0.00000  Uiso   1.00
N225   N     0.05104   0.54136   0.37776   0.00000  Uiso   1.00
N226   N     0.39250   0.64312   0.45682   0.00000  Uiso   1.00
N227   N     0.19193   0.53149   0.86468   0.00000  Uiso   1.00
N228   N     0.02381   0.62531   0.39843   0.00000  Uiso   1.00
N229   N     0.36526   0.72707   0.47748   0.00000  Uiso   1.00
N230   N     0.16470   0.61544   0.88535   0.00000  Uiso   1.00
C231   C     0.71419   0.06459   0.06461   0.00000  Uiso   1.00
C232   C     0.66257   0.07870   0.01817   0.00000  Uiso   1.00
C233   C     0.63434   0.04381   0.96761   0.00000  Uiso   1.00
C234   C     0.58804   0.06445   0.93067   0.00000  Uiso   1.00
C235   C     0.51054   0.07821   0.85653   0.00000  Uiso   1.00
C236   C     0.75667   0.10675   0.03995   0.00000  Uiso   1.00
C237   C     0.80757   0.09543   0.00770   0.00000  Uiso   1.00
C238   C     0.84049   0.13969   0.98910   0.00000  Uiso   1.00
C239   C     0.90911   0.19699   0.94882   0.00000  Uiso   1.00
C240   C     0.70139   0.07598   0.15235   0.00000  Uiso   1.00
C241   C     0.70581   0.03880   0.21463   0.00000  Uiso   1.00
C242   C     0.69220   0.05716   0.29066   0.00000  Uiso   1.00
C243   C     0.67498   0.06669   0.42490   0.00000  Uiso   1.00
C244   C     0.68216   0.16331   0.08891   0.00000  Uiso   1.00
C245   C     0.64517   0.13233   0.03137   0.00000  Uiso   1.00
C246   C     0.59890   0.15303   0.99450   0.00000  Uiso   1.00
C247   C     0.57061   0.11817   0.94389   0.00000  Uiso   1.00
C248   C     0.73928   0.16037   0.05314   0.00000  Uiso   1.00
C249   C     0.77213   0.20466   0.03459   0.00000  Uiso   1.00
C250   C     0.82306   0.19341   0.00232   0.00000  Uiso   1.00
C251   C     0.68399   0.12960   0.16555   0.00000  Uiso   1.00
C252   C     0.67038   0.14803   0.24151   0.00000  Uiso   1.00
C253   C     0.67478   0.11088   0.30388   0.00000  Uiso   1.00
H254   H     0.72774   0.02285   0.05433   0.00000  Uiso   1.00
H255   H     0.64782   0.00231   0.95741   0.00000  Uiso   1.00
H256   H     0.82102   0.05393   0.99750   0.00000  Uiso   1.00
H257   H     0.71928   0.99731   0.20439   0.00000  Uiso   1.00
H258   H     0.55155   0.00320   0.85575   0.00000  Uiso   1.00
H259   H     0.91676   0.11204   0.94032   0.00000  Uiso   1.00
H260   H     0.70222   0.99264   0.37657   0.00000  Uiso   1.00
H261   H     0.66862   0.20506   0.09919   0.00000  Uiso   1.00
H262   H     0.58545   0.19453   0.00472   0.00000  Uiso   1.00
H263   H     0.75866   0.24615   0.04482   0.00000  Uiso   1.00
H264   H     0.65692   0.18952   0.25170   0.00000  Uiso   1.00
H265   H     0.50093   0.15921   0.89415   0.00000  Uiso   1.00
H266   H     0.86615   0.26805   0.97872   0.00000  Uiso   1.00
H267   H     0.65161   0.14865   0.41497   0.00000  Uiso   1.00
O268   O     0.47261   0.07099   0.81198   0.00000  Uiso   1.00
O269   O     0.95176   0.21379   0.92294   0.00000  Uiso   1.00
O270   O     0.67029   0.05713   0.49530   0.00000  Uiso   1.00
N271   N     0.55104   0.04136   0.87776   0.00000  Uiso   1.00
N272   N     0.89250   0.14312   0.95682   0.00000  Uiso   1.00
N273   N     0.69193   0.03149   0.36468   0.00000  Uiso   1.00
N274   N     0.52381   0.12531   0.89843   0.00000  Uiso   1.00
N275   N     0.86526   0.22707   0.97748   0.00000  Uiso   1.00
N276   N     0.66470   0.11544   0.38535   0.00000  Uiso   1.00
C277   C     0.28581   0.93541   0.06461   0.00000  Uiso   1.00
C278   C     0.33743   0.92130   0.01817   0.00000  Uiso   1.00
C279   C     0.36566   0.95619   0.96761   0.00000  Uiso   1.00
C280   C     0.41196   0.93555   0.93067   0.00000  Uiso   1.00
C281   C     0.48946   0.92179   0.85653   0.00000  Uiso   1.00
C282   C     0.24333   0.89325   0.03995   0.00000  Uiso   1.00
C283   C     0.19243   0.90457   0.00770   0.00000  Uiso   1.00
C284   C     0.15951   0.86031   0.98910   0.00000  Uiso   1.00
C285   C     0.09089   0.80301   0.94882   0.00000  Uiso   1.00
C286   C     0.29861   0.92402   0.15235   0.00000  Uiso   1.00
C287   C     0.29419   0.96120   0.21463   0.00000  Uiso   1.00
C288   C     0.30780   0.94284   0.29066   0.00000  Uiso   1.00
C289   C     0.32502   0.93331   0.42490   0.00000  Uiso   1.00
C290   C     0.31784   0.83669   0.08891   0.00000  Uiso   1.00
C291   C     0.35483   0.86767   0.03137   0.00000  Uiso   1.00
C292   C     0.40110   0.84697   0.99450   0.00000  Uiso   1.00
C293   C     0.42939   0.88183   0.94389   0.00000  Uiso   1.00
C294   C     0.26072   0.83963   0.05314   0.00000  Uiso   1.00
C295   C     0.22787   0.79534   0.03459   0.00000  Uiso   1.00
C296   C     0.17694   0.80659   0.00232   0.00000  Uiso   1.00
C297   C     0.31601   0.87040   0.16555   0.00000  Uiso   1.00
C298   C     0.32962   0.85197   0.24151   0.00000  Uiso   1.00
C299   C     0.32522   0.88912   0.30388   0.00000  Uiso   1.00
H300   H     0.27226   0.97715   0.05433   0.00000  Uiso   1.00
H301   H     0.35218   0.99769   0.95741   0.00000  Uiso   1.00
H302   H     0.17898   0.94607   0.99750   0.00000  Uiso   1.00
H303   H     0.28072   0.00269   0.20439   0.00000  Uiso   1.00
H304   H     0.44845   0.99680   0.85575   0.00000  Uiso   1.00
H305   H     0.08324   0.88796   0.94032   0.00000  Uiso   1.00
H306   H     0.29778   0.00736   0.37657   0.00000  Uiso   1.00
H307   H     0.33138   0.79494   0.09919   0.00000  Uiso   1.00
H308   H     0.41455   0.80547   0.00472   0.00000  Uiso   1.00
H309   H     0.24134   0.75385   0.04482   0.00000  Uiso   1.00
H310   H     0.34308   0.81048   0.25170   0.00000  Uiso   1.00
H311   H     0.49907   0.84079   0.89415   0.00000  Uiso   1.00
H312   H     0.13385   0.73195   0.97872   0.00000  Uiso   1.00
H313   H     0.34839   0.85135   0.41497   0.00000  Uiso   1.00
O314   O     0.52739   0.92901   0.81198   0.00000  Uiso   1.00
O315   O     0.04824   0.78621   0.92294   0.00000  Uiso   1.00
O316   O     0.32971   0.94287   0.49530   0.00000  Uiso   1.00
N317   N     0.44896   0.95864   0.87776   0.00000  Uiso   1.00
N318   N     0.10750   0.85688   0.95682   0.00000  Uiso   1.00
N319   N     0.30807   0.96851   0.36468   0.00000  Uiso   1.00
N320   N     0.47619   0.87469   0.89843   0.00000  Uiso   1.00
N321   N     0.13474   0.77293   0.97748   0.00000  Uiso   1.00
N322   N     0.33530   0.88456   0.38535   0.00000  Uiso   1.00
C323   C     0.78581   0.43541   0.56461   0.00000  Uiso   1.00
C324   C     0.83743   0.42130   0.51817   0.00000  Uiso   1.00
C325   C     0.86566   0.45619   0.46761   0.00000  Uiso   1.00
C326   C     0.91196   0.43555   0.43067   0.00000  Uiso   1.00
C327   C     0.98946   0.42179   0.35653   0.00000  Uiso   1.00
C328   C     0.74333   0.39325   0.53995   0.00000  Uiso   1.00
C329   C     0.69243   0.40457   0.50770   0.00000  Uiso   1.00
C330   C     0.65951   0.36031   0.48910   0.00000  Uiso   1.00
C331   C     0.59089   0.30301   0.44882   0.00000  Uiso   1.00
C332   C     0.79861   0.42402   0.65235   0.00000  Uiso   1.00
C333   C     0.79419   0.46120   0.71463   0.00000  Uiso   1.00
C334   C     0.80780   0.44284   0.79066   0.00000  Uiso   1.00
C335   C     0.82502   0.43331   0.92490   0.00000  Uiso   1.00
C336   C     0.81784   0.33669   0.58891   0.00000  Uiso   1.00
C337   C     0.85483   0.36767   0.53137   0.00000  Uiso   1.00
C338   C     0.90110   0.34697   0.49450   0.00000  Uiso   1.00
C339   C     0.92939   0.38183   0.44389   0.00000  Uiso   1.00
C340   C     0.76072   0.33963   0.55314   0.00000  Uiso   1.00
C341   C     0.72787   0.29534   0.53459   0.00000  Uiso   1.00
C342   C     0.67694   0.30659   0.50232   0.00000  Uiso   1.00
C343   C     0.81601   0.37040   0.66555   0.00000  Uiso   1.00
C344   C     0.82962   0.35197   0.74151   0.00000  Uiso   1.00
C345   C     0.82522   0.38912   0.80388   0.00000  Uiso   1.00
H346   H     0.77226   0.47715   0.55433   0.00000  Uiso   1.00
H347   H     0.85218   0.49769   0.45741   0.00000  Uiso   1.00
H348   H     0.67898   0.44607   0.49750   0.00000  Uiso   1.00
H349   H     0.78072   0.50269   0.70439   0.00000  Uiso   1.00
H350   H     0.94845   0.49680   0.35575   0.00000  Uiso   1.00
H351   H     0.58324   0.38796   0.44032   0.00000  Uiso   1.00
H352   H     0.79778   0.50736   0.87657   0.00000  Uiso   1.00
H353   H     0.83138   0.29494   0.59919   0.00000  Uiso   1.00
H354   H     0.91455   0.30547   0.50472   0.00000  Uiso   1.00
H355   H     0.74134   0.25385   0.54482   0.00000  Uiso   1.00
H356   H     0.84308   0.31048   0.75170   0.00000  Uiso   1.00
H357   H     0.99907   0.34079   0.39415   0.00000  Uiso   1.00
H358   H     0.63385   0.23195   0.47872   0.00000  Uiso   1.00
H359   H     0.84839   0.35135   0.91497   0.00000  Uiso   1.00
O360   O     0.02739   0.42901   0.31198   0.00000  Uiso   1.00
O361   O     0.54824   0.28621   0.42294   0.00000  Uiso   1.00
O362   O     0.82971   0.44287   0.99530   0.00000  Uiso   1.00
N363   N     0.94896   0.45864   0.37776   0.00000  Uiso   1.00
N364   N     0.60750   0.35688   0.45682   0.00000  Uiso   1.00
N365   N     0.80807   0.46851   0.86468   0.00000  Uiso   1.00
N366   N     0.97619   0.37469   0.39843   0.00000  Uiso   1.00
N367   N     0.63474   0.27293   0.47748   0.00000  Uiso   1.00
N368   N     0.83530   0.38456   0.88535   0.00000  Uiso   1.00
C369   C     0.93541   0.71419   0.93539   0.00000  Uiso   1.00
C370   C     0.92130   0.66257   0.98183   0.00000  Uiso   1.00
C371   C     0.95619   0.63434   0.03239   0.00000  Uiso   1.00
C372   C     0.93555   0.58804   0.06933   0.00000  Uiso   1.00
C373   C     0.92179   0.51054   0.14347   0.00000  Uiso   1.00
C374   C     0.89325   0.75667   0.96005   0.00000  Uiso   1.00
C375   C     0.90457   0.80757   0.99230   0.00000  Uiso   1.00
C376   C     0.86031   0.84049   0.01090   0.00000  Uiso   1.00
C377   C     0.80301   0.90911   0.05118   0.00000  Uiso   1.00
C378   C     0.92402   0.70139   0.84765   0.00000  Uiso   1.00
C379   C     0.96120   0.70581   0.78537   0.00000  Uiso   1.00
C380   C     0.94284   0.69220   0.70934   0.00000  Uiso   1.00
C381   C     0.93331   0.67498   0.57510   0.00000  Uiso   1.00
C382   C     0.83669   0.68216   0.91109   0.00000  Uiso   1.00
C383   C     0.86767   0.64517   0.96863   0.00000  Uiso   1.00
C384   C     0.84697   0.59890   0.00550   0.00000  Uiso   1.00
C385   C     0.88183   0.57061   0.05611   0.00000  Uiso   1.00
C386   C     0.83963   0.73928   0.94686   0.00000  Uiso   1.00
C387   C     0.79534   0.77213   0.96541   0.00000  Uiso   1.00
C388   C     0.80659   0.82306   0.99768   0.00000  Uiso   1.00
C389   C     0.87040   0.68399   0.83445   0.00000  Uiso   1.00
C390   C     0.85197   0.67038   0.75849   0.00000  Uiso   1.00
C391   C     0.88912   0.67478   0.69612   0.00000  Uiso   1.00
H392   H     0.97715   0.72774   0.94567   0.00000  Uiso   1.00
H393   H     0.99769   0.64782   0.04259   0.00000  Uiso   1.00
H394   H     0.94607   0.82102   0.00250   0.00000  Uiso   1.00
H395   H     0.00269   0.71928   0.79561   0.00000  Uiso   1.00
H396   H     0.99680   0.55155   0.14425   0.00000  Uiso   1.00
H397   H     0.88796   0.91676   0.05968   0.00000  Uiso   1.00
H398   H     0.00736   0.70222   0.62343   0.00000  Uiso   1.00
H399   H     0.79494   0.66862   0.90081   0.00000  Uiso   1.00
H400   H     0.80547   0.58545   0.99528   0.00000  Uiso   1.00
H401   H     0.75385   0.75866   0.95518   0.00000  Uiso   1.00
H402   H     0.81048   0.65692   0.74830   0.00000  Uiso   1.00
H403   H     0.84079   0.50093   0.10585   0.00000  Uiso   1.00
H404   H     0.73195   0.86615   0.02128   0.00000  Uiso   1.00
H405   H     0.85135   0.65161   0.58503   0.00000  Uiso   1.00
O406   O     0.92901   0.47261   0.18802   0.00000  Uiso   1.00
O407   O     0.78621   0.95176   0.07706   0.00000  Uiso   1.00
O408   O     0.94287   0.67029   0.50470   0.00000  Uiso   1.00
N409   N     0.95864   0.55104   0.12224   0.00000  Uiso   1.00
N410   N     0.85688   0.89250   0.04318   0.00000  Uiso   1.00
N411   N     0.96851   0.69193   0.63532   0.00000  Uiso   1.00
N412   N     0.87469   0.52381   0.10157   0.00000  Uiso   1.00
N413   N     0.77293   0.86526   0.02252   0.00000  Uiso   1.00
N414   N     0.88456   0.66470   0.61465   0.00000  Uiso   1.00
C415   C     0.43541   0.21419   0.43539   0.00000  Uiso   1.00
C416   C     0.42130   0.16257   0.48183   0.00000  Uiso   1.00
C417   C     0.45619   0.13434   0.53239   0.00000  Uiso   1.00
C418   C     0.43555   0.08804   0.56933   0.00000  Uiso   1.00
C419   C     0.42179   0.01054   0.64347   0.00000  Uiso   1.00
C420   C     0.39325   0.25667   0.46005   0.00000  Uiso   1.00
C421   C     0.40457   0.30757   0.49230   0.00000  Uiso   1.00
C422   C     0.36031   0.34049   0.51090   0.00000  Uiso   1.00
C423   C     0.30301   0.40911   0.55118   0.00000  Uiso   1.00
C424   C     0.42402   0.20139   0.34765   0.00000  Uiso   1.00
C425   C     0.46120   0.20581   0.28537   0.00000  Uiso   1.00
C426   C     0.44284   0.19220   0.20934   0.00000  Uiso   1.00
C427   C     0.43331   0.17498   0.07510   0.00000  Uiso   1.00
C428   C     0.33669   0.18216   0.41109   0.00000  Uiso   1.00
C429   C     0.36767   0.14517   0.46863   0.00000  Uiso   1.00
C430   C     0.34697   0.09890   0.50550   0.00000  Uiso   1.00
C431   C     0.38183   0.07061   0.55611   0.00000  Uiso   1.00
C432   C     0.33963   0.23928   0.44686   0.00000  Uiso   1.00
C433   C     0.29534   0.27213   0.46541   0.00000  Uiso   1.00
C434   C     0.30659   0.32306   0.49768   0.00000  Uiso   1.00
C435   C     0.37040   0.18399   0.33445   0.00000  Uiso   1.00
C436   C     0.35197   0.17038   0.25849   0.00000  Uiso   1.00
C437   C     0.38912   0.17478   0.19612   0.00000  Uiso   1.00
H438   H     0.47715   0.22774   0.44567   0.00000  Uiso   1.00
H439   H     0.49769   0.14782   0.54259   0.00000  Uiso   1.00
H440   H     0.44607   0.32102   0.50250   0.00000  Uiso   1.00
H441   H     0.50269   0.21928   0.29561   0.00000  Uiso   1.00
H442   H     0.49680   0.05155   0.64425   0.00000  Uiso   1.00
H443   H     0.38796   0.41676   0.55968   0.00000  Uiso   1.00
H444   H     0.50736   0.20222   0.12343   0.00000  Uiso   1.00
H445   H     0.29494   0.16862   0.40081   0.00000  Uiso   1.00
H446   H     0.30547   0.08545   0.49528   0.00000  Uiso   1.00
H447   H     0.25385   0.25866   0.45518   0.00000  Uiso   1.00
H448   H     0.31048   0.15692   0.24830   0.00000  Uiso   1.00
H449   H     0.34079   0.00093   0.60585   0.00000  Uiso   1.00
H450   H     0.23195   0.36615   0.52128   0.00000  Uiso   1.00
H451   H     0.35135   0.15161   0.08503   0.00000  Uiso   1.00
O452   O     0.42901   0.97261   0.68802   0.00000  Uiso   1.00
O453   O     0.28621   0.45176   0.57706   0.00000  Uiso   1.00
O454   O     0.44287   0.17029   0.00470   0.00000  Uiso   1.00
N455   N     0.45864   0.05104   0.62224   0.00000  Uiso   1.00
N456   N     0.35688   0.39250   0.54318   0.00000  Uiso   1.00
N457   N     0.46851   0.19193   0.13532   0.00000  Uiso   1.00
N458   N     0.37469   0.02381   0.60157   0.00000  Uiso   1.00
N459   N     0.27293   0.36526   0.52252   0.00000  Uiso   1.00
N460   N     0.38456   0.16470   0.11465   0.00000  Uiso   1.00
C461   C     0.56459   0.78581   0.43539   0.00000  Uiso   1.00
C462   C     0.57870   0.83743   0.48183   0.00000  Uiso   1.00
C463   C     0.54381   0.86566   0.53239   0.00000  Uiso   1.00
C464   C     0.56445   0.91196   0.56933   0.00000  Uiso   1.00
C465   C     0.57821   0.98946   0.64347   0.00000  Uiso   1.00
C466   C     0.60675   0.74333   0.46005   0.00000  Uiso   1.00
C467   C     0.59543   0.69243   0.49230   0.00000  Uiso   1.00
C468   C     0.63969   0.65951   0.51090   0.00000  Uiso   1.00
C469   C     0.69699   0.59089   0.55118   0.00000  Uiso   1.00
C470   C     0.57598   0.79861   0.34765   0.00000  Uiso   1.00
C471   C     0.53880   0.79419   0.28537   0.00000  Uiso   1.00
C472   C     0.55716   0.80780   0.20934   0.00000  Uiso   1.00
C473   C     0.56669   0.82502   0.07510   0.00000  Uiso   1.00
C474   C     0.66331   0.81784   0.41109   0.00000  Uiso   1.00
C475   C     0.63233   0.85483   0.46863   0.00000  Uiso   1.00
C476   C     0.65303   0.90110   0.50550   0.00000  Uiso   1.00
C477   C     0.61817   0.92939   0.55611   0.00000  Uiso   1.00
C478   C     0.66037   0.76072   0.44686   0.00000  Uiso   1.00
C479   C     0.70466   0.72787   0.46541   0.00000  Uiso   1.00
C480   C     0.69341   0.67694   0.49768   0.00000  Uiso   1.00
C481   C     0.62960   0.81601   0.33445   0.00000  Uiso   1.00
C482   C     0.64803   0.82962   0.25849   0.00000  Uiso   1.00
C483   C     0.61088   0.82522   0.19612   0.00000  Uiso   1.00
H484   H     0.52285   0.77226   0.44567   0.00000  Uiso   1.00
H485   H     0.50231   0.85218   0.54259   0.00000  Uiso   1.00
H486   H     0.55393   0.67898   0.50250   0.00000  Uiso   1.00
H487   H     0.49731   0.78072   0.29561   0.00000  Uiso   1.00
H488   H     0.50320   0.94845   0.64425   0.00000  Uiso   1.00
H489   H     0.61204   0.58324   0.55968   0.00000  Uiso   1.00
H490   H     0.49264   0.79778   0.12343   0.00000  Uiso   1.00
H491   H     0.70506   0.83138   0.40081   0.00000  Uiso   1.00
H492   H     0.69453   0.91455   0.49528   0.00000  Uiso   1.00
H493   H     0.74615   0.74134   0.45518   0.00000  Uiso   1.00
H494   H     0.68952   0.84308   0.24830   0.00000  Uiso   1.00
H495   H     0.65921   0.99907   0.60585   0.00000  Uiso   1.00
H496   H     0.76805   0.63385   0.52128   0.00000  Uiso   1.00
H497   H     0.64865   0.84839   0.08503   0.00000  Uiso   1.00
O498   O     0.57099   0.02739   0.68802   0.00000  Uiso   1.00
O499   O     0.71379   0.54824   0.57706   0.00000  Uiso   1.00
O500   O     0.55713   0.82971   0.00470   0.00000  Uiso   1.00
N501   N     0.54136   0.94896   0.62224   0.00000  Uiso   1.00
N502   N     0.64312   0.60750   0.54318   0.00000  Uiso   1.00
N503   N     0.53149   0.80807   0.13532   0.00000  Uiso   1.00
N504   N     0.62531   0.97619   0.60157   0.00000  Uiso   1.00
N505   N     0.72707   0.63474   0.52252   0.00000  Uiso   1.00
N506   N     0.61544   0.83530   0.11465   0.00000  Uiso   1.00
C507   C     0.06459   0.28581   0.93539   0.00000  Uiso   1.00
C508   C     0.07870   0.33743   0.98183   0.00000  Uiso   1.00
C509   C     0.04381   0.36566   0.03239   0.00000  Uiso   1.00
C510   C     0.06445   0.41196   0.06933   0.00000  Uiso   1.00
C511   C     0.07821   0.48946   0.14347   0.00000  Uiso   1.00
C512   C     0.10675   0.24333   0.96005   0.00000  Uiso   1.00
C513   C     0.09543   0.19243   0.99230   0.00000  Uiso   1.00
C514   C     0.13969   0.15951   0.01090   0.00000  Uiso   1.00
C515   C     0.19699   0.09089   0.05118   0.00000  Uiso   1.00
C516   C     0.07598   0.29861   0.84765   0.00000  Uiso   1.00
C517   C     0.03880   0.29419   0.78537   0.00000  Uiso   1.00
C518   C     0.05716   0.30780   0.70934   0.00000  Uiso   1.00
C519   C     0.06669   0.32502   0.57510   0.00000  Uiso   1.00
C520   C     0.16331   0.31784   0.91109   0.00000  Uiso   1.00
C521   C     0.13233   0.35483   0.96863   0.00000  Uiso   1.00
C522   C     0.15303   0.40110   0.00550   0.00000  Uiso   1.00
C523   C     0.11817   0.42939   0.05611   0.00000  Uiso   1.00
C524   C     0.16037   0.26072   0.94686   0.00000  Uiso   1.00
C525   C     0.20466   0.22787   0.96541   0.00000  Uiso   1.00
C526   C     0.19341   0.17694   0.99768   0.00000  Uiso   1.00
C527   C     0.12960   0.31601   0.83445   0.00000  Uiso   1.00
C528   C     0.14803   0.32962   0.75849   0.00000  Uiso   1.00
C529   C     0.11088   0.32522   0.69612   0.00000  Uiso   1.00
H530   H     0.02285   0.27226   0.94567   0.00000  Uiso   1.00
H531   H     0.00231   0.35218   0.04259   0.00000  Uiso   1.00
H532   H     0.05393   0.17898   0.00250   0.00000  Uiso   1.00
H533   H     0.99731   0.28072   0.79561   0.00000  Uiso   1.00
H534   H     0.00320   0.44845   0.14425   0.00000  Uiso   1.00
H535   H     0.11204   0.08324   0.05968   0.00000  Uiso   1.00
H536   H     0.99264   0.29778   0.62343   0.00000  Uiso   1.00
H537   H     0.20506   0.33138   0.90081   0.00000  Uiso   1.00
H538   H     0.19453   0.41455   0.99528   0.00000  Uiso   1.00
H539   H     0.24615   0.24134   0.95518   0.00000  Uiso   1.00
H540   H     0.18952   0.34308   0.74830   0.00000  Uiso   1.00
H541   H     0.15921   0.49907   0.10585   0.00000  Uiso   1.00
H542   H     0.26805   0.13385   0.02128   0.00000  Uiso   1.00
H543   H     0.14865   0.34839   0.58503   0.00000  Uiso   1.00
O544   O     0.07099   0.52739   0.18802   0.00000  Uiso   1.00
O545   O     0.21379   0.04824   0.07706   0.00000  Uiso   1.00
O546   O     0.05713   0.32971   0.50470   0.00000  Uiso   1.00
N547   N     0.04136   0.44896   0.12224   0.00000  Uiso   1.00
N548   N     0.14312   0.10750   0.04318   0.00000  Uiso   1.00
N549   N     0.03149   0.30807   0.63532   0.00000  Uiso   1.00
N550   N     0.12531   0.47619   0.10157   0.00000  Uiso   1.00
N551   N     0.22707   0.13474   0.02252   0.00000  Uiso   1.00
N552   N     0.11544   0.33530   0.61465   0.00000  Uiso   1.00
C553   C     0.78581   0.93541   0.68539   0.00000  Uiso   1.00
C554   C     0.83743   0.92130   0.73183   0.00000  Uiso   1.00
C555   C     0.86566   0.95619   0.78239   0.00000  Uiso   1.00
C556   C     0.91196   0.93555   0.81933   0.00000  Uiso   1.00
C557   C     0.98946   0.92179   0.89347   0.00000  Uiso   1.00
C558   C     0.74333   0.89325   0.71005   0.00000  Uiso   1.00
C559   C     0.69243   0.90457   0.74230   0.00000  Uiso   1.00
C560   C     0.65951   0.86031   0.76090   0.00000  Uiso   1.00
C561   C     0.59089   0.80301   0.80118   0.00000  Uiso   1.00
C562   C     0.79861   0.92402   0.59765   0.00000  Uiso   1.00
C563   C     0.79419   0.96120   0.53537   0.00000  Uiso   1.00
C564   C     0.80780   0.94284   0.45934   0.00000  Uiso   1.00
C565   C     0.82502   0.93331   0.32510   0.00000  Uiso   1.00
C566   C     0.81784   0.83669   0.66109   0.00000  Uiso   1.00
C567   C     0.85483   0.86767   0.71863   0.00000  Uiso   1.00
C568   C     0.90110   0.84697   0.75550   0.00000  Uiso   1.00
C569   C     0.92939   0.88183   0.80611   0.00000  Uiso   1.00
C570   C     0.76072   0.83963   0.69686   0.00000  Uiso   1.00
C571   C     0.72787   0.79534   0.71541   0.00000  Uiso   1.00
C572   C     0.67694   0.80659   0.74768   0.00000  Uiso   1.00
C573   C     0.81601   0.87040   0.58445   0.00000  Uiso   1.00
C574   C     0.82962   0.85197   0.50849   0.00000  Uiso   1.00
C575   C     0.82522   0.88912   0.44612   0.00000  Uiso   1.00
H576   H     0.77226   0.97715   0.69567   0.00000  Uiso   1.00
H577   H     0.85218   0.99769   0.79259   0.00000  Uiso   1.00
H578   H     0.67898   0.94607   0.75250   0.00000  Uiso   1.00
H579   H     0.78072   0.00269   0.54561   0.00000  Uiso   1.00
H580   H     0.94845   0.99680   0.89425   0.00000  Uiso   1.00
H581   H     0.58324   0.88796   0.80968   0.00000  Uiso   1.00
H582   H     0.79778   0.00736   0.37343   0.00000  Uiso   1.00
H583   H     0.83138   0.79494   0.65081   0.00000  Uiso   1.00
H584   H     0.91455   0.80547   0.74528   0.00000  Uiso   1.00
H585   H     0.74134   0.75385   0.70518   0.00000  Uiso   1.00
H586   H     0.84308   0.81048   0.49830   0.00000  Uiso   1.00
H587   H     0.99907   0.84079   0.85585   0.00000  Uiso   1.00
H588   H     0.63385   0.73195   0.77128   0.00000  Uiso   1.00
H589   H     0.84839   0.85135   0.33503   0.00000  Uiso   1.00
O590   O     0.02739   0.92901   0.93802   0.00000  Uiso   1.00
O591   O     0.54824   0.78621   0.82706   0.00000  Uiso   1.00
O592   O     0.82971   0.94287   0.25470   0.00000  Uiso   1.00
N593   N     0.94896   0.95864   0.87224   0.00000  Uiso   1.00
N594   N     0.60750   0.85688   0.79318   0.00000  Uiso   1.00
N595   N     0.80807   0.96851   0.38532   0.00000  Uiso   1.00
N596   N     0.97619   0.87469   0.85157   0.00000  Uiso   1.00
N597   N     0.63474   0.77293   0.77252   0.00000  Uiso   1.00
N598   N     0.83530   0.88456   0.36465   0.00000  Uiso   1.00
C599   C     0.28581   0.43541   0.18539   0.00000  Uiso   1.00
C600   C     0.33743   0.42130   0.23183   0.00000  Uiso   1.00
C601   C     0.36566   0.45619   0.28239   0.00000  Uiso   1.00
C602   C     0.41196   0.43555   0.31933   0.00000  Uiso   1.00
C603   C     0.48946   0.42179   0.39347   0.00000  Uiso   1.00
C604   C     0.24333   0.39325   0.21005   0.00000  Uiso   1.00
C605   C     0.19243   0.40457   0.24230   0.00000  Uiso   1.00
C606   C     0.15951   0.36031   0.26090   0.00000  Uiso   1.00
C607   C     0.09089   0.30301   0.30118   0.00000  Uiso   1.00
C608   C     0.29861   0.42402   0.09765   0.00000  Uiso   1.00
C609   C     0.29419   0.46120   0.03537   0.00000  Uiso   1.00
C610   C     0.30780   0.44284   0.95934   0.00000  Uiso   1.00
C611   C     0.32502   0.43331   0.82510   0.00000  Uiso   1.00
C612   C     0.31784   0.33669   0.16109   0.00000  Uiso   1.00
C613   C     0.35483   0.36767   0.21863   0.00000  Uiso   1.00
C614   C     0.40110   0.34697   0.25550   0.00000  Uiso   1.00
C615   C     0.42939   0.38183   0.30611   0.00000  Uiso   1.00
C616   C     0.26072   0.33963   0.19686   0.00000  Uiso   1.00
C617   C     0.22787   0.29534   0.21541   0.00000  Uiso   1.00
C618   C     0.17694   0.30659   0.24768   0.00000  Uiso   1.00
C619   C     0.31601   0.37040   0.08445   0.00000  Uiso   1.00
C620   C     0.32962   0.35197   0.00849   0.00000  Uiso   1.00
C621   C     0.32522   0.38912   0.94612   0.00000  Uiso   1.00
H622   H     0.27226   0.47715   0.19567   0.00000  Uiso   1.00
H623   H     0.35218   0.49769   0.29259   0.00000  Uiso   1.00
H624   H     0.17898   0.44607   0.25250   0.00000  Uiso   1.00
H625   H     0.28072   0.50269   0.04561   0.00000  Uiso   1.00
H626   H     0.44845   0.49680   0.39425   0.00000  Uiso   1.00
H627   H     0.08324   0.38796   0.30968   0.00000  Uiso   1.00
H628   H     0.29778   0.50736   0.87343   0.00000  Uiso   1.00
H629   H     0.33138   0.29494   0.15081   0.00000  Uiso   1.00
H630   H     0.41455   0.30547   0.24528   0.00000  Uiso   1.00
H631   H     0.24134   0.25385   0.20518   0.00000  Uiso   1.00
H632   H     0.34308   0.31048   0.99830   0.00000  Uiso   1.00
H633   H     0.49907   0.34079   0.35585   0.00000  Uiso   1.00
H634   H     0.13385   0.23195   0.27128   0.00000  Uiso   1.00
H635   H     0.34839   0.35135   0.83503   0.00000  Uiso   1.00
O636   O     0.52739   0.42901   0.43802   0.00000  Uiso   1.00
O637   O     0.04824   0.28621   0.32706   0.00000  Uiso   1.00
O638   O     0.32971   0.44287   0.75470   0.00000  Uiso   1.00
N639   N     0.44896   0.45864   0.37224   0.00000  Uiso   1.00
N640   N     0.10750   0.35688   0.29318   0.00000  Uiso   1.00
N641   N     0.30807   0.46851   0.88532   0.00000  Uiso   1.00
N642   N     0.47619   0.37469   0.35157   0.00000  Uiso   1.00
N643   N     0.13474   0.27293   0.27252   0.00000  Uiso   1.00
N644   N     0.33530   0.38456   0.86465   0.00000  Uiso   1.00
C645   C     0.71419   0.56459   0.18539   0.00000  Uiso   1.00
C646   C     0.66257   0.57870   0.23183   0.00000  Uiso   1.00
C647   C     0.63434   0.54381   0.28239   0.00000  Uiso   1.00
C648   C     0.58804   0.56445   0.31933   0.00000  Uiso   1.00
C649   C     0.51054   0.57821   0.39347   0.00000  Uiso   1.00
C650   C     0.75667   0.60675   0.21005   0.00000  Uiso   1.00
C651   C     0.80757   0.59543   0.24230   0.00000  Uiso   1.00
C652   C     0.84049   0.63969   0.26090   0.00000  Uiso   1.00
C653   C     0.90911   0.69699   0.30118   0.00000  Uiso   1.00
C654   C     0.70139   0.57598   0.09765   0.00000  Uiso   1.00
C655   C     0.70581   0.53880   0.03537   0.00000  Uiso   1.00
C656   C     0.69220   0.55716   0.95934   0.00000  Uiso   1.00
C657   C     0.67498   0.56669   0.82510   0.00000  Uiso   1.00
C658   C     0.68216   0.66331   0.16109   0.00000  Uiso   1.00
C659   C     0.64517   0.63233   0.21863   0.00000  Uiso   1.00
C660   C     0.59890   0.65303   0.25550   0.00000  Uiso   1.00
C661   C     0.57061   0.61817   0.30611   0.00000  Uiso   1.00
C662   C     0.73928   0.66037   0.19686   0.00000  Uiso   1.00
C663   C     0.77213   0.70466   0.21541   0.00000  Uiso   1.00
C664   C     0.82306   0.69341   0.24768   0.00000  Uiso   1.00
C665   C     0.68399   0.62960   0.08445   0.00000  Uiso   1.00
C666   C     0.67038   0.64803   0.00849   0.00000  Uiso   1.00
C667   C     0.67478   0.61088   0.94612   0.00000  Uiso   1.00
H668   H     0.72774   0.52285   0.19567   0.00000  Uiso   1.00
H669   H     0.64782   0.50231   0.29259   0.00000  Uiso   1.00
H670   H     0.82102   0.55393   0.25250   0.00000  Uiso   1.00
H671   H     0.71928   0.49731   0.04561   0.00000  Uiso   1.00
H672   H     0.55155   0.50320   0.39425   0.00000  Uiso   1.00
H673   H     0.91676   0.61204   0.30968   0.00000  Uiso   1.00
H674   H     0.70222   0.49264   0.87343   0.00000  Uiso   1.00
H675   H     0.66862   0.70506   0.15081   0.00000  Uiso   1.00
H676   H     0.58545   0.69453   0.24528   0.00000  Uiso   1.00
H677   H     0.75866   0.74615   0.20518   0.00000  Uiso   1.00
H678   H     0.65692   0.68952   0.99830   0.00000  Uiso   1.00
H679   H     0.50093   0.65921   0.35585   0.00000  Uiso   1.00
H680   H     0.86615   0.76805   0.27128   0.00000  Uiso   1.00
H681   H     0.65161   0.64865   0.83503   0.00000  Uiso   1.00
O682   O     0.47261   0.57099   0.43802   0.00000  Uiso   1.00
O683   O     0.95176   0.71379   0.32706   0.00000  Uiso   1.00
O684   O     0.67029   0.55713   0.75470   0.00000  Uiso   1.00
N685   N     0.55104   0.54136   0.37224   0.00000  Uiso   1.00
N686   N     0.89250   0.64312   0.29318   0.00000  Uiso   1.00
N687   N     0.69193   0.53149   0.88532   0.00000  Uiso   1.00
N688   N     0.52381   0.62531   0.35157   0.00000  Uiso   1.00
N689   N     0.86526   0.72707   0.27252   0.00000  Uiso   1.00
N690   N     0.66470   0.61544   0.86465   0.00000  Uiso   1.00
C691   C     0.21419   0.06459   0.68539   0.00000  Uiso   1.00
C692   C     0.16257   0.07870   0.73183   0.00000  Uiso   1.00
C693   C     0.13434   0.04381   0.78239   0.00000  Uiso   1.00
C694   C     0.08804   0.06445   0.81933   0.00000  Uiso   1.00
C695   C     0.01054   0.07821   0.89347   0.00000  Uiso   1.00
C696   C     0.25667   0.10675   0.71005   0.00000  Uiso   1.00
C697   C     0.30757   0.09543   0.74230   0.00000  Uiso   1.00
C698   C     0.34049   0.13969   0.76090   0.00000  Uiso   1.00
C699   C     0.40911   0.19699   0.80118   0.00000  Uiso   1.00
C700   C     0.20139   0.07598   0.59765   0.00000  Uiso   1.00
C701   C     0.20581   0.03880   0.53537   0.00000  Uiso   1.00
C702   C     0.19220   0.05716   0.45934   0.00000  Uiso   1.00
C703   C     0.17498   0.06669   0.32510   0.00000  Uiso   1.00
C704   C     0.18216   0.16331   0.66109   0.00000  Uiso   1.00
C705   C     0.14517   0.13233   0.71863   0.00000  Uiso   1.00
C706   C     0.09890   0.15303   0.75550   0.00000  Uiso   1.00
C707   C     0.07061   0.11817   0.80611   0.00000  Uiso   1.00
C708   C     0.23928   0.16037   0.69686   0.00000  Uiso   1.00
C709   C     0.27213   0.20466   0.71541   0.00000  Uiso   1.00
C710   C     0.32306   0.19341   0.74768   0.00000  Uiso   1.00
C711   C     0.18399   0.12960   0.58445   0.00000  Uiso   1.00
C712   C     0.17038   0.14803   0.50849   0.00000  Uiso   1.00
C713   C     0.17478   0.11088   0.44612   0.00000  Uiso   1.00
H714   H     0.22774   0.02285   0.69567   0.00000  Uiso   1.00
H715   H     0.14782   0.00231   0.79259   0.00000  Uiso   1.00
H716   H     0.32102   0.05393   0.75250   0.00000  Uiso   1.00
H717   H     0.21928   0.99731   0.54561   0.00000  Uiso   1.00
H718   H     0.05155   0.00320   0.89425   0.00000  Uiso   1.00
H719   H     0.41676   0.11204   0.80968   0.00000  Uiso   1.00
H720   H     0.20222   0.99264   0.37343   0.00000  Uiso   1.00
H721   H     0.16862   0.20506   0.65081   0.00000  Uiso   1.00
H722   H     0.08545   0.19453   0.74528   0.00000  Uiso   1.00
H723   H     0.25866   0.24615   0.70518   0.00000  Uiso   1.00
H724   H     0.15692   0.18952   0.49830   0.00000  Uiso   1.00
H725   H     0.00093   0.15921   0.85585   0.00000  Uiso   1.00
H726   H     0.36615   0.26805   0.77128   0.00000  Uiso   1.00
H727   H     0.15161   0.14865   0.33503   0.00000  Uiso   1.00
O728   O     0.97261   0.07099   0.93802   0.00000  Uiso   1.00
O729   O     0.45176   0.21379   0.82706   0.00000  Uiso   1.00
O730   O     0.17029   0.05713   0.25470   0.00000  Uiso   1.00
N731   N     0.05104   0.04136   0.87224   0.00000  Uiso   1.00
N732   N     0.39250   0.14312   0.79318   0.00000  Uiso   1.00
N733   N     0.19193   0.03149   0.38532   0.00000  Uiso   1.00
N734   N     0.02381   0.12531   0.85157   0.00000  Uiso   1.00
N735   N     0.36526   0.22707   0.77252   0.00000  Uiso   1.00
N736   N     0.16470   0.11544   0.36465   0.00000  Uiso   1.00
