data_job_01250
_audit_creation_date              2018-12-19
_audit_creation_method            'Materials Studio'
_symmetry_space_group_name_H-M    'P1'
_symmetry_Int_Tables_number       1
_symmetry_cell_setting            triclinic
loop_
_symmetry_equiv_pos_as_xyz
  x,y,z
_cell_length_a                    24.3963
_cell_length_b                    27.0088
_cell_length_c                    14.2502
_cell_angle_alpha                 90.0000
_cell_angle_beta                  90.0000
_cell_angle_gamma                 90.0000
loop_
_atom_site_label
_atom_site_type_symbol
_atom_site_fract_x
_atom_site_fract_y
_atom_site_fract_z
_atom_site_U_iso_or_equiv
_atom_site_adp_type
_atom_site_occupancy
C1     C     0.30488   0.18115   0.40337   0.00000  Uiso   1.00
C2     C     0.32427   0.16554   0.30603   0.00000  Uiso   1.00
C3     C     0.30314   0.18240   0.22145   0.00000  Uiso   1.00
C4     C     0.32648   0.16364   0.14002   0.00000  Uiso   1.00
C5     C     0.35005   0.14462   0.98841   0.00000  Uiso   1.00
C6     C     0.28912   0.13351   0.45410   0.00000  Uiso   1.00
C7     C     0.23844   0.12346   0.49401   0.00000  Uiso   1.00
C8     C     0.23219   0.07773   0.53724   0.00000  Uiso   1.00
C9     C     0.20120   0.00900   0.61555   0.00000  Uiso   1.00
C10    C     0.35539   0.20099   0.45394   0.00000  Uiso   1.00
C11    C     0.36042   0.24766   0.49376   0.00000  Uiso   1.00
C12    C     0.40997   0.25875   0.53687   0.00000  Uiso   1.00
C13    C     0.48186   0.29479   0.61495   0.00000  Uiso   1.00
C14    C     0.38390   0.11783   0.40916   0.00000  Uiso   1.00
C15    C     0.36719   0.13115   0.30918   0.00000  Uiso   1.00
C16    C     0.39057   0.11235   0.22786   0.00000  Uiso   1.00
C17    C     0.36948   0.12919   0.14317   0.00000  Uiso   1.00
C18    C     0.33204   0.09912   0.45724   0.00000  Uiso   1.00
C19    C     0.32587   0.05340   0.50042   0.00000  Uiso   1.00
C20    C     0.27519   0.04328   0.54039   0.00000  Uiso   1.00
C21    C     0.39831   0.16660   0.45709   0.00000  Uiso   1.00
C22    C     0.44785   0.17761   0.50016   0.00000  Uiso   1.00
C23    C     0.45296   0.22429   0.54003   0.00000  Uiso   1.00
H24    H     0.27146   0.20792   0.40092   0.00000  Uiso   1.00
H25    H     0.26992   0.20902   0.21905   0.00000  Uiso   1.00
H26    H     0.20524   0.15008   0.49158   0.00000  Uiso   1.00
H27    H     0.32720   0.27427   0.49131   0.00000  Uiso   1.00
H28    H     0.28713   0.19505   0.01879   0.00000  Uiso   1.00
H29    H     0.15074   0.07079   0.59346   0.00000  Uiso   1.00
H30    H     0.40793   0.33266   0.59291   0.00000  Uiso   1.00
H31    H     0.41731   0.09105   0.41161   0.00000  Uiso   1.00
H32    H     0.42378   0.08574   0.23031   0.00000  Uiso   1.00
H33    H     0.35909   0.02680   0.50284   0.00000  Uiso   1.00
H34    H     0.48106   0.15099   0.50258   0.00000  Uiso   1.00
H35    H     0.41201   0.09499   0.02793   0.00000  Uiso   1.00
H36    H     0.27561   0.97073   0.60261   0.00000  Uiso   1.00
H37    H     0.53280   0.23260   0.60206   0.00000  Uiso   1.00
O38    O     0.35118   0.14362   0.90391   0.00000  Uiso   1.00
O39    O     0.17224   0.98060   0.65787   0.00000  Uiso   1.00
O40    O     0.50967   0.32417   0.65714   0.00000  Uiso   1.00
N41    N     0.31564   0.17224   0.04582   0.00000  Uiso   1.00
N42    N     0.18812   0.05606   0.58309   0.00000  Uiso   1.00
N43    N     0.42856   0.30088   0.58260   0.00000  Uiso   1.00
N44    N     0.38284   0.11840   0.05074   0.00000  Uiso   1.00
N45    N     0.25531   0.00222   0.58801   0.00000  Uiso   1.00
N46    N     0.49576   0.24704   0.58752   0.00000  Uiso   1.00
C47    C     0.30488   0.68115   0.90337   0.00000  Uiso   1.00
C48    C     0.32427   0.66554   0.80603   0.00000  Uiso   1.00
C49    C     0.30314   0.68240   0.72145   0.00000  Uiso   1.00
C50    C     0.32648   0.66364   0.64002   0.00000  Uiso   1.00
C51    C     0.35005   0.64462   0.48841   0.00000  Uiso   1.00
C52    C     0.28912   0.63351   0.95410   0.00000  Uiso   1.00
C53    C     0.23844   0.62346   0.99401   0.00000  Uiso   1.00
C54    C     0.23219   0.57773   0.03724   0.00000  Uiso   1.00
C55    C     0.20120   0.50900   0.11555   0.00000  Uiso   1.00
C56    C     0.35539   0.70099   0.95394   0.00000  Uiso   1.00
C57    C     0.36042   0.74766   0.99376   0.00000  Uiso   1.00
C58    C     0.40997   0.75875   0.03687   0.00000  Uiso   1.00
C59    C     0.48186   0.79479   0.11495   0.00000  Uiso   1.00
C60    C     0.38390   0.61783   0.90916   0.00000  Uiso   1.00
C61    C     0.36719   0.63115   0.80918   0.00000  Uiso   1.00
C62    C     0.39057   0.61235   0.72786   0.00000  Uiso   1.00
C63    C     0.36948   0.62919   0.64317   0.00000  Uiso   1.00
C64    C     0.33204   0.59912   0.95724   0.00000  Uiso   1.00
C65    C     0.32587   0.55340   0.00042   0.00000  Uiso   1.00
C66    C     0.27519   0.54328   0.04039   0.00000  Uiso   1.00
C67    C     0.39831   0.66660   0.95709   0.00000  Uiso   1.00
C68    C     0.44785   0.67761   0.00016   0.00000  Uiso   1.00
C69    C     0.45296   0.72429   0.04003   0.00000  Uiso   1.00
H70    H     0.27146   0.70792   0.90092   0.00000  Uiso   1.00
H71    H     0.26992   0.70902   0.71905   0.00000  Uiso   1.00
H72    H     0.20524   0.65008   0.99158   0.00000  Uiso   1.00
H73    H     0.32720   0.77427   0.99131   0.00000  Uiso   1.00
H74    H     0.28713   0.69505   0.51879   0.00000  Uiso   1.00
H75    H     0.15074   0.57079   0.09346   0.00000  Uiso   1.00
H76    H     0.40793   0.83266   0.09291   0.00000  Uiso   1.00
H77    H     0.41731   0.59105   0.91161   0.00000  Uiso   1.00
H78    H     0.42378   0.58574   0.73031   0.00000  Uiso   1.00
H79    H     0.35909   0.52680   0.00284   0.00000  Uiso   1.00
H80    H     0.48106   0.65099   0.00258   0.00000  Uiso   1.00
H81    H     0.41201   0.59499   0.52793   0.00000  Uiso   1.00
H82    H     0.27561   0.47073   0.10261   0.00000  Uiso   1.00
H83    H     0.53280   0.73260   0.10206   0.00000  Uiso   1.00
O84    O     0.35118   0.64362   0.40391   0.00000  Uiso   1.00
O85    O     0.17224   0.48060   0.15787   0.00000  Uiso   1.00
O86    O     0.50967   0.82417   0.15714   0.00000  Uiso   1.00
N87    N     0.31564   0.67224   0.54582   0.00000  Uiso   1.00
N88    N     0.18812   0.55606   0.08309   0.00000  Uiso   1.00
N89    N     0.42856   0.80088   0.08260   0.00000  Uiso   1.00
N90    N     0.38284   0.61840   0.55074   0.00000  Uiso   1.00
N91    N     0.25531   0.50222   0.08801   0.00000  Uiso   1.00
N92    N     0.49576   0.74704   0.08752   0.00000  Uiso   1.00
C93    C     0.80488   0.18115   0.90337   0.00000  Uiso   1.00
C94    C     0.82427   0.16554   0.80603   0.00000  Uiso   1.00
C95    C     0.80314   0.18240   0.72145   0.00000  Uiso   1.00
C96    C     0.82648   0.16364   0.64002   0.00000  Uiso   1.00
C97    C     0.85005   0.14462   0.48841   0.00000  Uiso   1.00
C98    C     0.78912   0.13351   0.95410   0.00000  Uiso   1.00
C99    C     0.73844   0.12346   0.99401   0.00000  Uiso   1.00
C100   C     0.73219   0.07773   0.03724   0.00000  Uiso   1.00
C101   C     0.70120   0.00900   0.11555   0.00000  Uiso   1.00
C102   C     0.85539   0.20099   0.95394   0.00000  Uiso   1.00
C103   C     0.86042   0.24766   0.99376   0.00000  Uiso   1.00
C104   C     0.90997   0.25875   0.03687   0.00000  Uiso   1.00
C105   C     0.98186   0.29479   0.11495   0.00000  Uiso   1.00
C106   C     0.88390   0.11783   0.90916   0.00000  Uiso   1.00
C107   C     0.86719   0.13115   0.80918   0.00000  Uiso   1.00
C108   C     0.89057   0.11235   0.72786   0.00000  Uiso   1.00
C109   C     0.86948   0.12919   0.64317   0.00000  Uiso   1.00
C110   C     0.83204   0.09912   0.95724   0.00000  Uiso   1.00
C111   C     0.82587   0.05340   0.00042   0.00000  Uiso   1.00
C112   C     0.77519   0.04328   0.04039   0.00000  Uiso   1.00
C113   C     0.89831   0.16660   0.95709   0.00000  Uiso   1.00
C114   C     0.94785   0.17761   0.00016   0.00000  Uiso   1.00
C115   C     0.95296   0.22429   0.04003   0.00000  Uiso   1.00
H116   H     0.77146   0.20792   0.90092   0.00000  Uiso   1.00
H117   H     0.76992   0.20902   0.71905   0.00000  Uiso   1.00
H118   H     0.70524   0.15008   0.99158   0.00000  Uiso   1.00
H119   H     0.82720   0.27427   0.99131   0.00000  Uiso   1.00
H120   H     0.78713   0.19505   0.51879   0.00000  Uiso   1.00
H121   H     0.65074   0.07079   0.09346   0.00000  Uiso   1.00
H122   H     0.90793   0.33266   0.09291   0.00000  Uiso   1.00
H123   H     0.91731   0.09105   0.91161   0.00000  Uiso   1.00
H124   H     0.92378   0.08574   0.73031   0.00000  Uiso   1.00
H125   H     0.85909   0.02680   0.00284   0.00000  Uiso   1.00
H126   H     0.98106   0.15099   0.00258   0.00000  Uiso   1.00
H127   H     0.91201   0.09499   0.52793   0.00000  Uiso   1.00
H128   H     0.77561   0.97073   0.10261   0.00000  Uiso   1.00
H129   H     0.03280   0.23260   0.10206   0.00000  Uiso   1.00
O130   O     0.85118   0.14362   0.40391   0.00000  Uiso   1.00
O131   O     0.67224   0.98060   0.15787   0.00000  Uiso   1.00
O132   O     0.00967   0.32417   0.15714   0.00000  Uiso   1.00
N133   N     0.81564   0.17224   0.54582   0.00000  Uiso   1.00
N134   N     0.68812   0.05606   0.08309   0.00000  Uiso   1.00
N135   N     0.92856   0.30088   0.08260   0.00000  Uiso   1.00
N136   N     0.88284   0.11840   0.55074   0.00000  Uiso   1.00
N137   N     0.75531   0.00222   0.08801   0.00000  Uiso   1.00
N138   N     0.99576   0.24704   0.08752   0.00000  Uiso   1.00
C139   C     0.80488   0.68115   0.40337   0.00000  Uiso   1.00
C140   C     0.82427   0.66554   0.30603   0.00000  Uiso   1.00
C141   C     0.80314   0.68240   0.22145   0.00000  Uiso   1.00
C142   C     0.82648   0.66364   0.14002   0.00000  Uiso   1.00
C143   C     0.85005   0.64462   0.98841   0.00000  Uiso   1.00
C144   C     0.78912   0.63351   0.45410   0.00000  Uiso   1.00
C145   C     0.73844   0.62346   0.49401   0.00000  Uiso   1.00
C146   C     0.73219   0.57773   0.53724   0.00000  Uiso   1.00
C147   C     0.70120   0.50900   0.61555   0.00000  Uiso   1.00
C148   C     0.85539   0.70099   0.45394   0.00000  Uiso   1.00
C149   C     0.86042   0.74766   0.49376   0.00000  Uiso   1.00
C150   C     0.90997   0.75875   0.53687   0.00000  Uiso   1.00
C151   C     0.98186   0.79479   0.61495   0.00000  Uiso   1.00
C152   C     0.88390   0.61783   0.40916   0.00000  Uiso   1.00
C153   C     0.86719   0.63115   0.30918   0.00000  Uiso   1.00
C154   C     0.89057   0.61235   0.22786   0.00000  Uiso   1.00
C155   C     0.86948   0.62919   0.14317   0.00000  Uiso   1.00
C156   C     0.83204   0.59912   0.45724   0.00000  Uiso   1.00
C157   C     0.82587   0.55340   0.50042   0.00000  Uiso   1.00
C158   C     0.77519   0.54328   0.54039   0.00000  Uiso   1.00
C159   C     0.89831   0.66660   0.45709   0.00000  Uiso   1.00
C160   C     0.94785   0.67761   0.50016   0.00000  Uiso   1.00
C161   C     0.95296   0.72429   0.54003   0.00000  Uiso   1.00
H162   H     0.77146   0.70792   0.40092   0.00000  Uiso   1.00
H163   H     0.76992   0.70902   0.21905   0.00000  Uiso   1.00
H164   H     0.70524   0.65008   0.49158   0.00000  Uiso   1.00
H165   H     0.82720   0.77427   0.49131   0.00000  Uiso   1.00
H166   H     0.78713   0.69505   0.01879   0.00000  Uiso   1.00
H167   H     0.65074   0.57079   0.59346   0.00000  Uiso   1.00
H168   H     0.90793   0.83266   0.59291   0.00000  Uiso   1.00
H169   H     0.91731   0.59105   0.41161   0.00000  Uiso   1.00
H170   H     0.92378   0.58574   0.23031   0.00000  Uiso   1.00
H171   H     0.85909   0.52680   0.50284   0.00000  Uiso   1.00
H172   H     0.98106   0.65099   0.50258   0.00000  Uiso   1.00
H173   H     0.91201   0.59499   0.02793   0.00000  Uiso   1.00
H174   H     0.77561   0.47073   0.60261   0.00000  Uiso   1.00
H175   H     0.03280   0.73260   0.60206   0.00000  Uiso   1.00
O176   O     0.85118   0.64362   0.90391   0.00000  Uiso   1.00
O177   O     0.67224   0.48060   0.65787   0.00000  Uiso   1.00
O178   O     0.00967   0.82417   0.65714   0.00000  Uiso   1.00
N179   N     0.81564   0.67224   0.04582   0.00000  Uiso   1.00
N180   N     0.68812   0.55606   0.58309   0.00000  Uiso   1.00
N181   N     0.92856   0.80088   0.58260   0.00000  Uiso   1.00
N182   N     0.88284   0.61840   0.05074   0.00000  Uiso   1.00
N183   N     0.75531   0.50222   0.58801   0.00000  Uiso   1.00
N184   N     0.99576   0.74704   0.58752   0.00000  Uiso   1.00
C185   C     0.69512   0.81885   0.40337   0.00000  Uiso   1.00
C186   C     0.67573   0.83446   0.30603   0.00000  Uiso   1.00
C187   C     0.69686   0.81760   0.22145   0.00000  Uiso   1.00
C188   C     0.67352   0.83636   0.14002   0.00000  Uiso   1.00
C189   C     0.64995   0.85538   0.98841   0.00000  Uiso   1.00
C190   C     0.71088   0.86649   0.45410   0.00000  Uiso   1.00
C191   C     0.76156   0.87654   0.49401   0.00000  Uiso   1.00
C192   C     0.76781   0.92227   0.53724   0.00000  Uiso   1.00
C193   C     0.79880   0.99100   0.61555   0.00000  Uiso   1.00
C194   C     0.64461   0.79901   0.45394   0.00000  Uiso   1.00
C195   C     0.63958   0.75234   0.49376   0.00000  Uiso   1.00
C196   C     0.59003   0.74125   0.53687   0.00000  Uiso   1.00
C197   C     0.51814   0.70521   0.61495   0.00000  Uiso   1.00
C198   C     0.61610   0.88217   0.40916   0.00000  Uiso   1.00
C199   C     0.63281   0.86885   0.30918   0.00000  Uiso   1.00
C200   C     0.60943   0.88765   0.22786   0.00000  Uiso   1.00
C201   C     0.63052   0.87081   0.14317   0.00000  Uiso   1.00
C202   C     0.66796   0.90088   0.45724   0.00000  Uiso   1.00
C203   C     0.67413   0.94660   0.50042   0.00000  Uiso   1.00
C204   C     0.72481   0.95672   0.54039   0.00000  Uiso   1.00
C205   C     0.60169   0.83340   0.45709   0.00000  Uiso   1.00
C206   C     0.55215   0.82239   0.50016   0.00000  Uiso   1.00
C207   C     0.54704   0.77571   0.54003   0.00000  Uiso   1.00
H208   H     0.72854   0.79208   0.40092   0.00000  Uiso   1.00
H209   H     0.73008   0.79098   0.21905   0.00000  Uiso   1.00
H210   H     0.79476   0.84992   0.49158   0.00000  Uiso   1.00
H211   H     0.67280   0.72573   0.49131   0.00000  Uiso   1.00
H212   H     0.71287   0.80495   0.01879   0.00000  Uiso   1.00
H213   H     0.84926   0.92921   0.59346   0.00000  Uiso   1.00
H214   H     0.59207   0.66734   0.59291   0.00000  Uiso   1.00
H215   H     0.58269   0.90895   0.41161   0.00000  Uiso   1.00
H216   H     0.57622   0.91426   0.23031   0.00000  Uiso   1.00
H217   H     0.64091   0.97320   0.50284   0.00000  Uiso   1.00
H218   H     0.51894   0.84901   0.50258   0.00000  Uiso   1.00
H219   H     0.58799   0.90501   0.02793   0.00000  Uiso   1.00
H220   H     0.72439   0.02927   0.60261   0.00000  Uiso   1.00
H221   H     0.46720   0.76740   0.60206   0.00000  Uiso   1.00
O222   O     0.64882   0.85638   0.90391   0.00000  Uiso   1.00
O223   O     0.82776   0.01940   0.65787   0.00000  Uiso   1.00
O224   O     0.49033   0.67583   0.65714   0.00000  Uiso   1.00
N225   N     0.68436   0.82776   0.04582   0.00000  Uiso   1.00
N226   N     0.81188   0.94394   0.58309   0.00000  Uiso   1.00
N227   N     0.57144   0.69912   0.58260   0.00000  Uiso   1.00
N228   N     0.61716   0.88160   0.05074   0.00000  Uiso   1.00
N229   N     0.74469   0.99778   0.58801   0.00000  Uiso   1.00
N230   N     0.50424   0.75296   0.58752   0.00000  Uiso   1.00
C231   C     0.69512   0.31885   0.90337   0.00000  Uiso   1.00
C232   C     0.67573   0.33446   0.80603   0.00000  Uiso   1.00
C233   C     0.69686   0.31760   0.72145   0.00000  Uiso   1.00
C234   C     0.67352   0.33636   0.64002   0.00000  Uiso   1.00
C235   C     0.64995   0.35538   0.48841   0.00000  Uiso   1.00
C236   C     0.71088   0.36649   0.95410   0.00000  Uiso   1.00
C237   C     0.76156   0.37654   0.99401   0.00000  Uiso   1.00
C238   C     0.76781   0.42227   0.03724   0.00000  Uiso   1.00
C239   C     0.79880   0.49100   0.11555   0.00000  Uiso   1.00
C240   C     0.64461   0.29901   0.95394   0.00000  Uiso   1.00
C241   C     0.63958   0.25234   0.99376   0.00000  Uiso   1.00
C242   C     0.59003   0.24125   0.03687   0.00000  Uiso   1.00
C243   C     0.51814   0.20521   0.11495   0.00000  Uiso   1.00
C244   C     0.61610   0.38217   0.90916   0.00000  Uiso   1.00
C245   C     0.63281   0.36885   0.80918   0.00000  Uiso   1.00
C246   C     0.60943   0.38765   0.72786   0.00000  Uiso   1.00
C247   C     0.63052   0.37081   0.64317   0.00000  Uiso   1.00
C248   C     0.66796   0.40088   0.95724   0.00000  Uiso   1.00
C249   C     0.67413   0.44660   0.00042   0.00000  Uiso   1.00
C250   C     0.72481   0.45672   0.04039   0.00000  Uiso   1.00
C251   C     0.60169   0.33340   0.95709   0.00000  Uiso   1.00
C252   C     0.55215   0.32239   0.00016   0.00000  Uiso   1.00
C253   C     0.54704   0.27571   0.04003   0.00000  Uiso   1.00
H254   H     0.72854   0.29208   0.90092   0.00000  Uiso   1.00
H255   H     0.73008   0.29098   0.71905   0.00000  Uiso   1.00
H256   H     0.79476   0.34992   0.99158   0.00000  Uiso   1.00
H257   H     0.67280   0.22573   0.99131   0.00000  Uiso   1.00
H258   H     0.71287   0.30495   0.51879   0.00000  Uiso   1.00
H259   H     0.84926   0.42921   0.09346   0.00000  Uiso   1.00
H260   H     0.59207   0.16734   0.09291   0.00000  Uiso   1.00
H261   H     0.58269   0.40895   0.91161   0.00000  Uiso   1.00
H262   H     0.57622   0.41426   0.73031   0.00000  Uiso   1.00
H263   H     0.64091   0.47320   0.00284   0.00000  Uiso   1.00
H264   H     0.51894   0.34901   0.00258   0.00000  Uiso   1.00
H265   H     0.58799   0.40501   0.52793   0.00000  Uiso   1.00
H266   H     0.72439   0.52927   0.10261   0.00000  Uiso   1.00
H267   H     0.46720   0.26740   0.10206   0.00000  Uiso   1.00
O268   O     0.64882   0.35638   0.40391   0.00000  Uiso   1.00
O269   O     0.82776   0.51940   0.15787   0.00000  Uiso   1.00
O270   O     0.49033   0.17583   0.15714   0.00000  Uiso   1.00
N271   N     0.68436   0.32776   0.54582   0.00000  Uiso   1.00
N272   N     0.81188   0.44394   0.08309   0.00000  Uiso   1.00
N273   N     0.57144   0.19912   0.08260   0.00000  Uiso   1.00
N274   N     0.61716   0.38160   0.55074   0.00000  Uiso   1.00
N275   N     0.74469   0.49778   0.08801   0.00000  Uiso   1.00
N276   N     0.50424   0.25296   0.08752   0.00000  Uiso   1.00
C277   C     0.19512   0.81885   0.90337   0.00000  Uiso   1.00
C278   C     0.17573   0.83446   0.80603   0.00000  Uiso   1.00
C279   C     0.19686   0.81760   0.72145   0.00000  Uiso   1.00
C280   C     0.17352   0.83636   0.64002   0.00000  Uiso   1.00
C281   C     0.14995   0.85538   0.48841   0.00000  Uiso   1.00
C282   C     0.21088   0.86649   0.95410   0.00000  Uiso   1.00
C283   C     0.26156   0.87654   0.99401   0.00000  Uiso   1.00
C284   C     0.26781   0.92227   0.03724   0.00000  Uiso   1.00
C285   C     0.29880   0.99100   0.11555   0.00000  Uiso   1.00
C286   C     0.14461   0.79901   0.95394   0.00000  Uiso   1.00
C287   C     0.13958   0.75234   0.99376   0.00000  Uiso   1.00
C288   C     0.09003   0.74125   0.03687   0.00000  Uiso   1.00
C289   C     0.01814   0.70521   0.11495   0.00000  Uiso   1.00
C290   C     0.11610   0.88217   0.90916   0.00000  Uiso   1.00
C291   C     0.13281   0.86885   0.80918   0.00000  Uiso   1.00
C292   C     0.10943   0.88765   0.72786   0.00000  Uiso   1.00
C293   C     0.13052   0.87081   0.64317   0.00000  Uiso   1.00
C294   C     0.16796   0.90088   0.95724   0.00000  Uiso   1.00
C295   C     0.17413   0.94660   0.00042   0.00000  Uiso   1.00
C296   C     0.22481   0.95672   0.04039   0.00000  Uiso   1.00
C297   C     0.10169   0.83340   0.95709   0.00000  Uiso   1.00
C298   C     0.05215   0.82239   0.00016   0.00000  Uiso   1.00
C299   C     0.04704   0.77571   0.04003   0.00000  Uiso   1.00
H300   H     0.22854   0.79208   0.90092   0.00000  Uiso   1.00
H301   H     0.23008   0.79098   0.71905   0.00000  Uiso   1.00
H302   H     0.29476   0.84992   0.99158   0.00000  Uiso   1.00
H303   H     0.17280   0.72573   0.99131   0.00000  Uiso   1.00
H304   H     0.21287   0.80495   0.51879   0.00000  Uiso   1.00
H305   H     0.34926   0.92921   0.09346   0.00000  Uiso   1.00
H306   H     0.09207   0.66734   0.09291   0.00000  Uiso   1.00
H307   H     0.08269   0.90895   0.91161   0.00000  Uiso   1.00
H308   H     0.07622   0.91426   0.73031   0.00000  Uiso   1.00
H309   H     0.14091   0.97320   0.00284   0.00000  Uiso   1.00
H310   H     0.01894   0.84901   0.00258   0.00000  Uiso   1.00
H311   H     0.08799   0.90501   0.52793   0.00000  Uiso   1.00
H312   H     0.22439   0.02927   0.10261   0.00000  Uiso   1.00
H313   H     0.96720   0.76740   0.10206   0.00000  Uiso   1.00
O314   O     0.14882   0.85638   0.40391   0.00000  Uiso   1.00
O315   O     0.32776   0.01940   0.15787   0.00000  Uiso   1.00
O316   O     0.99033   0.67583   0.15714   0.00000  Uiso   1.00
N317   N     0.18436   0.82776   0.54582   0.00000  Uiso   1.00
N318   N     0.31188   0.94394   0.08309   0.00000  Uiso   1.00
N319   N     0.07144   0.69912   0.08260   0.00000  Uiso   1.00
N320   N     0.11716   0.88160   0.55074   0.00000  Uiso   1.00
N321   N     0.24469   0.99778   0.08801   0.00000  Uiso   1.00
N322   N     0.00424   0.75296   0.08752   0.00000  Uiso   1.00
C323   C     0.19512   0.31885   0.40337   0.00000  Uiso   1.00
C324   C     0.17573   0.33446   0.30603   0.00000  Uiso   1.00
C325   C     0.19686   0.31760   0.22145   0.00000  Uiso   1.00
C326   C     0.17352   0.33636   0.14002   0.00000  Uiso   1.00
C327   C     0.14995   0.35538   0.98841   0.00000  Uiso   1.00
C328   C     0.21088   0.36649   0.45410   0.00000  Uiso   1.00
C329   C     0.26156   0.37654   0.49401   0.00000  Uiso   1.00
C330   C     0.26781   0.42227   0.53724   0.00000  Uiso   1.00
C331   C     0.29880   0.49100   0.61555   0.00000  Uiso   1.00
C332   C     0.14461   0.29901   0.45394   0.00000  Uiso   1.00
C333   C     0.13958   0.25234   0.49376   0.00000  Uiso   1.00
C334   C     0.09003   0.24125   0.53687   0.00000  Uiso   1.00
C335   C     0.01814   0.20521   0.61495   0.00000  Uiso   1.00
C336   C     0.11610   0.38217   0.40916   0.00000  Uiso   1.00
C337   C     0.13281   0.36885   0.30918   0.00000  Uiso   1.00
C338   C     0.10943   0.38765   0.22786   0.00000  Uiso   1.00
C339   C     0.13052   0.37081   0.14317   0.00000  Uiso   1.00
C340   C     0.16796   0.40088   0.45724   0.00000  Uiso   1.00
C341   C     0.17413   0.44660   0.50042   0.00000  Uiso   1.00
C342   C     0.22481   0.45672   0.54039   0.00000  Uiso   1.00
C343   C     0.10169   0.33340   0.45709   0.00000  Uiso   1.00
C344   C     0.05215   0.32239   0.50016   0.00000  Uiso   1.00
C345   C     0.04704   0.27571   0.54003   0.00000  Uiso   1.00
H346   H     0.22854   0.29208   0.40092   0.00000  Uiso   1.00
H347   H     0.23008   0.29098   0.21905   0.00000  Uiso   1.00
H348   H     0.29476   0.34992   0.49158   0.00000  Uiso   1.00
H349   H     0.17280   0.22573   0.49131   0.00000  Uiso   1.00
H350   H     0.21287   0.30495   0.01879   0.00000  Uiso   1.00
H351   H     0.34926   0.42921   0.59346   0.00000  Uiso   1.00
H352   H     0.09207   0.16734   0.59291   0.00000  Uiso   1.00
H353   H     0.08269   0.40895   0.41161   0.00000  Uiso   1.00
H354   H     0.07622   0.41426   0.23031   0.00000  Uiso   1.00
H355   H     0.14091   0.47320   0.50284   0.00000  Uiso   1.00
H356   H     0.01894   0.34901   0.50258   0.00000  Uiso   1.00
H357   H     0.08799   0.40501   0.02793   0.00000  Uiso   1.00
H358   H     0.22439   0.52927   0.60261   0.00000  Uiso   1.00
H359   H     0.96720   0.26740   0.60206   0.00000  Uiso   1.00
O360   O     0.14882   0.35638   0.90391   0.00000  Uiso   1.00
O361   O     0.32776   0.51940   0.65787   0.00000  Uiso   1.00
O362   O     0.99033   0.17583   0.65714   0.00000  Uiso   1.00
N363   N     0.18436   0.32776   0.04582   0.00000  Uiso   1.00
N364   N     0.31188   0.44394   0.58309   0.00000  Uiso   1.00
N365   N     0.07144   0.19912   0.58260   0.00000  Uiso   1.00
N366   N     0.11716   0.38160   0.05074   0.00000  Uiso   1.00
N367   N     0.24469   0.49778   0.58801   0.00000  Uiso   1.00
N368   N     0.00424   0.25296   0.58752   0.00000  Uiso   1.00
C369   C     0.55488   0.06885   0.65337   0.00000  Uiso   1.00
C370   C     0.57427   0.08446   0.55603   0.00000  Uiso   1.00
C371   C     0.55314   0.06760   0.47145   0.00000  Uiso   1.00
C372   C     0.57648   0.08636   0.39002   0.00000  Uiso   1.00
C373   C     0.60005   0.10538   0.23841   0.00000  Uiso   1.00
C374   C     0.53912   0.11649   0.70410   0.00000  Uiso   1.00
C375   C     0.48844   0.12654   0.74401   0.00000  Uiso   1.00
C376   C     0.48219   0.17227   0.78724   0.00000  Uiso   1.00
C377   C     0.45120   0.24100   0.86555   0.00000  Uiso   1.00
C378   C     0.60539   0.04901   0.70394   0.00000  Uiso   1.00
C379   C     0.61042   0.00234   0.74376   0.00000  Uiso   1.00
C380   C     0.65997   0.99125   0.78687   0.00000  Uiso   1.00
C381   C     0.73186   0.95521   0.86495   0.00000  Uiso   1.00
C382   C     0.63390   0.13217   0.65916   0.00000  Uiso   1.00
C383   C     0.61719   0.11885   0.55918   0.00000  Uiso   1.00
C384   C     0.64057   0.13765   0.47786   0.00000  Uiso   1.00
C385   C     0.61948   0.12081   0.39317   0.00000  Uiso   1.00
C386   C     0.58204   0.15088   0.70724   0.00000  Uiso   1.00
C387   C     0.57587   0.19660   0.75042   0.00000  Uiso   1.00
C388   C     0.52519   0.20672   0.79039   0.00000  Uiso   1.00
C389   C     0.64831   0.08340   0.70709   0.00000  Uiso   1.00
C390   C     0.69785   0.07239   0.75016   0.00000  Uiso   1.00
C391   C     0.70296   0.02571   0.79003   0.00000  Uiso   1.00
H392   H     0.52146   0.04208   0.65092   0.00000  Uiso   1.00
H393   H     0.51992   0.04098   0.46905   0.00000  Uiso   1.00
H394   H     0.45524   0.09992   0.74158   0.00000  Uiso   1.00
H395   H     0.57720   0.97573   0.74131   0.00000  Uiso   1.00
H396   H     0.53713   0.05495   0.26879   0.00000  Uiso   1.00
H397   H     0.40074   0.17921   0.84346   0.00000  Uiso   1.00
H398   H     0.65793   0.91734   0.84291   0.00000  Uiso   1.00
H399   H     0.66731   0.15895   0.66161   0.00000  Uiso   1.00
H400   H     0.67378   0.16426   0.48031   0.00000  Uiso   1.00
H401   H     0.60909   0.22320   0.75284   0.00000  Uiso   1.00
H402   H     0.73106   0.09901   0.75258   0.00000  Uiso   1.00
H403   H     0.66201   0.15501   0.27793   0.00000  Uiso   1.00
H404   H     0.52561   0.27927   0.85261   0.00000  Uiso   1.00
H405   H     0.78280   0.01740   0.85206   0.00000  Uiso   1.00
O406   O     0.60118   0.10638   0.15391   0.00000  Uiso   1.00
O407   O     0.42224   0.26940   0.90787   0.00000  Uiso   1.00
O408   O     0.75967   0.92583   0.90714   0.00000  Uiso   1.00
N409   N     0.56564   0.07776   0.29582   0.00000  Uiso   1.00
N410   N     0.43812   0.19394   0.83309   0.00000  Uiso   1.00
N411   N     0.67856   0.94912   0.83260   0.00000  Uiso   1.00
N412   N     0.63284   0.13160   0.30074   0.00000  Uiso   1.00
N413   N     0.50531   0.24778   0.83801   0.00000  Uiso   1.00
N414   N     0.74576   0.00296   0.83752   0.00000  Uiso   1.00
C415   C     0.55488   0.56885   0.15337   0.00000  Uiso   1.00
C416   C     0.57427   0.58446   0.05603   0.00000  Uiso   1.00
C417   C     0.55314   0.56760   0.97145   0.00000  Uiso   1.00
C418   C     0.57648   0.58636   0.89002   0.00000  Uiso   1.00
C419   C     0.60005   0.60538   0.73841   0.00000  Uiso   1.00
C420   C     0.53912   0.61649   0.20410   0.00000  Uiso   1.00
C421   C     0.48844   0.62654   0.24401   0.00000  Uiso   1.00
C422   C     0.48219   0.67227   0.28724   0.00000  Uiso   1.00
C423   C     0.45120   0.74100   0.36555   0.00000  Uiso   1.00
C424   C     0.60539   0.54901   0.20394   0.00000  Uiso   1.00
C425   C     0.61042   0.50234   0.24376   0.00000  Uiso   1.00
C426   C     0.65997   0.49125   0.28687   0.00000  Uiso   1.00
C427   C     0.73186   0.45521   0.36495   0.00000  Uiso   1.00
C428   C     0.63390   0.63217   0.15916   0.00000  Uiso   1.00
C429   C     0.61719   0.61885   0.05918   0.00000  Uiso   1.00
C430   C     0.64057   0.63765   0.97786   0.00000  Uiso   1.00
C431   C     0.61948   0.62081   0.89317   0.00000  Uiso   1.00
C432   C     0.58204   0.65088   0.20724   0.00000  Uiso   1.00
C433   C     0.57587   0.69660   0.25042   0.00000  Uiso   1.00
C434   C     0.52519   0.70672   0.29039   0.00000  Uiso   1.00
C435   C     0.64831   0.58340   0.20709   0.00000  Uiso   1.00
C436   C     0.69785   0.57239   0.25016   0.00000  Uiso   1.00
C437   C     0.70296   0.52571   0.29003   0.00000  Uiso   1.00
H438   H     0.52146   0.54208   0.15092   0.00000  Uiso   1.00
H439   H     0.51992   0.54098   0.96905   0.00000  Uiso   1.00
H440   H     0.45524   0.59992   0.24158   0.00000  Uiso   1.00
H441   H     0.57720   0.47573   0.24131   0.00000  Uiso   1.00
H442   H     0.53713   0.55495   0.76879   0.00000  Uiso   1.00
H443   H     0.40074   0.67921   0.34346   0.00000  Uiso   1.00
H444   H     0.65793   0.41734   0.34291   0.00000  Uiso   1.00
H445   H     0.66731   0.65895   0.16161   0.00000  Uiso   1.00
H446   H     0.67378   0.66426   0.98031   0.00000  Uiso   1.00
H447   H     0.60909   0.72320   0.25284   0.00000  Uiso   1.00
H448   H     0.73106   0.59901   0.25258   0.00000  Uiso   1.00
H449   H     0.66201   0.65501   0.77793   0.00000  Uiso   1.00
H450   H     0.52561   0.77927   0.35261   0.00000  Uiso   1.00
H451   H     0.78280   0.51740   0.35206   0.00000  Uiso   1.00
O452   O     0.60118   0.60638   0.65391   0.00000  Uiso   1.00
O453   O     0.42224   0.76940   0.40787   0.00000  Uiso   1.00
O454   O     0.75967   0.42583   0.40714   0.00000  Uiso   1.00
N455   N     0.56564   0.57776   0.79582   0.00000  Uiso   1.00
N456   N     0.43812   0.69394   0.33309   0.00000  Uiso   1.00
N457   N     0.67856   0.44912   0.33260   0.00000  Uiso   1.00
N458   N     0.63284   0.63160   0.80074   0.00000  Uiso   1.00
N459   N     0.50531   0.74778   0.33801   0.00000  Uiso   1.00
N460   N     0.74576   0.50296   0.33752   0.00000  Uiso   1.00
C461   C     0.05488   0.06885   0.15337   0.00000  Uiso   1.00
C462   C     0.07427   0.08446   0.05603   0.00000  Uiso   1.00
C463   C     0.05314   0.06760   0.97145   0.00000  Uiso   1.00
C464   C     0.07648   0.08636   0.89002   0.00000  Uiso   1.00
C465   C     0.10005   0.10538   0.73841   0.00000  Uiso   1.00
C466   C     0.03912   0.11649   0.20410   0.00000  Uiso   1.00
C467   C     0.98844   0.12654   0.24401   0.00000  Uiso   1.00
C468   C     0.98219   0.17227   0.28724   0.00000  Uiso   1.00
C469   C     0.95120   0.24100   0.36555   0.00000  Uiso   1.00
C470   C     0.10539   0.04901   0.20394   0.00000  Uiso   1.00
C471   C     0.11042   0.00234   0.24376   0.00000  Uiso   1.00
C472   C     0.15997   0.99125   0.28687   0.00000  Uiso   1.00
C473   C     0.23186   0.95521   0.36495   0.00000  Uiso   1.00
C474   C     0.13390   0.13217   0.15916   0.00000  Uiso   1.00
C475   C     0.11719   0.11885   0.05918   0.00000  Uiso   1.00
C476   C     0.14057   0.13765   0.97786   0.00000  Uiso   1.00
C477   C     0.11948   0.12081   0.89317   0.00000  Uiso   1.00
C478   C     0.08204   0.15088   0.20724   0.00000  Uiso   1.00
C479   C     0.07587   0.19660   0.25042   0.00000  Uiso   1.00
C480   C     0.02519   0.20672   0.29039   0.00000  Uiso   1.00
C481   C     0.14831   0.08340   0.20709   0.00000  Uiso   1.00
C482   C     0.19785   0.07239   0.25016   0.00000  Uiso   1.00
C483   C     0.20296   0.02571   0.29003   0.00000  Uiso   1.00
H484   H     0.02146   0.04208   0.15092   0.00000  Uiso   1.00
H485   H     0.01992   0.04098   0.96905   0.00000  Uiso   1.00
H486   H     0.95524   0.09992   0.24158   0.00000  Uiso   1.00
H487   H     0.07720   0.97573   0.24131   0.00000  Uiso   1.00
H488   H     0.03713   0.05495   0.76879   0.00000  Uiso   1.00
H489   H     0.90074   0.17921   0.34346   0.00000  Uiso   1.00
H490   H     0.15793   0.91734   0.34291   0.00000  Uiso   1.00
H491   H     0.16731   0.15895   0.16161   0.00000  Uiso   1.00
H492   H     0.17378   0.16426   0.98031   0.00000  Uiso   1.00
H493   H     0.10909   0.22320   0.25284   0.00000  Uiso   1.00
H494   H     0.23106   0.09901   0.25258   0.00000  Uiso   1.00
H495   H     0.16201   0.15501   0.77793   0.00000  Uiso   1.00
H496   H     0.02561   0.27927   0.35261   0.00000  Uiso   1.00
H497   H     0.28280   0.01740   0.35206   0.00000  Uiso   1.00
O498   O     0.10118   0.10638   0.65391   0.00000  Uiso   1.00
O499   O     0.92224   0.26940   0.40787   0.00000  Uiso   1.00
O500   O     0.25967   0.92583   0.40714   0.00000  Uiso   1.00
N501   N     0.06564   0.07776   0.79582   0.00000  Uiso   1.00
N502   N     0.93812   0.19394   0.33309   0.00000  Uiso   1.00
N503   N     0.17856   0.94912   0.33260   0.00000  Uiso   1.00
N504   N     0.13284   0.13160   0.80074   0.00000  Uiso   1.00
N505   N     0.00531   0.24778   0.33801   0.00000  Uiso   1.00
N506   N     0.24576   0.00296   0.33752   0.00000  Uiso   1.00
C507   C     0.05488   0.56885   0.65337   0.00000  Uiso   1.00
C508   C     0.07427   0.58446   0.55603   0.00000  Uiso   1.00
C509   C     0.05314   0.56760   0.47145   0.00000  Uiso   1.00
C510   C     0.07648   0.58636   0.39002   0.00000  Uiso   1.00
C511   C     0.10005   0.60538   0.23841   0.00000  Uiso   1.00
C512   C     0.03912   0.61649   0.70410   0.00000  Uiso   1.00
C513   C     0.98844   0.62654   0.74401   0.00000  Uiso   1.00
C514   C     0.98219   0.67227   0.78724   0.00000  Uiso   1.00
C515   C     0.95120   0.74100   0.86555   0.00000  Uiso   1.00
C516   C     0.10539   0.54901   0.70394   0.00000  Uiso   1.00
C517   C     0.11042   0.50234   0.74376   0.00000  Uiso   1.00
C518   C     0.15997   0.49125   0.78687   0.00000  Uiso   1.00
C519   C     0.23186   0.45521   0.86495   0.00000  Uiso   1.00
C520   C     0.13390   0.63217   0.65916   0.00000  Uiso   1.00
C521   C     0.11719   0.61885   0.55918   0.00000  Uiso   1.00
C522   C     0.14057   0.63765   0.47786   0.00000  Uiso   1.00
C523   C     0.11948   0.62081   0.39317   0.00000  Uiso   1.00
C524   C     0.08204   0.65088   0.70724   0.00000  Uiso   1.00
C525   C     0.07587   0.69660   0.75042   0.00000  Uiso   1.00
C526   C     0.02519   0.70672   0.79039   0.00000  Uiso   1.00
C527   C     0.14831   0.58340   0.70709   0.00000  Uiso   1.00
C528   C     0.19785   0.57239   0.75016   0.00000  Uiso   1.00
C529   C     0.20296   0.52571   0.79003   0.00000  Uiso   1.00
H530   H     0.02146   0.54208   0.65092   0.00000  Uiso   1.00
H531   H     0.01992   0.54098   0.46905   0.00000  Uiso   1.00
H532   H     0.95524   0.59992   0.74158   0.00000  Uiso   1.00
H533   H     0.07720   0.47573   0.74131   0.00000  Uiso   1.00
H534   H     0.03713   0.55495   0.26879   0.00000  Uiso   1.00
H535   H     0.90074   0.67921   0.84346   0.00000  Uiso   1.00
H536   H     0.15793   0.41734   0.84291   0.00000  Uiso   1.00
H537   H     0.16731   0.65895   0.66161   0.00000  Uiso   1.00
H538   H     0.17378   0.66426   0.48031   0.00000  Uiso   1.00
H539   H     0.10909   0.72320   0.75284   0.00000  Uiso   1.00
H540   H     0.23106   0.59901   0.75258   0.00000  Uiso   1.00
H541   H     0.16201   0.65501   0.27793   0.00000  Uiso   1.00
H542   H     0.02561   0.77927   0.85261   0.00000  Uiso   1.00
H543   H     0.28280   0.51740   0.85206   0.00000  Uiso   1.00
O544   O     0.10118   0.60638   0.15391   0.00000  Uiso   1.00
O545   O     0.92224   0.76940   0.90787   0.00000  Uiso   1.00
O546   O     0.25967   0.42583   0.90714   0.00000  Uiso   1.00
N547   N     0.06564   0.57776   0.29582   0.00000  Uiso   1.00
N548   N     0.93812   0.69394   0.83309   0.00000  Uiso   1.00
N549   N     0.17856   0.44912   0.83260   0.00000  Uiso   1.00
N550   N     0.13284   0.63160   0.30074   0.00000  Uiso   1.00
N551   N     0.00531   0.74778   0.83801   0.00000  Uiso   1.00
N552   N     0.24576   0.50296   0.83752   0.00000  Uiso   1.00
C553   C     0.94512   0.43115   0.65337   0.00000  Uiso   1.00
C554   C     0.92573   0.41554   0.55603   0.00000  Uiso   1.00
C555   C     0.94686   0.43240   0.47145   0.00000  Uiso   1.00
C556   C     0.92352   0.41364   0.39002   0.00000  Uiso   1.00
C557   C     0.89995   0.39462   0.23841   0.00000  Uiso   1.00
C558   C     0.96088   0.38351   0.70410   0.00000  Uiso   1.00
C559   C     0.01156   0.37346   0.74401   0.00000  Uiso   1.00
C560   C     0.01781   0.32773   0.78724   0.00000  Uiso   1.00
C561   C     0.04880   0.25900   0.86555   0.00000  Uiso   1.00
C562   C     0.89461   0.45099   0.70394   0.00000  Uiso   1.00
C563   C     0.88958   0.49766   0.74376   0.00000  Uiso   1.00
C564   C     0.84003   0.50875   0.78687   0.00000  Uiso   1.00
C565   C     0.76814   0.54479   0.86495   0.00000  Uiso   1.00
C566   C     0.86610   0.36783   0.65916   0.00000  Uiso   1.00
C567   C     0.88281   0.38115   0.55918   0.00000  Uiso   1.00
C568   C     0.85943   0.36235   0.47786   0.00000  Uiso   1.00
C569   C     0.88052   0.37919   0.39317   0.00000  Uiso   1.00
C570   C     0.91796   0.34912   0.70724   0.00000  Uiso   1.00
C571   C     0.92413   0.30340   0.75042   0.00000  Uiso   1.00
C572   C     0.97481   0.29328   0.79039   0.00000  Uiso   1.00
C573   C     0.85169   0.41660   0.70709   0.00000  Uiso   1.00
C574   C     0.80215   0.42761   0.75016   0.00000  Uiso   1.00
C575   C     0.79704   0.47429   0.79003   0.00000  Uiso   1.00
H576   H     0.97854   0.45792   0.65092   0.00000  Uiso   1.00
H577   H     0.98008   0.45902   0.46905   0.00000  Uiso   1.00
H578   H     0.04476   0.40008   0.74158   0.00000  Uiso   1.00
H579   H     0.92280   0.52427   0.74131   0.00000  Uiso   1.00
H580   H     0.96287   0.44505   0.26879   0.00000  Uiso   1.00
H581   H     0.09926   0.32079   0.84346   0.00000  Uiso   1.00
H582   H     0.84207   0.58266   0.84291   0.00000  Uiso   1.00
H583   H     0.83269   0.34105   0.66161   0.00000  Uiso   1.00
H584   H     0.82622   0.33574   0.48031   0.00000  Uiso   1.00
H585   H     0.89091   0.27680   0.75284   0.00000  Uiso   1.00
H586   H     0.76894   0.40099   0.75258   0.00000  Uiso   1.00
H587   H     0.83799   0.34499   0.27793   0.00000  Uiso   1.00
H588   H     0.97439   0.22073   0.85261   0.00000  Uiso   1.00
H589   H     0.71720   0.48260   0.85206   0.00000  Uiso   1.00
O590   O     0.89882   0.39362   0.15391   0.00000  Uiso   1.00
O591   O     0.07776   0.23060   0.90787   0.00000  Uiso   1.00
O592   O     0.74033   0.57417   0.90714   0.00000  Uiso   1.00
N593   N     0.93436   0.42224   0.29582   0.00000  Uiso   1.00
N594   N     0.06188   0.30606   0.83309   0.00000  Uiso   1.00
N595   N     0.82144   0.55088   0.83260   0.00000  Uiso   1.00
N596   N     0.86716   0.36840   0.30074   0.00000  Uiso   1.00
N597   N     0.99469   0.25222   0.83801   0.00000  Uiso   1.00
N598   N     0.75424   0.49704   0.83752   0.00000  Uiso   1.00
C599   C     0.94512   0.93115   0.15337   0.00000  Uiso   1.00
C600   C     0.92573   0.91554   0.05603   0.00000  Uiso   1.00
C601   C     0.94686   0.93240   0.97145   0.00000  Uiso   1.00
C602   C     0.92352   0.91364   0.89002   0.00000  Uiso   1.00
C603   C     0.89995   0.89462   0.73841   0.00000  Uiso   1.00
C604   C     0.96088   0.88351   0.20410   0.00000  Uiso   1.00
C605   C     0.01156   0.87346   0.24401   0.00000  Uiso   1.00
C606   C     0.01781   0.82773   0.28724   0.00000  Uiso   1.00
C607   C     0.04880   0.75900   0.36555   0.00000  Uiso   1.00
C608   C     0.89461   0.95099   0.20394   0.00000  Uiso   1.00
C609   C     0.88958   0.99766   0.24376   0.00000  Uiso   1.00
C610   C     0.84003   0.00875   0.28687   0.00000  Uiso   1.00
C611   C     0.76814   0.04479   0.36495   0.00000  Uiso   1.00
C612   C     0.86610   0.86783   0.15916   0.00000  Uiso   1.00
C613   C     0.88281   0.88115   0.05918   0.00000  Uiso   1.00
C614   C     0.85943   0.86235   0.97786   0.00000  Uiso   1.00
C615   C     0.88052   0.87919   0.89317   0.00000  Uiso   1.00
C616   C     0.91796   0.84912   0.20724   0.00000  Uiso   1.00
C617   C     0.92413   0.80340   0.25042   0.00000  Uiso   1.00
C618   C     0.97481   0.79328   0.29039   0.00000  Uiso   1.00
C619   C     0.85169   0.91660   0.20709   0.00000  Uiso   1.00
C620   C     0.80215   0.92761   0.25016   0.00000  Uiso   1.00
C621   C     0.79704   0.97429   0.29003   0.00000  Uiso   1.00
H622   H     0.97854   0.95792   0.15092   0.00000  Uiso   1.00
H623   H     0.98008   0.95902   0.96905   0.00000  Uiso   1.00
H624   H     0.04476   0.90008   0.24158   0.00000  Uiso   1.00
H625   H     0.92280   0.02427   0.24131   0.00000  Uiso   1.00
H626   H     0.96287   0.94505   0.76879   0.00000  Uiso   1.00
H627   H     0.09926   0.82079   0.34346   0.00000  Uiso   1.00
H628   H     0.84207   0.08266   0.34291   0.00000  Uiso   1.00
H629   H     0.83269   0.84105   0.16161   0.00000  Uiso   1.00
H630   H     0.82622   0.83574   0.98031   0.00000  Uiso   1.00
H631   H     0.89091   0.77680   0.25284   0.00000  Uiso   1.00
H632   H     0.76894   0.90099   0.25258   0.00000  Uiso   1.00
H633   H     0.83799   0.84499   0.77793   0.00000  Uiso   1.00
H634   H     0.97439   0.72073   0.35261   0.00000  Uiso   1.00
H635   H     0.71720   0.98260   0.35206   0.00000  Uiso   1.00
O636   O     0.89882   0.89362   0.65391   0.00000  Uiso   1.00
O637   O     0.07776   0.73060   0.40787   0.00000  Uiso   1.00
O638   O     0.74033   0.07417   0.40714   0.00000  Uiso   1.00
N639   N     0.93436   0.92224   0.79582   0.00000  Uiso   1.00
N640   N     0.06188   0.80606   0.33309   0.00000  Uiso   1.00
N641   N     0.82144   0.05088   0.33260   0.00000  Uiso   1.00
N642   N     0.86716   0.86840   0.80074   0.00000  Uiso   1.00
N643   N     0.99469   0.75222   0.33801   0.00000  Uiso   1.00
N644   N     0.75424   0.99704   0.33752   0.00000  Uiso   1.00
C645   C     0.44512   0.43115   0.15337   0.00000  Uiso   1.00
C646   C     0.42573   0.41554   0.05603   0.00000  Uiso   1.00
C647   C     0.44686   0.43240   0.97145   0.00000  Uiso   1.00
C648   C     0.42352   0.41364   0.89002   0.00000  Uiso   1.00
C649   C     0.39995   0.39462   0.73841   0.00000  Uiso   1.00
C650   C     0.46088   0.38351   0.20410   0.00000  Uiso   1.00
C651   C     0.51156   0.37346   0.24401   0.00000  Uiso   1.00
C652   C     0.51781   0.32773   0.28724   0.00000  Uiso   1.00
C653   C     0.54880   0.25900   0.36555   0.00000  Uiso   1.00
C654   C     0.39461   0.45099   0.20394   0.00000  Uiso   1.00
C655   C     0.38958   0.49766   0.24376   0.00000  Uiso   1.00
C656   C     0.34003   0.50875   0.28687   0.00000  Uiso   1.00
C657   C     0.26814   0.54479   0.36495   0.00000  Uiso   1.00
C658   C     0.36610   0.36783   0.15916   0.00000  Uiso   1.00
C659   C     0.38281   0.38115   0.05918   0.00000  Uiso   1.00
C660   C     0.35943   0.36235   0.97786   0.00000  Uiso   1.00
C661   C     0.38052   0.37919   0.89317   0.00000  Uiso   1.00
C662   C     0.41796   0.34912   0.20724   0.00000  Uiso   1.00
C663   C     0.42413   0.30340   0.25042   0.00000  Uiso   1.00
C664   C     0.47481   0.29328   0.29039   0.00000  Uiso   1.00
C665   C     0.35169   0.41660   0.20709   0.00000  Uiso   1.00
C666   C     0.30215   0.42761   0.25016   0.00000  Uiso   1.00
C667   C     0.29704   0.47429   0.29003   0.00000  Uiso   1.00
H668   H     0.47854   0.45792   0.15092   0.00000  Uiso   1.00
H669   H     0.48008   0.45902   0.96905   0.00000  Uiso   1.00
H670   H     0.54476   0.40008   0.24158   0.00000  Uiso   1.00
H671   H     0.42280   0.52427   0.24131   0.00000  Uiso   1.00
H672   H     0.46287   0.44505   0.76879   0.00000  Uiso   1.00
H673   H     0.59926   0.32079   0.34346   0.00000  Uiso   1.00
H674   H     0.34207   0.58266   0.34291   0.00000  Uiso   1.00
H675   H     0.33269   0.34105   0.16161   0.00000  Uiso   1.00
H676   H     0.32622   0.33574   0.98031   0.00000  Uiso   1.00
H677   H     0.39091   0.27680   0.25284   0.00000  Uiso   1.00
H678   H     0.26894   0.40099   0.25258   0.00000  Uiso   1.00
H679   H     0.33799   0.34499   0.77793   0.00000  Uiso   1.00
H680   H     0.47439   0.22073   0.35261   0.00000  Uiso   1.00
H681   H     0.21720   0.48260   0.35206   0.00000  Uiso   1.00
O682   O     0.39882   0.39362   0.65391   0.00000  Uiso   1.00
O683   O     0.57776   0.23060   0.40787   0.00000  Uiso   1.00
O684   O     0.24033   0.57417   0.40714   0.00000  Uiso   1.00
N685   N     0.43436   0.42224   0.79582   0.00000  Uiso   1.00
N686   N     0.56188   0.30606   0.33309   0.00000  Uiso   1.00
N687   N     0.32144   0.55088   0.33260   0.00000  Uiso   1.00
N688   N     0.36716   0.36840   0.80074   0.00000  Uiso   1.00
N689   N     0.49469   0.25222   0.33801   0.00000  Uiso   1.00
N690   N     0.25424   0.49704   0.33752   0.00000  Uiso   1.00
C691   C     0.44512   0.93115   0.65337   0.00000  Uiso   1.00
C692   C     0.42573   0.91554   0.55603   0.00000  Uiso   1.00
C693   C     0.44686   0.93240   0.47145   0.00000  Uiso   1.00
C694   C     0.42352   0.91364   0.39002   0.00000  Uiso   1.00
C695   C     0.39995   0.89462   0.23841   0.00000  Uiso   1.00
C696   C     0.46088   0.88351   0.70410   0.00000  Uiso   1.00
C697   C     0.51156   0.87346   0.74401   0.00000  Uiso   1.00
C698   C     0.51781   0.82773   0.78724   0.00000  Uiso   1.00
C699   C     0.54880   0.75900   0.86555   0.00000  Uiso   1.00
C700   C     0.39461   0.95099   0.70394   0.00000  Uiso   1.00
C701   C     0.38958   0.99766   0.74376   0.00000  Uiso   1.00
C702   C     0.34003   0.00875   0.78687   0.00000  Uiso   1.00
C703   C     0.26814   0.04479   0.86495   0.00000  Uiso   1.00
C704   C     0.36610   0.86783   0.65916   0.00000  Uiso   1.00
C705   C     0.38281   0.88115   0.55918   0.00000  Uiso   1.00
C706   C     0.35943   0.86235   0.47786   0.00000  Uiso   1.00
C707   C     0.38052   0.87919   0.39317   0.00000  Uiso   1.00
C708   C     0.41796   0.84912   0.70724   0.00000  Uiso   1.00
C709   C     0.42413   0.80340   0.75042   0.00000  Uiso   1.00
C710   C     0.47481   0.79328   0.79039   0.00000  Uiso   1.00
C711   C     0.35169   0.91660   0.70709   0.00000  Uiso   1.00
C712   C     0.30215   0.92761   0.75016   0.00000  Uiso   1.00
C713   C     0.29704   0.97429   0.79003   0.00000  Uiso   1.00
H714   H     0.47854   0.95792   0.65092   0.00000  Uiso   1.00
H715   H     0.48008   0.95902   0.46905   0.00000  Uiso   1.00
H716   H     0.54476   0.90008   0.74158   0.00000  Uiso   1.00
H717   H     0.42280   0.02427   0.74131   0.00000  Uiso   1.00
H718   H     0.46287   0.94505   0.26879   0.00000  Uiso   1.00
H719   H     0.59926   0.82079   0.84346   0.00000  Uiso   1.00
H720   H     0.34207   0.08266   0.84291   0.00000  Uiso   1.00
H721   H     0.33269   0.84105   0.66161   0.00000  Uiso   1.00
H722   H     0.32622   0.83574   0.48031   0.00000  Uiso   1.00
H723   H     0.39091   0.77680   0.75284   0.00000  Uiso   1.00
H724   H     0.26894   0.90099   0.75258   0.00000  Uiso   1.00
H725   H     0.33799   0.84499   0.27793   0.00000  Uiso   1.00
H726   H     0.47439   0.72073   0.85261   0.00000  Uiso   1.00
H727   H     0.21720   0.98260   0.85206   0.00000  Uiso   1.00
O728   O     0.39882   0.89362   0.15391   0.00000  Uiso   1.00
O729   O     0.57776   0.73060   0.90787   0.00000  Uiso   1.00
O730   O     0.24033   0.07417   0.90714   0.00000  Uiso   1.00
N731   N     0.43436   0.92224   0.29582   0.00000  Uiso   1.00
N732   N     0.56188   0.80606   0.83309   0.00000  Uiso   1.00
N733   N     0.32144   0.05088   0.83260   0.00000  Uiso   1.00
N734   N     0.36716   0.86840   0.30074   0.00000  Uiso   1.00
N735   N     0.49469   0.75222   0.83801   0.00000  Uiso   1.00
N736   N     0.25424   0.99704   0.83752   0.00000  Uiso   1.00
