data_job_03555
_audit_creation_date              2018-12-19
_audit_creation_method            'Materials Studio'
_symmetry_space_group_name_H-M    'P1'
_symmetry_Int_Tables_number       1
_symmetry_cell_setting            triclinic
loop_
_symmetry_equiv_pos_as_xyz
  x,y,z
_cell_length_a                    24.7253
_cell_length_b                    24.7253
_cell_length_c                    14.4870
_cell_angle_alpha                 90.0000
_cell_angle_beta                  90.0000
_cell_angle_gamma                 90.0000
loop_
_atom_site_label
_atom_site_type_symbol
_atom_site_fract_x
_atom_site_fract_y
_atom_site_fract_z
_atom_site_U_iso_or_equiv
_atom_site_adp_type
_atom_site_occupancy
C1     C     0.35215   0.30987   0.24798   0.00000  Uiso   1.00
C2     C     0.30088   0.33065   0.29450   0.00000  Uiso   1.00
C3     C     0.25070   0.30551   0.29270   0.00000  Uiso   1.00
C4     C     0.20885   0.33100   0.33952   0.00000  Uiso   1.00
C5     C     0.12800   0.35584   0.40457   0.00000  Uiso   1.00
C6     C     0.37126   0.35522   0.18454   0.00000  Uiso   1.00
C7     C     0.38027   0.35074   0.09030   0.00000  Uiso   1.00
C8     C     0.39768   0.39692   0.04455   0.00000  Uiso   1.00
C9     C     0.42614   0.45990   0.93891   0.00000  Uiso   1.00
C10    C     0.39453   0.30539   0.32407   0.00000  Uiso   1.00
C11    C     0.42312   0.25901   0.34713   0.00000  Uiso   1.00
C12    C     0.46013   0.26323   0.41885   0.00000  Uiso   1.00
C13    C     0.52472   0.24884   0.52984   0.00000  Uiso   1.00
C14    C     0.36706   0.39983   0.33433   0.00000  Uiso   1.00
C15    C     0.30897   0.37951   0.34140   0.00000  Uiso   1.00
C16    C     0.26719   0.40504   0.38823   0.00000  Uiso   1.00
C17    C     0.21696   0.37994   0.38650   0.00000  Uiso   1.00
C18    C     0.37936   0.40408   0.23144   0.00000  Uiso   1.00
C19    C     0.39676   0.45027   0.18583   0.00000  Uiso   1.00
C20    C     0.40579   0.44587   0.09153   0.00000  Uiso   1.00
C21    C     0.40263   0.35425   0.37097   0.00000  Uiso   1.00
C22    C     0.43961   0.35854   0.44266   0.00000  Uiso   1.00
C23    C     0.46824   0.31218   0.46583   0.00000  Uiso   1.00
H24    H     0.34585   0.27183   0.21147   0.00000  Uiso   1.00
H25    H     0.24445   0.26770   0.25639   0.00000  Uiso   1.00
H26    H     0.37401   0.31293   0.05402   0.00000  Uiso   1.00
H27    H     0.41685   0.22121   0.31082   0.00000  Uiso   1.00
H28    H     0.13560   0.28468   0.32685   0.00000  Uiso   1.00
H29    H     0.40880   0.38003   0.90015   0.00000  Uiso   1.00
H30    H     0.49913   0.18663   0.44166   0.00000  Uiso   1.00
H31    H     0.37336   0.43787   0.37084   0.00000  Uiso   1.00
H32    H     0.27347   0.44285   0.42452   0.00000  Uiso   1.00
H33    H     0.40302   0.48807   0.22214   0.00000  Uiso   1.00
H34    H     0.44586   0.39636   0.47894   0.00000  Uiso   1.00
H35    H     0.15915   0.42684   0.46331   0.00000  Uiso   1.00
H36    H     0.43235   0.52219   0.03660   0.00000  Uiso   1.00
H37    H     0.52267   0.32879   0.57811   0.00000  Uiso   1.00
O38    O     0.08116   0.35605   0.42749   0.00000  Uiso   1.00
O39    O     0.43959   0.48115   0.86768   0.00000  Uiso   1.00
O40    O     0.55810   0.22741   0.57812   0.00000  Uiso   1.00
N41    N     0.15485   0.31745   0.35162   0.00000  Uiso   1.00
N42    N     0.41027   0.40660   0.95267   0.00000  Uiso   1.00
N43    N     0.49473   0.22579   0.45892   0.00000  Uiso   1.00
N44    N     0.16752   0.39394   0.42504   0.00000  Uiso   1.00
N45    N     0.42294   0.48309   0.02610   0.00000  Uiso   1.00
N46    N     0.50740   0.30228   0.53234   0.00000  Uiso   1.00
C47    C     0.85215   0.80987   0.74798   0.00000  Uiso   1.00
C48    C     0.80088   0.83065   0.79450   0.00000  Uiso   1.00
C49    C     0.75070   0.80551   0.79270   0.00000  Uiso   1.00
C50    C     0.70885   0.83100   0.83952   0.00000  Uiso   1.00
C51    C     0.62800   0.85584   0.90457   0.00000  Uiso   1.00
C52    C     0.87126   0.85522   0.68454   0.00000  Uiso   1.00
C53    C     0.88027   0.85074   0.59030   0.00000  Uiso   1.00
C54    C     0.89768   0.89692   0.54455   0.00000  Uiso   1.00
C55    C     0.92614   0.95990   0.43891   0.00000  Uiso   1.00
C56    C     0.89453   0.80539   0.82407   0.00000  Uiso   1.00
C57    C     0.92312   0.75901   0.84713   0.00000  Uiso   1.00
C58    C     0.96013   0.76323   0.91885   0.00000  Uiso   1.00
C59    C     0.02472   0.74884   0.02984   0.00000  Uiso   1.00
C60    C     0.86706   0.89983   0.83433   0.00000  Uiso   1.00
C61    C     0.80897   0.87951   0.84140   0.00000  Uiso   1.00
C62    C     0.76719   0.90504   0.88823   0.00000  Uiso   1.00
C63    C     0.71696   0.87994   0.88650   0.00000  Uiso   1.00
C64    C     0.87936   0.90408   0.73144   0.00000  Uiso   1.00
C65    C     0.89676   0.95027   0.68583   0.00000  Uiso   1.00
C66    C     0.90579   0.94587   0.59153   0.00000  Uiso   1.00
C67    C     0.90263   0.85425   0.87097   0.00000  Uiso   1.00
C68    C     0.93961   0.85854   0.94266   0.00000  Uiso   1.00
C69    C     0.96824   0.81218   0.96583   0.00000  Uiso   1.00
H70    H     0.84585   0.77183   0.71147   0.00000  Uiso   1.00
H71    H     0.74445   0.76770   0.75639   0.00000  Uiso   1.00
H72    H     0.87401   0.81293   0.55402   0.00000  Uiso   1.00
H73    H     0.91685   0.72121   0.81082   0.00000  Uiso   1.00
H74    H     0.63560   0.78468   0.82685   0.00000  Uiso   1.00
H75    H     0.90880   0.88003   0.40015   0.00000  Uiso   1.00
H76    H     0.99913   0.68663   0.94166   0.00000  Uiso   1.00
H77    H     0.87336   0.93787   0.87084   0.00000  Uiso   1.00
H78    H     0.77347   0.94285   0.92452   0.00000  Uiso   1.00
H79    H     0.90302   0.98807   0.72214   0.00000  Uiso   1.00
H80    H     0.94586   0.89636   0.97894   0.00000  Uiso   1.00
H81    H     0.65915   0.92684   0.96331   0.00000  Uiso   1.00
H82    H     0.93235   0.02219   0.53660   0.00000  Uiso   1.00
H83    H     0.02267   0.82879   0.07811   0.00000  Uiso   1.00
O84    O     0.58116   0.85605   0.92749   0.00000  Uiso   1.00
O85    O     0.93959   0.98115   0.36768   0.00000  Uiso   1.00
O86    O     0.05810   0.72741   0.07812   0.00000  Uiso   1.00
N87    N     0.65485   0.81745   0.85162   0.00000  Uiso   1.00
N88    N     0.91027   0.90660   0.45267   0.00000  Uiso   1.00
N89    N     0.99473   0.72579   0.95892   0.00000  Uiso   1.00
N90    N     0.66752   0.89394   0.92504   0.00000  Uiso   1.00
N91    N     0.92294   0.98309   0.52610   0.00000  Uiso   1.00
N92    N     0.00740   0.80228   0.03234   0.00000  Uiso   1.00
C93    C     0.14785   0.19013   0.74798   0.00000  Uiso   1.00
C94    C     0.19912   0.16935   0.79450   0.00000  Uiso   1.00
C95    C     0.24930   0.19449   0.79270   0.00000  Uiso   1.00
C96    C     0.29115   0.16900   0.83952   0.00000  Uiso   1.00
C97    C     0.37200   0.14416   0.90457   0.00000  Uiso   1.00
C98    C     0.12874   0.14478   0.68454   0.00000  Uiso   1.00
C99    C     0.11973   0.14926   0.59030   0.00000  Uiso   1.00
C100   C     0.10232   0.10308   0.54455   0.00000  Uiso   1.00
C101   C     0.07386   0.04010   0.43891   0.00000  Uiso   1.00
C102   C     0.10547   0.19461   0.82407   0.00000  Uiso   1.00
C103   C     0.07688   0.24099   0.84713   0.00000  Uiso   1.00
C104   C     0.03987   0.23677   0.91885   0.00000  Uiso   1.00
C105   C     0.97528   0.25116   0.02984   0.00000  Uiso   1.00
C106   C     0.13294   0.10017   0.83433   0.00000  Uiso   1.00
C107   C     0.19103   0.12049   0.84140   0.00000  Uiso   1.00
C108   C     0.23281   0.09496   0.88823   0.00000  Uiso   1.00
C109   C     0.28304   0.12006   0.88650   0.00000  Uiso   1.00
C110   C     0.12064   0.09592   0.73144   0.00000  Uiso   1.00
C111   C     0.10324   0.04973   0.68583   0.00000  Uiso   1.00
C112   C     0.09421   0.05413   0.59153   0.00000  Uiso   1.00
C113   C     0.09737   0.14575   0.87097   0.00000  Uiso   1.00
C114   C     0.06039   0.14146   0.94266   0.00000  Uiso   1.00
C115   C     0.03176   0.18782   0.96583   0.00000  Uiso   1.00
H116   H     0.15415   0.22817   0.71147   0.00000  Uiso   1.00
H117   H     0.25555   0.23230   0.75639   0.00000  Uiso   1.00
H118   H     0.12599   0.18707   0.55402   0.00000  Uiso   1.00
H119   H     0.08315   0.27879   0.81082   0.00000  Uiso   1.00
H120   H     0.36440   0.21532   0.82685   0.00000  Uiso   1.00
H121   H     0.09120   0.11997   0.40015   0.00000  Uiso   1.00
H122   H     0.00087   0.31337   0.94166   0.00000  Uiso   1.00
H123   H     0.12664   0.06213   0.87084   0.00000  Uiso   1.00
H124   H     0.22653   0.05715   0.92452   0.00000  Uiso   1.00
H125   H     0.09698   0.01193   0.72214   0.00000  Uiso   1.00
H126   H     0.05414   0.10364   0.97894   0.00000  Uiso   1.00
H127   H     0.34085   0.07316   0.96331   0.00000  Uiso   1.00
H128   H     0.06765   0.97781   0.53660   0.00000  Uiso   1.00
H129   H     0.97733   0.17121   0.07811   0.00000  Uiso   1.00
O130   O     0.41884   0.14395   0.92749   0.00000  Uiso   1.00
O131   O     0.06041   0.01885   0.36768   0.00000  Uiso   1.00
O132   O     0.94190   0.27259   0.07812   0.00000  Uiso   1.00
N133   N     0.34515   0.18255   0.85162   0.00000  Uiso   1.00
N134   N     0.08973   0.09340   0.45267   0.00000  Uiso   1.00
N135   N     0.00527   0.27421   0.95892   0.00000  Uiso   1.00
N136   N     0.33248   0.10606   0.92504   0.00000  Uiso   1.00
N137   N     0.07706   0.01691   0.52610   0.00000  Uiso   1.00
N138   N     0.99260   0.19772   0.03234   0.00000  Uiso   1.00
C139   C     0.64785   0.69013   0.24798   0.00000  Uiso   1.00
C140   C     0.69912   0.66935   0.29450   0.00000  Uiso   1.00
C141   C     0.74930   0.69449   0.29270   0.00000  Uiso   1.00
C142   C     0.79115   0.66900   0.33952   0.00000  Uiso   1.00
C143   C     0.87200   0.64416   0.40457   0.00000  Uiso   1.00
C144   C     0.62874   0.64478   0.18454   0.00000  Uiso   1.00
C145   C     0.61973   0.64926   0.09030   0.00000  Uiso   1.00
C146   C     0.60232   0.60308   0.04455   0.00000  Uiso   1.00
C147   C     0.57386   0.54010   0.93891   0.00000  Uiso   1.00
C148   C     0.60547   0.69461   0.32407   0.00000  Uiso   1.00
C149   C     0.57688   0.74099   0.34713   0.00000  Uiso   1.00
C150   C     0.53987   0.73677   0.41885   0.00000  Uiso   1.00
C151   C     0.47528   0.75116   0.52984   0.00000  Uiso   1.00
C152   C     0.63294   0.60017   0.33433   0.00000  Uiso   1.00
C153   C     0.69103   0.62049   0.34140   0.00000  Uiso   1.00
C154   C     0.73281   0.59496   0.38823   0.00000  Uiso   1.00
C155   C     0.78304   0.62006   0.38650   0.00000  Uiso   1.00
C156   C     0.62064   0.59592   0.23144   0.00000  Uiso   1.00
C157   C     0.60324   0.54973   0.18583   0.00000  Uiso   1.00
C158   C     0.59421   0.55413   0.09153   0.00000  Uiso   1.00
C159   C     0.59737   0.64575   0.37097   0.00000  Uiso   1.00
C160   C     0.56039   0.64146   0.44266   0.00000  Uiso   1.00
C161   C     0.53176   0.68782   0.46583   0.00000  Uiso   1.00
H162   H     0.65415   0.72817   0.21147   0.00000  Uiso   1.00
H163   H     0.75555   0.73230   0.25639   0.00000  Uiso   1.00
H164   H     0.62599   0.68707   0.05402   0.00000  Uiso   1.00
H165   H     0.58315   0.77879   0.31082   0.00000  Uiso   1.00
H166   H     0.86440   0.71532   0.32685   0.00000  Uiso   1.00
H167   H     0.59120   0.61997   0.90015   0.00000  Uiso   1.00
H168   H     0.50087   0.81337   0.44166   0.00000  Uiso   1.00
H169   H     0.62664   0.56213   0.37084   0.00000  Uiso   1.00
H170   H     0.72653   0.55715   0.42452   0.00000  Uiso   1.00
H171   H     0.59698   0.51193   0.22214   0.00000  Uiso   1.00
H172   H     0.55414   0.60364   0.47894   0.00000  Uiso   1.00
H173   H     0.84085   0.57316   0.46331   0.00000  Uiso   1.00
H174   H     0.56765   0.47781   0.03660   0.00000  Uiso   1.00
H175   H     0.47733   0.67121   0.57811   0.00000  Uiso   1.00
O176   O     0.91884   0.64395   0.42749   0.00000  Uiso   1.00
O177   O     0.56041   0.51885   0.86768   0.00000  Uiso   1.00
O178   O     0.44190   0.77259   0.57812   0.00000  Uiso   1.00
N179   N     0.84515   0.68255   0.35162   0.00000  Uiso   1.00
N180   N     0.58973   0.59340   0.95267   0.00000  Uiso   1.00
N181   N     0.50527   0.77421   0.45892   0.00000  Uiso   1.00
N182   N     0.83248   0.60606   0.42504   0.00000  Uiso   1.00
N183   N     0.57706   0.51691   0.02610   0.00000  Uiso   1.00
N184   N     0.49260   0.69772   0.53234   0.00000  Uiso   1.00
C185   C     0.69013   0.85215   0.49798   0.00000  Uiso   1.00
C186   C     0.66935   0.80088   0.54450   0.00000  Uiso   1.00
C187   C     0.69449   0.75070   0.54270   0.00000  Uiso   1.00
C188   C     0.66900   0.70885   0.58952   0.00000  Uiso   1.00
C189   C     0.64416   0.62800   0.65457   0.00000  Uiso   1.00
C190   C     0.64478   0.87126   0.43454   0.00000  Uiso   1.00
C191   C     0.64926   0.88027   0.34030   0.00000  Uiso   1.00
C192   C     0.60308   0.89768   0.29455   0.00000  Uiso   1.00
C193   C     0.54010   0.92614   0.18891   0.00000  Uiso   1.00
C194   C     0.69461   0.89453   0.57407   0.00000  Uiso   1.00
C195   C     0.74099   0.92312   0.59713   0.00000  Uiso   1.00
C196   C     0.73677   0.96013   0.66885   0.00000  Uiso   1.00
C197   C     0.75116   0.02472   0.77984   0.00000  Uiso   1.00
C198   C     0.60017   0.86706   0.58433   0.00000  Uiso   1.00
C199   C     0.62049   0.80897   0.59140   0.00000  Uiso   1.00
C200   C     0.59496   0.76719   0.63823   0.00000  Uiso   1.00
C201   C     0.62006   0.71696   0.63650   0.00000  Uiso   1.00
C202   C     0.59592   0.87936   0.48144   0.00000  Uiso   1.00
C203   C     0.54973   0.89676   0.43583   0.00000  Uiso   1.00
C204   C     0.55413   0.90579   0.34153   0.00000  Uiso   1.00
C205   C     0.64575   0.90263   0.62097   0.00000  Uiso   1.00
C206   C     0.64146   0.93961   0.69266   0.00000  Uiso   1.00
C207   C     0.68782   0.96824   0.71583   0.00000  Uiso   1.00
H208   H     0.72817   0.84585   0.46147   0.00000  Uiso   1.00
H209   H     0.73230   0.74445   0.50639   0.00000  Uiso   1.00
H210   H     0.68707   0.87401   0.30402   0.00000  Uiso   1.00
H211   H     0.77879   0.91685   0.56082   0.00000  Uiso   1.00
H212   H     0.71532   0.63560   0.57685   0.00000  Uiso   1.00
H213   H     0.61997   0.90880   0.15015   0.00000  Uiso   1.00
H214   H     0.81337   0.99913   0.69166   0.00000  Uiso   1.00
H215   H     0.56213   0.87336   0.62084   0.00000  Uiso   1.00
H216   H     0.55715   0.77347   0.67452   0.00000  Uiso   1.00
H217   H     0.51193   0.90302   0.47214   0.00000  Uiso   1.00
H218   H     0.60364   0.94586   0.72894   0.00000  Uiso   1.00
H219   H     0.57316   0.65915   0.71331   0.00000  Uiso   1.00
H220   H     0.47781   0.93235   0.28660   0.00000  Uiso   1.00
H221   H     0.67121   0.02267   0.82811   0.00000  Uiso   1.00
O222   O     0.64395   0.58116   0.67749   0.00000  Uiso   1.00
O223   O     0.51885   0.93959   0.11768   0.00000  Uiso   1.00
O224   O     0.77259   0.05810   0.82812   0.00000  Uiso   1.00
N225   N     0.68255   0.65485   0.60162   0.00000  Uiso   1.00
N226   N     0.59340   0.91027   0.20267   0.00000  Uiso   1.00
N227   N     0.77421   0.99473   0.70892   0.00000  Uiso   1.00
N228   N     0.60606   0.66752   0.67504   0.00000  Uiso   1.00
N229   N     0.51691   0.92294   0.27610   0.00000  Uiso   1.00
N230   N     0.69772   0.00740   0.78234   0.00000  Uiso   1.00
C231   C     0.19013   0.35215   0.99798   0.00000  Uiso   1.00
C232   C     0.16935   0.30088   0.04450   0.00000  Uiso   1.00
C233   C     0.19449   0.25070   0.04270   0.00000  Uiso   1.00
C234   C     0.16900   0.20885   0.08952   0.00000  Uiso   1.00
C235   C     0.14416   0.12800   0.15457   0.00000  Uiso   1.00
C236   C     0.14478   0.37126   0.93454   0.00000  Uiso   1.00
C237   C     0.14926   0.38027   0.84030   0.00000  Uiso   1.00
C238   C     0.10308   0.39768   0.79455   0.00000  Uiso   1.00
C239   C     0.04010   0.42614   0.68891   0.00000  Uiso   1.00
C240   C     0.19461   0.39453   0.07407   0.00000  Uiso   1.00
C241   C     0.24099   0.42312   0.09713   0.00000  Uiso   1.00
C242   C     0.23677   0.46013   0.16885   0.00000  Uiso   1.00
C243   C     0.25116   0.52472   0.27984   0.00000  Uiso   1.00
C244   C     0.10017   0.36706   0.08433   0.00000  Uiso   1.00
C245   C     0.12049   0.30897   0.09140   0.00000  Uiso   1.00
C246   C     0.09496   0.26719   0.13823   0.00000  Uiso   1.00
C247   C     0.12006   0.21696   0.13650   0.00000  Uiso   1.00
C248   C     0.09592   0.37936   0.98144   0.00000  Uiso   1.00
C249   C     0.04973   0.39676   0.93583   0.00000  Uiso   1.00
C250   C     0.05413   0.40579   0.84153   0.00000  Uiso   1.00
C251   C     0.14575   0.40263   0.12097   0.00000  Uiso   1.00
C252   C     0.14146   0.43961   0.19266   0.00000  Uiso   1.00
C253   C     0.18782   0.46824   0.21583   0.00000  Uiso   1.00
H254   H     0.22817   0.34585   0.96147   0.00000  Uiso   1.00
H255   H     0.23230   0.24445   0.00639   0.00000  Uiso   1.00
H256   H     0.18707   0.37401   0.80402   0.00000  Uiso   1.00
H257   H     0.27879   0.41685   0.06082   0.00000  Uiso   1.00
H258   H     0.21532   0.13560   0.07685   0.00000  Uiso   1.00
H259   H     0.11997   0.40880   0.65015   0.00000  Uiso   1.00
H260   H     0.31337   0.49913   0.19166   0.00000  Uiso   1.00
H261   H     0.06213   0.37336   0.12084   0.00000  Uiso   1.00
H262   H     0.05715   0.27347   0.17452   0.00000  Uiso   1.00
H263   H     0.01193   0.40302   0.97214   0.00000  Uiso   1.00
H264   H     0.10364   0.44586   0.22894   0.00000  Uiso   1.00
H265   H     0.07316   0.15915   0.21331   0.00000  Uiso   1.00
H266   H     0.97781   0.43235   0.78660   0.00000  Uiso   1.00
H267   H     0.17121   0.52267   0.32811   0.00000  Uiso   1.00
O268   O     0.14395   0.08116   0.17749   0.00000  Uiso   1.00
O269   O     0.01885   0.43959   0.61768   0.00000  Uiso   1.00
O270   O     0.27259   0.55810   0.32812   0.00000  Uiso   1.00
N271   N     0.18255   0.15485   0.10162   0.00000  Uiso   1.00
N272   N     0.09340   0.41027   0.70267   0.00000  Uiso   1.00
N273   N     0.27421   0.49473   0.20892   0.00000  Uiso   1.00
N274   N     0.10606   0.16752   0.17504   0.00000  Uiso   1.00
N275   N     0.01691   0.42294   0.77610   0.00000  Uiso   1.00
N276   N     0.19772   0.50740   0.28234   0.00000  Uiso   1.00
C277   C     0.80987   0.64785   0.99798   0.00000  Uiso   1.00
C278   C     0.83065   0.69912   0.04450   0.00000  Uiso   1.00
C279   C     0.80551   0.74930   0.04270   0.00000  Uiso   1.00
C280   C     0.83100   0.79115   0.08952   0.00000  Uiso   1.00
C281   C     0.85584   0.87200   0.15457   0.00000  Uiso   1.00
C282   C     0.85522   0.62874   0.93454   0.00000  Uiso   1.00
C283   C     0.85074   0.61973   0.84030   0.00000  Uiso   1.00
C284   C     0.89692   0.60232   0.79455   0.00000  Uiso   1.00
C285   C     0.95990   0.57386   0.68891   0.00000  Uiso   1.00
C286   C     0.80539   0.60547   0.07407   0.00000  Uiso   1.00
C287   C     0.75901   0.57688   0.09713   0.00000  Uiso   1.00
C288   C     0.76323   0.53987   0.16885   0.00000  Uiso   1.00
C289   C     0.74884   0.47528   0.27984   0.00000  Uiso   1.00
C290   C     0.89983   0.63294   0.08433   0.00000  Uiso   1.00
C291   C     0.87951   0.69103   0.09140   0.00000  Uiso   1.00
C292   C     0.90504   0.73281   0.13823   0.00000  Uiso   1.00
C293   C     0.87994   0.78304   0.13650   0.00000  Uiso   1.00
C294   C     0.90408   0.62064   0.98144   0.00000  Uiso   1.00
C295   C     0.95027   0.60324   0.93583   0.00000  Uiso   1.00
C296   C     0.94587   0.59421   0.84153   0.00000  Uiso   1.00
C297   C     0.85425   0.59737   0.12097   0.00000  Uiso   1.00
C298   C     0.85854   0.56039   0.19266   0.00000  Uiso   1.00
C299   C     0.81218   0.53176   0.21583   0.00000  Uiso   1.00
H300   H     0.77183   0.65415   0.96147   0.00000  Uiso   1.00
H301   H     0.76770   0.75555   0.00639   0.00000  Uiso   1.00
H302   H     0.81293   0.62599   0.80402   0.00000  Uiso   1.00
H303   H     0.72121   0.58315   0.06082   0.00000  Uiso   1.00
H304   H     0.78468   0.86440   0.07685   0.00000  Uiso   1.00
H305   H     0.88003   0.59120   0.65015   0.00000  Uiso   1.00
H306   H     0.68663   0.50087   0.19166   0.00000  Uiso   1.00
H307   H     0.93787   0.62664   0.12084   0.00000  Uiso   1.00
H308   H     0.94285   0.72653   0.17452   0.00000  Uiso   1.00
H309   H     0.98807   0.59698   0.97214   0.00000  Uiso   1.00
H310   H     0.89636   0.55414   0.22894   0.00000  Uiso   1.00
H311   H     0.92684   0.84085   0.21331   0.00000  Uiso   1.00
H312   H     0.02219   0.56765   0.78660   0.00000  Uiso   1.00
H313   H     0.82879   0.47733   0.32811   0.00000  Uiso   1.00
O314   O     0.85605   0.91884   0.17749   0.00000  Uiso   1.00
O315   O     0.98115   0.56041   0.61768   0.00000  Uiso   1.00
O316   O     0.72741   0.44190   0.32812   0.00000  Uiso   1.00
N317   N     0.81745   0.84515   0.10162   0.00000  Uiso   1.00
N318   N     0.90660   0.58973   0.70267   0.00000  Uiso   1.00
N319   N     0.72579   0.50527   0.20892   0.00000  Uiso   1.00
N320   N     0.89394   0.83248   0.17504   0.00000  Uiso   1.00
N321   N     0.98309   0.57706   0.77610   0.00000  Uiso   1.00
N322   N     0.80228   0.49260   0.28234   0.00000  Uiso   1.00
C323   C     0.30987   0.14785   0.49798   0.00000  Uiso   1.00
C324   C     0.33065   0.19912   0.54450   0.00000  Uiso   1.00
C325   C     0.30551   0.24930   0.54270   0.00000  Uiso   1.00
C326   C     0.33100   0.29115   0.58952   0.00000  Uiso   1.00
C327   C     0.35584   0.37200   0.65457   0.00000  Uiso   1.00
C328   C     0.35522   0.12874   0.43454   0.00000  Uiso   1.00
C329   C     0.35074   0.11973   0.34030   0.00000  Uiso   1.00
C330   C     0.39692   0.10232   0.29455   0.00000  Uiso   1.00
C331   C     0.45990   0.07386   0.18891   0.00000  Uiso   1.00
C332   C     0.30539   0.10547   0.57407   0.00000  Uiso   1.00
C333   C     0.25901   0.07688   0.59713   0.00000  Uiso   1.00
C334   C     0.26323   0.03987   0.66885   0.00000  Uiso   1.00
C335   C     0.24884   0.97528   0.77984   0.00000  Uiso   1.00
C336   C     0.39983   0.13294   0.58433   0.00000  Uiso   1.00
C337   C     0.37951   0.19103   0.59140   0.00000  Uiso   1.00
C338   C     0.40504   0.23281   0.63823   0.00000  Uiso   1.00
C339   C     0.37994   0.28304   0.63650   0.00000  Uiso   1.00
C340   C     0.40408   0.12064   0.48144   0.00000  Uiso   1.00
C341   C     0.45027   0.10324   0.43583   0.00000  Uiso   1.00
C342   C     0.44587   0.09421   0.34153   0.00000  Uiso   1.00
C343   C     0.35425   0.09737   0.62097   0.00000  Uiso   1.00
C344   C     0.35854   0.06039   0.69266   0.00000  Uiso   1.00
C345   C     0.31218   0.03176   0.71583   0.00000  Uiso   1.00
H346   H     0.27183   0.15415   0.46147   0.00000  Uiso   1.00
H347   H     0.26770   0.25555   0.50639   0.00000  Uiso   1.00
H348   H     0.31293   0.12599   0.30402   0.00000  Uiso   1.00
H349   H     0.22121   0.08315   0.56082   0.00000  Uiso   1.00
H350   H     0.28468   0.36440   0.57685   0.00000  Uiso   1.00
H351   H     0.38003   0.09120   0.15015   0.00000  Uiso   1.00
H352   H     0.18663   0.00087   0.69166   0.00000  Uiso   1.00
H353   H     0.43787   0.12664   0.62084   0.00000  Uiso   1.00
H354   H     0.44285   0.22653   0.67452   0.00000  Uiso   1.00
H355   H     0.48807   0.09698   0.47214   0.00000  Uiso   1.00
H356   H     0.39636   0.05414   0.72894   0.00000  Uiso   1.00
H357   H     0.42684   0.34085   0.71331   0.00000  Uiso   1.00
H358   H     0.52219   0.06765   0.28660   0.00000  Uiso   1.00
H359   H     0.32879   0.97733   0.82811   0.00000  Uiso   1.00
O360   O     0.35605   0.41884   0.67749   0.00000  Uiso   1.00
O361   O     0.48115   0.06041   0.11768   0.00000  Uiso   1.00
O362   O     0.22741   0.94190   0.82812   0.00000  Uiso   1.00
N363   N     0.31745   0.34515   0.60162   0.00000  Uiso   1.00
N364   N     0.40660   0.08973   0.20267   0.00000  Uiso   1.00
N365   N     0.22579   0.00527   0.70892   0.00000  Uiso   1.00
N366   N     0.39394   0.33248   0.67504   0.00000  Uiso   1.00
N367   N     0.48309   0.07706   0.27610   0.00000  Uiso   1.00
N368   N     0.30228   0.99260   0.78234   0.00000  Uiso   1.00
C369   C     0.35215   0.69013   0.74798   0.00000  Uiso   1.00
C370   C     0.30088   0.66935   0.79450   0.00000  Uiso   1.00
C371   C     0.25070   0.69449   0.79270   0.00000  Uiso   1.00
C372   C     0.20885   0.66900   0.83952   0.00000  Uiso   1.00
C373   C     0.12800   0.64416   0.90457   0.00000  Uiso   1.00
C374   C     0.37126   0.64478   0.68454   0.00000  Uiso   1.00
C375   C     0.38027   0.64926   0.59030   0.00000  Uiso   1.00
C376   C     0.39768   0.60308   0.54455   0.00000  Uiso   1.00
C377   C     0.42614   0.54010   0.43891   0.00000  Uiso   1.00
C378   C     0.39453   0.69461   0.82407   0.00000  Uiso   1.00
C379   C     0.42312   0.74099   0.84713   0.00000  Uiso   1.00
C380   C     0.46013   0.73677   0.91885   0.00000  Uiso   1.00
C381   C     0.52472   0.75116   0.02984   0.00000  Uiso   1.00
C382   C     0.36706   0.60017   0.83433   0.00000  Uiso   1.00
C383   C     0.30897   0.62049   0.84140   0.00000  Uiso   1.00
C384   C     0.26719   0.59496   0.88823   0.00000  Uiso   1.00
C385   C     0.21696   0.62006   0.88650   0.00000  Uiso   1.00
C386   C     0.37936   0.59592   0.73144   0.00000  Uiso   1.00
C387   C     0.39676   0.54973   0.68583   0.00000  Uiso   1.00
C388   C     0.40579   0.55413   0.59153   0.00000  Uiso   1.00
C389   C     0.40263   0.64575   0.87097   0.00000  Uiso   1.00
C390   C     0.43961   0.64146   0.94266   0.00000  Uiso   1.00
C391   C     0.46824   0.68782   0.96583   0.00000  Uiso   1.00
H392   H     0.34585   0.72817   0.71147   0.00000  Uiso   1.00
H393   H     0.24445   0.73230   0.75639   0.00000  Uiso   1.00
H394   H     0.37401   0.68707   0.55402   0.00000  Uiso   1.00
H395   H     0.41685   0.77879   0.81082   0.00000  Uiso   1.00
H396   H     0.13560   0.71532   0.82685   0.00000  Uiso   1.00
H397   H     0.40880   0.61997   0.40015   0.00000  Uiso   1.00
H398   H     0.49913   0.81337   0.94166   0.00000  Uiso   1.00
H399   H     0.37336   0.56213   0.87084   0.00000  Uiso   1.00
H400   H     0.27347   0.55715   0.92452   0.00000  Uiso   1.00
H401   H     0.40302   0.51193   0.72214   0.00000  Uiso   1.00
H402   H     0.44586   0.60364   0.97894   0.00000  Uiso   1.00
H403   H     0.15915   0.57316   0.96331   0.00000  Uiso   1.00
H404   H     0.43235   0.47781   0.53660   0.00000  Uiso   1.00
H405   H     0.52267   0.67121   0.07811   0.00000  Uiso   1.00
O406   O     0.08116   0.64395   0.92749   0.00000  Uiso   1.00
O407   O     0.43959   0.51885   0.36768   0.00000  Uiso   1.00
O408   O     0.55810   0.77259   0.07812   0.00000  Uiso   1.00
N409   N     0.15485   0.68255   0.85162   0.00000  Uiso   1.00
N410   N     0.41027   0.59340   0.45267   0.00000  Uiso   1.00
N411   N     0.49473   0.77421   0.95892   0.00000  Uiso   1.00
N412   N     0.16752   0.60606   0.92504   0.00000  Uiso   1.00
N413   N     0.42294   0.51691   0.52610   0.00000  Uiso   1.00
N414   N     0.50740   0.69772   0.03234   0.00000  Uiso   1.00
C415   C     0.85215   0.19013   0.24798   0.00000  Uiso   1.00
C416   C     0.80088   0.16935   0.29450   0.00000  Uiso   1.00
C417   C     0.75070   0.19449   0.29270   0.00000  Uiso   1.00
C418   C     0.70885   0.16900   0.33952   0.00000  Uiso   1.00
C419   C     0.62800   0.14416   0.40457   0.00000  Uiso   1.00
C420   C     0.87126   0.14478   0.18454   0.00000  Uiso   1.00
C421   C     0.88027   0.14926   0.09030   0.00000  Uiso   1.00
C422   C     0.89768   0.10308   0.04455   0.00000  Uiso   1.00
C423   C     0.92614   0.04010   0.93891   0.00000  Uiso   1.00
C424   C     0.89453   0.19461   0.32407   0.00000  Uiso   1.00
C425   C     0.92312   0.24099   0.34713   0.00000  Uiso   1.00
C426   C     0.96013   0.23677   0.41885   0.00000  Uiso   1.00
C427   C     0.02472   0.25116   0.52984   0.00000  Uiso   1.00
C428   C     0.86706   0.10017   0.33433   0.00000  Uiso   1.00
C429   C     0.80897   0.12049   0.34140   0.00000  Uiso   1.00
C430   C     0.76719   0.09496   0.38823   0.00000  Uiso   1.00
C431   C     0.71696   0.12006   0.38650   0.00000  Uiso   1.00
C432   C     0.87936   0.09592   0.23144   0.00000  Uiso   1.00
C433   C     0.89676   0.04973   0.18583   0.00000  Uiso   1.00
C434   C     0.90579   0.05413   0.09153   0.00000  Uiso   1.00
C435   C     0.90263   0.14575   0.37097   0.00000  Uiso   1.00
C436   C     0.93961   0.14146   0.44266   0.00000  Uiso   1.00
C437   C     0.96824   0.18782   0.46583   0.00000  Uiso   1.00
H438   H     0.84585   0.22817   0.21147   0.00000  Uiso   1.00
H439   H     0.74445   0.23230   0.25639   0.00000  Uiso   1.00
H440   H     0.87401   0.18707   0.05402   0.00000  Uiso   1.00
H441   H     0.91685   0.27879   0.31082   0.00000  Uiso   1.00
H442   H     0.63560   0.21532   0.32685   0.00000  Uiso   1.00
H443   H     0.90880   0.11997   0.90015   0.00000  Uiso   1.00
H444   H     0.99913   0.31337   0.44166   0.00000  Uiso   1.00
H445   H     0.87336   0.06213   0.37084   0.00000  Uiso   1.00
H446   H     0.77347   0.05715   0.42452   0.00000  Uiso   1.00
H447   H     0.90302   0.01193   0.22214   0.00000  Uiso   1.00
H448   H     0.94586   0.10364   0.47894   0.00000  Uiso   1.00
H449   H     0.65915   0.07316   0.46331   0.00000  Uiso   1.00
H450   H     0.93235   0.97781   0.03660   0.00000  Uiso   1.00
H451   H     0.02267   0.17121   0.57811   0.00000  Uiso   1.00
O452   O     0.58116   0.14395   0.42749   0.00000  Uiso   1.00
O453   O     0.93959   0.01885   0.86768   0.00000  Uiso   1.00
O454   O     0.05810   0.27259   0.57812   0.00000  Uiso   1.00
N455   N     0.65485   0.18255   0.35162   0.00000  Uiso   1.00
N456   N     0.91027   0.09340   0.95267   0.00000  Uiso   1.00
N457   N     0.99473   0.27421   0.45892   0.00000  Uiso   1.00
N458   N     0.66752   0.10606   0.42504   0.00000  Uiso   1.00
N459   N     0.92294   0.01691   0.02610   0.00000  Uiso   1.00
N460   N     0.00740   0.19772   0.53234   0.00000  Uiso   1.00
C461   C     0.14785   0.80987   0.24798   0.00000  Uiso   1.00
C462   C     0.19912   0.83065   0.29450   0.00000  Uiso   1.00
C463   C     0.24930   0.80551   0.29270   0.00000  Uiso   1.00
C464   C     0.29115   0.83100   0.33952   0.00000  Uiso   1.00
C465   C     0.37200   0.85584   0.40457   0.00000  Uiso   1.00
C466   C     0.12874   0.85522   0.18454   0.00000  Uiso   1.00
C467   C     0.11973   0.85074   0.09030   0.00000  Uiso   1.00
C468   C     0.10232   0.89692   0.04455   0.00000  Uiso   1.00
C469   C     0.07386   0.95990   0.93891   0.00000  Uiso   1.00
C470   C     0.10547   0.80539   0.32407   0.00000  Uiso   1.00
C471   C     0.07688   0.75901   0.34713   0.00000  Uiso   1.00
C472   C     0.03987   0.76323   0.41885   0.00000  Uiso   1.00
C473   C     0.97528   0.74884   0.52984   0.00000  Uiso   1.00
C474   C     0.13294   0.89983   0.33433   0.00000  Uiso   1.00
C475   C     0.19103   0.87951   0.34140   0.00000  Uiso   1.00
C476   C     0.23281   0.90504   0.38823   0.00000  Uiso   1.00
C477   C     0.28304   0.87994   0.38650   0.00000  Uiso   1.00
C478   C     0.12064   0.90408   0.23144   0.00000  Uiso   1.00
C479   C     0.10324   0.95027   0.18583   0.00000  Uiso   1.00
C480   C     0.09421   0.94587   0.09153   0.00000  Uiso   1.00
C481   C     0.09737   0.85425   0.37097   0.00000  Uiso   1.00
C482   C     0.06039   0.85854   0.44266   0.00000  Uiso   1.00
C483   C     0.03176   0.81218   0.46583   0.00000  Uiso   1.00
H484   H     0.15415   0.77183   0.21147   0.00000  Uiso   1.00
H485   H     0.25555   0.76770   0.25639   0.00000  Uiso   1.00
H486   H     0.12599   0.81293   0.05402   0.00000  Uiso   1.00
H487   H     0.08315   0.72121   0.31082   0.00000  Uiso   1.00
H488   H     0.36440   0.78468   0.32685   0.00000  Uiso   1.00
H489   H     0.09120   0.88003   0.90015   0.00000  Uiso   1.00
H490   H     0.00087   0.68663   0.44166   0.00000  Uiso   1.00
H491   H     0.12664   0.93787   0.37084   0.00000  Uiso   1.00
H492   H     0.22653   0.94285   0.42452   0.00000  Uiso   1.00
H493   H     0.09698   0.98807   0.22214   0.00000  Uiso   1.00
H494   H     0.05414   0.89636   0.47894   0.00000  Uiso   1.00
H495   H     0.34085   0.92684   0.46331   0.00000  Uiso   1.00
H496   H     0.06765   0.02219   0.03660   0.00000  Uiso   1.00
H497   H     0.97733   0.82879   0.57811   0.00000  Uiso   1.00
O498   O     0.41884   0.85605   0.42749   0.00000  Uiso   1.00
O499   O     0.06041   0.98115   0.86768   0.00000  Uiso   1.00
O500   O     0.94190   0.72741   0.57812   0.00000  Uiso   1.00
N501   N     0.34515   0.81745   0.35162   0.00000  Uiso   1.00
N502   N     0.08973   0.90660   0.95267   0.00000  Uiso   1.00
N503   N     0.00527   0.72579   0.45892   0.00000  Uiso   1.00
N504   N     0.33248   0.89394   0.42504   0.00000  Uiso   1.00
N505   N     0.07706   0.98309   0.02610   0.00000  Uiso   1.00
N506   N     0.99260   0.80228   0.53234   0.00000  Uiso   1.00
C507   C     0.64785   0.30987   0.74798   0.00000  Uiso   1.00
C508   C     0.69912   0.33065   0.79450   0.00000  Uiso   1.00
C509   C     0.74930   0.30551   0.79270   0.00000  Uiso   1.00
C510   C     0.79115   0.33100   0.83952   0.00000  Uiso   1.00
C511   C     0.87200   0.35584   0.90457   0.00000  Uiso   1.00
C512   C     0.62874   0.35522   0.68454   0.00000  Uiso   1.00
C513   C     0.61973   0.35074   0.59030   0.00000  Uiso   1.00
C514   C     0.60232   0.39692   0.54455   0.00000  Uiso   1.00
C515   C     0.57386   0.45990   0.43891   0.00000  Uiso   1.00
C516   C     0.60547   0.30539   0.82407   0.00000  Uiso   1.00
C517   C     0.57688   0.25901   0.84713   0.00000  Uiso   1.00
C518   C     0.53987   0.26323   0.91885   0.00000  Uiso   1.00
C519   C     0.47528   0.24884   0.02984   0.00000  Uiso   1.00
C520   C     0.63294   0.39983   0.83433   0.00000  Uiso   1.00
C521   C     0.69103   0.37951   0.84140   0.00000  Uiso   1.00
C522   C     0.73281   0.40504   0.88823   0.00000  Uiso   1.00
C523   C     0.78304   0.37994   0.88650   0.00000  Uiso   1.00
C524   C     0.62064   0.40408   0.73144   0.00000  Uiso   1.00
C525   C     0.60324   0.45027   0.68583   0.00000  Uiso   1.00
C526   C     0.59421   0.44587   0.59153   0.00000  Uiso   1.00
C527   C     0.59737   0.35425   0.87097   0.00000  Uiso   1.00
C528   C     0.56039   0.35854   0.94266   0.00000  Uiso   1.00
C529   C     0.53176   0.31218   0.96583   0.00000  Uiso   1.00
H530   H     0.65415   0.27183   0.71147   0.00000  Uiso   1.00
H531   H     0.75555   0.26770   0.75639   0.00000  Uiso   1.00
H532   H     0.62599   0.31293   0.55402   0.00000  Uiso   1.00
H533   H     0.58315   0.22121   0.81082   0.00000  Uiso   1.00
H534   H     0.86440   0.28468   0.82685   0.00000  Uiso   1.00
H535   H     0.59120   0.38003   0.40015   0.00000  Uiso   1.00
H536   H     0.50087   0.18663   0.94166   0.00000  Uiso   1.00
H537   H     0.62664   0.43787   0.87084   0.00000  Uiso   1.00
H538   H     0.72653   0.44285   0.92452   0.00000  Uiso   1.00
H539   H     0.59698   0.48807   0.72214   0.00000  Uiso   1.00
H540   H     0.55414   0.39636   0.97894   0.00000  Uiso   1.00
H541   H     0.84085   0.42684   0.96331   0.00000  Uiso   1.00
H542   H     0.56765   0.52219   0.53660   0.00000  Uiso   1.00
H543   H     0.47733   0.32879   0.07811   0.00000  Uiso   1.00
O544   O     0.91884   0.35605   0.92749   0.00000  Uiso   1.00
O545   O     0.56041   0.48115   0.36768   0.00000  Uiso   1.00
O546   O     0.44190   0.22741   0.07812   0.00000  Uiso   1.00
N547   N     0.84515   0.31745   0.85162   0.00000  Uiso   1.00
N548   N     0.58973   0.40660   0.45267   0.00000  Uiso   1.00
N549   N     0.50527   0.22579   0.95892   0.00000  Uiso   1.00
N550   N     0.83248   0.39394   0.92504   0.00000  Uiso   1.00
N551   N     0.57706   0.48309   0.52610   0.00000  Uiso   1.00
N552   N     0.49260   0.30228   0.03234   0.00000  Uiso   1.00
C553   C     0.69013   0.14785   0.99798   0.00000  Uiso   1.00
C554   C     0.66935   0.19912   0.04450   0.00000  Uiso   1.00
C555   C     0.69449   0.24930   0.04270   0.00000  Uiso   1.00
C556   C     0.66900   0.29115   0.08952   0.00000  Uiso   1.00
C557   C     0.64416   0.37200   0.15457   0.00000  Uiso   1.00
C558   C     0.64478   0.12874   0.93454   0.00000  Uiso   1.00
C559   C     0.64926   0.11973   0.84030   0.00000  Uiso   1.00
C560   C     0.60308   0.10232   0.79455   0.00000  Uiso   1.00
C561   C     0.54010   0.07386   0.68891   0.00000  Uiso   1.00
C562   C     0.69461   0.10547   0.07407   0.00000  Uiso   1.00
C563   C     0.74099   0.07688   0.09713   0.00000  Uiso   1.00
C564   C     0.73677   0.03987   0.16885   0.00000  Uiso   1.00
C565   C     0.75116   0.97528   0.27984   0.00000  Uiso   1.00
C566   C     0.60017   0.13294   0.08433   0.00000  Uiso   1.00
C567   C     0.62049   0.19103   0.09140   0.00000  Uiso   1.00
C568   C     0.59496   0.23281   0.13823   0.00000  Uiso   1.00
C569   C     0.62006   0.28304   0.13650   0.00000  Uiso   1.00
C570   C     0.59592   0.12064   0.98144   0.00000  Uiso   1.00
C571   C     0.54973   0.10324   0.93583   0.00000  Uiso   1.00
C572   C     0.55413   0.09421   0.84153   0.00000  Uiso   1.00
C573   C     0.64575   0.09737   0.12097   0.00000  Uiso   1.00
C574   C     0.64146   0.06039   0.19266   0.00000  Uiso   1.00
C575   C     0.68782   0.03176   0.21583   0.00000  Uiso   1.00
H576   H     0.72817   0.15415   0.96147   0.00000  Uiso   1.00
H577   H     0.73230   0.25555   0.00639   0.00000  Uiso   1.00
H578   H     0.68707   0.12599   0.80402   0.00000  Uiso   1.00
H579   H     0.77879   0.08315   0.06082   0.00000  Uiso   1.00
H580   H     0.71532   0.36440   0.07685   0.00000  Uiso   1.00
H581   H     0.61997   0.09120   0.65015   0.00000  Uiso   1.00
H582   H     0.81337   0.00087   0.19166   0.00000  Uiso   1.00
H583   H     0.56213   0.12664   0.12084   0.00000  Uiso   1.00
H584   H     0.55715   0.22653   0.17452   0.00000  Uiso   1.00
H585   H     0.51193   0.09698   0.97214   0.00000  Uiso   1.00
H586   H     0.60364   0.05414   0.22894   0.00000  Uiso   1.00
H587   H     0.57316   0.34085   0.21331   0.00000  Uiso   1.00
H588   H     0.47781   0.06765   0.78660   0.00000  Uiso   1.00
H589   H     0.67121   0.97733   0.32811   0.00000  Uiso   1.00
O590   O     0.64395   0.41884   0.17749   0.00000  Uiso   1.00
O591   O     0.51885   0.06041   0.61768   0.00000  Uiso   1.00
O592   O     0.77259   0.94190   0.32812   0.00000  Uiso   1.00
N593   N     0.68255   0.34515   0.10162   0.00000  Uiso   1.00
N594   N     0.59340   0.08973   0.70267   0.00000  Uiso   1.00
N595   N     0.77421   0.00527   0.20892   0.00000  Uiso   1.00
N596   N     0.60606   0.33248   0.17504   0.00000  Uiso   1.00
N597   N     0.51691   0.07706   0.77610   0.00000  Uiso   1.00
N598   N     0.69772   0.99260   0.28234   0.00000  Uiso   1.00
C599   C     0.19013   0.64785   0.49798   0.00000  Uiso   1.00
C600   C     0.16935   0.69912   0.54450   0.00000  Uiso   1.00
C601   C     0.19449   0.74930   0.54270   0.00000  Uiso   1.00
C602   C     0.16900   0.79115   0.58952   0.00000  Uiso   1.00
C603   C     0.14416   0.87200   0.65457   0.00000  Uiso   1.00
C604   C     0.14478   0.62874   0.43454   0.00000  Uiso   1.00
C605   C     0.14926   0.61973   0.34030   0.00000  Uiso   1.00
C606   C     0.10308   0.60232   0.29455   0.00000  Uiso   1.00
C607   C     0.04010   0.57386   0.18891   0.00000  Uiso   1.00
C608   C     0.19461   0.60547   0.57407   0.00000  Uiso   1.00
C609   C     0.24099   0.57688   0.59713   0.00000  Uiso   1.00
C610   C     0.23677   0.53987   0.66885   0.00000  Uiso   1.00
C611   C     0.25116   0.47528   0.77984   0.00000  Uiso   1.00
C612   C     0.10017   0.63294   0.58433   0.00000  Uiso   1.00
C613   C     0.12049   0.69103   0.59140   0.00000  Uiso   1.00
C614   C     0.09496   0.73281   0.63823   0.00000  Uiso   1.00
C615   C     0.12006   0.78304   0.63650   0.00000  Uiso   1.00
C616   C     0.09592   0.62064   0.48144   0.00000  Uiso   1.00
C617   C     0.04973   0.60324   0.43583   0.00000  Uiso   1.00
C618   C     0.05413   0.59421   0.34153   0.00000  Uiso   1.00
C619   C     0.14575   0.59737   0.62097   0.00000  Uiso   1.00
C620   C     0.14146   0.56039   0.69266   0.00000  Uiso   1.00
C621   C     0.18782   0.53176   0.71583   0.00000  Uiso   1.00
H622   H     0.22817   0.65415   0.46147   0.00000  Uiso   1.00
H623   H     0.23230   0.75555   0.50639   0.00000  Uiso   1.00
H624   H     0.18707   0.62599   0.30402   0.00000  Uiso   1.00
H625   H     0.27879   0.58315   0.56082   0.00000  Uiso   1.00
H626   H     0.21532   0.86440   0.57685   0.00000  Uiso   1.00
H627   H     0.11997   0.59120   0.15015   0.00000  Uiso   1.00
H628   H     0.31337   0.50087   0.69166   0.00000  Uiso   1.00
H629   H     0.06213   0.62664   0.62084   0.00000  Uiso   1.00
H630   H     0.05715   0.72653   0.67452   0.00000  Uiso   1.00
H631   H     0.01193   0.59698   0.47214   0.00000  Uiso   1.00
H632   H     0.10364   0.55414   0.72894   0.00000  Uiso   1.00
H633   H     0.07316   0.84085   0.71331   0.00000  Uiso   1.00
H634   H     0.97781   0.56765   0.28660   0.00000  Uiso   1.00
H635   H     0.17121   0.47733   0.82811   0.00000  Uiso   1.00
O636   O     0.14395   0.91884   0.67749   0.00000  Uiso   1.00
O637   O     0.01885   0.56041   0.11768   0.00000  Uiso   1.00
O638   O     0.27259   0.44190   0.82812   0.00000  Uiso   1.00
N639   N     0.18255   0.84515   0.60162   0.00000  Uiso   1.00
N640   N     0.09340   0.58973   0.20267   0.00000  Uiso   1.00
N641   N     0.27421   0.50527   0.70892   0.00000  Uiso   1.00
N642   N     0.10606   0.83248   0.67504   0.00000  Uiso   1.00
N643   N     0.01691   0.57706   0.27610   0.00000  Uiso   1.00
N644   N     0.19772   0.49260   0.78234   0.00000  Uiso   1.00
C645   C     0.80987   0.35215   0.49798   0.00000  Uiso   1.00
C646   C     0.83065   0.30088   0.54450   0.00000  Uiso   1.00
C647   C     0.80551   0.25070   0.54270   0.00000  Uiso   1.00
C648   C     0.83100   0.20885   0.58952   0.00000  Uiso   1.00
C649   C     0.85584   0.12800   0.65457   0.00000  Uiso   1.00
C650   C     0.85522   0.37126   0.43454   0.00000  Uiso   1.00
C651   C     0.85074   0.38027   0.34030   0.00000  Uiso   1.00
C652   C     0.89692   0.39768   0.29455   0.00000  Uiso   1.00
C653   C     0.95990   0.42614   0.18891   0.00000  Uiso   1.00
C654   C     0.80539   0.39453   0.57407   0.00000  Uiso   1.00
C655   C     0.75901   0.42312   0.59713   0.00000  Uiso   1.00
C656   C     0.76323   0.46013   0.66885   0.00000  Uiso   1.00
C657   C     0.74884   0.52472   0.77984   0.00000  Uiso   1.00
C658   C     0.89983   0.36706   0.58433   0.00000  Uiso   1.00
C659   C     0.87951   0.30897   0.59140   0.00000  Uiso   1.00
C660   C     0.90504   0.26719   0.63823   0.00000  Uiso   1.00
C661   C     0.87994   0.21696   0.63650   0.00000  Uiso   1.00
C662   C     0.90408   0.37936   0.48144   0.00000  Uiso   1.00
C663   C     0.95027   0.39676   0.43583   0.00000  Uiso   1.00
C664   C     0.94587   0.40579   0.34153   0.00000  Uiso   1.00
C665   C     0.85425   0.40263   0.62097   0.00000  Uiso   1.00
C666   C     0.85854   0.43961   0.69266   0.00000  Uiso   1.00
C667   C     0.81218   0.46824   0.71583   0.00000  Uiso   1.00
H668   H     0.77183   0.34585   0.46147   0.00000  Uiso   1.00
H669   H     0.76770   0.24445   0.50639   0.00000  Uiso   1.00
H670   H     0.81293   0.37401   0.30402   0.00000  Uiso   1.00
H671   H     0.72121   0.41685   0.56082   0.00000  Uiso   1.00
H672   H     0.78468   0.13560   0.57685   0.00000  Uiso   1.00
H673   H     0.88003   0.40880   0.15015   0.00000  Uiso   1.00
H674   H     0.68663   0.49913   0.69166   0.00000  Uiso   1.00
H675   H     0.93787   0.37336   0.62084   0.00000  Uiso   1.00
H676   H     0.94285   0.27347   0.67452   0.00000  Uiso   1.00
H677   H     0.98807   0.40302   0.47214   0.00000  Uiso   1.00
H678   H     0.89636   0.44586   0.72894   0.00000  Uiso   1.00
H679   H     0.92684   0.15915   0.71331   0.00000  Uiso   1.00
H680   H     0.02219   0.43235   0.28660   0.00000  Uiso   1.00
H681   H     0.82879   0.52267   0.82811   0.00000  Uiso   1.00
O682   O     0.85605   0.08116   0.67749   0.00000  Uiso   1.00
O683   O     0.98115   0.43959   0.11768   0.00000  Uiso   1.00
O684   O     0.72741   0.55810   0.82812   0.00000  Uiso   1.00
N685   N     0.81745   0.15485   0.60162   0.00000  Uiso   1.00
N686   N     0.90660   0.41027   0.20267   0.00000  Uiso   1.00
N687   N     0.72579   0.49473   0.70892   0.00000  Uiso   1.00
N688   N     0.89394   0.16752   0.67504   0.00000  Uiso   1.00
N689   N     0.98309   0.42294   0.27610   0.00000  Uiso   1.00
N690   N     0.80228   0.50740   0.78234   0.00000  Uiso   1.00
C691   C     0.30987   0.85215   0.99798   0.00000  Uiso   1.00
C692   C     0.33065   0.80088   0.04450   0.00000  Uiso   1.00
C693   C     0.30551   0.75070   0.04270   0.00000  Uiso   1.00
C694   C     0.33100   0.70885   0.08952   0.00000  Uiso   1.00
C695   C     0.35584   0.62800   0.15457   0.00000  Uiso   1.00
C696   C     0.35522   0.87126   0.93454   0.00000  Uiso   1.00
C697   C     0.35074   0.88027   0.84030   0.00000  Uiso   1.00
C698   C     0.39692   0.89768   0.79455   0.00000  Uiso   1.00
C699   C     0.45990   0.92614   0.68891   0.00000  Uiso   1.00
C700   C     0.30539   0.89453   0.07407   0.00000  Uiso   1.00
C701   C     0.25901   0.92312   0.09713   0.00000  Uiso   1.00
C702   C     0.26323   0.96013   0.16885   0.00000  Uiso   1.00
C703   C     0.24884   0.02472   0.27984   0.00000  Uiso   1.00
C704   C     0.39983   0.86706   0.08433   0.00000  Uiso   1.00
C705   C     0.37951   0.80897   0.09140   0.00000  Uiso   1.00
C706   C     0.40504   0.76719   0.13823   0.00000  Uiso   1.00
C707   C     0.37994   0.71696   0.13650   0.00000  Uiso   1.00
C708   C     0.40408   0.87936   0.98144   0.00000  Uiso   1.00
C709   C     0.45027   0.89676   0.93583   0.00000  Uiso   1.00
C710   C     0.44587   0.90579   0.84153   0.00000  Uiso   1.00
C711   C     0.35425   0.90263   0.12097   0.00000  Uiso   1.00
C712   C     0.35854   0.93961   0.19266   0.00000  Uiso   1.00
C713   C     0.31218   0.96824   0.21583   0.00000  Uiso   1.00
H714   H     0.27183   0.84585   0.96147   0.00000  Uiso   1.00
H715   H     0.26770   0.74445   0.00639   0.00000  Uiso   1.00
H716   H     0.31293   0.87401   0.80402   0.00000  Uiso   1.00
H717   H     0.22121   0.91685   0.06082   0.00000  Uiso   1.00
H718   H     0.28468   0.63560   0.07685   0.00000  Uiso   1.00
H719   H     0.38003   0.90880   0.65015   0.00000  Uiso   1.00
H720   H     0.18663   0.99913   0.19166   0.00000  Uiso   1.00
H721   H     0.43787   0.87336   0.12084   0.00000  Uiso   1.00
H722   H     0.44285   0.77347   0.17452   0.00000  Uiso   1.00
H723   H     0.48807   0.90302   0.97214   0.00000  Uiso   1.00
H724   H     0.39636   0.94586   0.22894   0.00000  Uiso   1.00
H725   H     0.42684   0.65915   0.21331   0.00000  Uiso   1.00
H726   H     0.52219   0.93235   0.78660   0.00000  Uiso   1.00
H727   H     0.32879   0.02267   0.32811   0.00000  Uiso   1.00
O728   O     0.35605   0.58116   0.17749   0.00000  Uiso   1.00
O729   O     0.48115   0.93959   0.61768   0.00000  Uiso   1.00
O730   O     0.22741   0.05810   0.32812   0.00000  Uiso   1.00
N731   N     0.31745   0.65485   0.10162   0.00000  Uiso   1.00
N732   N     0.40660   0.91027   0.70267   0.00000  Uiso   1.00
N733   N     0.22579   0.99473   0.20892   0.00000  Uiso   1.00
N734   N     0.39394   0.66752   0.17504   0.00000  Uiso   1.00
N735   N     0.48309   0.92294   0.77610   0.00000  Uiso   1.00
N736   N     0.30228   0.00740   0.28234   0.00000  Uiso   1.00
