data_job_01516
_audit_creation_date              2018-12-19
_audit_creation_method            'Materials Studio'
_symmetry_space_group_name_H-M    'P1'
_symmetry_Int_Tables_number       1
_symmetry_cell_setting            triclinic
loop_
_symmetry_equiv_pos_as_xyz
  x,y,z
_cell_length_a                    22.3744
_cell_length_b                    36.9137
_cell_length_c                    10.6850
_cell_angle_alpha                 90.0000
_cell_angle_beta                  90.0000
_cell_angle_gamma                 90.0000
loop_
_atom_site_label
_atom_site_type_symbol
_atom_site_fract_x
_atom_site_fract_y
_atom_site_fract_z
_atom_site_U_iso_or_equiv
_atom_site_adp_type
_atom_site_occupancy
C1     C     0.61296   0.47423   0.35477   0.00000  Uiso   1.00
C2     C     0.59289   0.46985   0.49032   0.00000  Uiso   1.00
C3     C     0.54188   0.45184   0.53013   0.00000  Uiso   1.00
C4     C     0.53138   0.45085   0.65815   0.00000  Uiso   1.00
C5     C     0.49425   0.44156   0.85569   0.00000  Uiso   1.00
C6     C     0.61933   0.51488   0.33306   0.00000  Uiso   1.00
C7     C     0.59054   0.53471   0.24064   0.00000  Uiso   1.00
C8     C     0.60231   0.57162   0.23627   0.00000  Uiso   1.00
C9     C     0.60625   0.63224   0.18960   0.00000  Uiso   1.00
C10    C     0.67604   0.45871   0.34821   0.00000  Uiso   1.00
C11    C     0.69495   0.43133   0.26850   0.00000  Uiso   1.00
C12    C     0.75447   0.42095   0.27687   0.00000  Uiso   1.00
C13    C     0.84647   0.39436   0.25373   0.00000  Uiso   1.00
C14    C     0.68503   0.50450   0.51133   0.00000  Uiso   1.00
C15    C     0.63204   0.48630   0.57536   0.00000  Uiso   1.00
C16    C     0.62162   0.48533   0.70335   0.00000  Uiso   1.00
C17    C     0.57060   0.46732   0.74334   0.00000  Uiso   1.00
C18    C     0.65847   0.53132   0.41810   0.00000  Uiso   1.00
C19    C     0.67028   0.56821   0.41386   0.00000  Uiso   1.00
C20    C     0.64152   0.58810   0.32146   0.00000  Uiso   1.00
C21    C     0.71519   0.47515   0.43325   0.00000  Uiso   1.00
C22    C     0.77468   0.46482   0.44173   0.00000  Uiso   1.00
C23    C     0.79368   0.43743   0.36206   0.00000  Uiso   1.00
H24    H     0.58248   0.46143   0.28856   0.00000  Uiso   1.00
H25    H     0.51159   0.43912   0.46429   0.00000  Uiso   1.00
H26    H     0.56026   0.52198   0.17484   0.00000  Uiso   1.00
H27    H     0.66464   0.41861   0.20271   0.00000  Uiso   1.00
H28    H     0.45025   0.42164   0.69662   0.00000  Uiso   1.00
H29    H     0.55288   0.59636   0.08627   0.00000  Uiso   1.00
H30    H     0.77300   0.37838   0.14503   0.00000  Uiso   1.00
H31    H     0.71550   0.51731   0.57754   0.00000  Uiso   1.00
H32    H     0.65192   0.49806   0.76913   0.00000  Uiso   1.00
H33    H     0.70058   0.58092   0.47968   0.00000  Uiso   1.00
H34    H     0.80496   0.47755   0.50755   0.00000  Uiso   1.00
H35    H     0.56414   0.46949   0.94404   0.00000  Uiso   1.00
H36    H     0.66677   0.64420   0.33368   0.00000  Uiso   1.00
H37    H     0.88689   0.42622   0.39246   0.00000  Uiso   1.00
O38    O     0.46296   0.43191   0.94115   0.00000  Uiso   1.00
O39    O     0.59761   0.66113   0.14038   0.00000  Uiso   1.00
O40    O     0.88640   0.37514   0.21748   0.00000  Uiso   1.00
N41    N     0.48579   0.43554   0.72856   0.00000  Uiso   1.00
N42    N     0.58173   0.59889   0.15793   0.00000  Uiso   1.00
N43    N     0.78753   0.39510   0.21285   0.00000  Uiso   1.00
N44    N     0.54707   0.46128   0.86169   0.00000  Uiso   1.00
N45    N     0.64302   0.62463   0.29106   0.00000  Uiso   1.00
N46    N     0.84881   0.42085   0.34598   0.00000  Uiso   1.00
C47    C     0.61296   0.97423   0.85477   0.00000  Uiso   1.00
C48    C     0.59289   0.96985   0.99032   0.00000  Uiso   1.00
C49    C     0.54188   0.95184   0.03013   0.00000  Uiso   1.00
C50    C     0.53138   0.95085   0.15815   0.00000  Uiso   1.00
C51    C     0.49425   0.94156   0.35569   0.00000  Uiso   1.00
C52    C     0.61933   0.01488   0.83306   0.00000  Uiso   1.00
C53    C     0.59054   0.03471   0.74064   0.00000  Uiso   1.00
C54    C     0.60231   0.07162   0.73627   0.00000  Uiso   1.00
C55    C     0.60625   0.13224   0.68960   0.00000  Uiso   1.00
C56    C     0.67604   0.95871   0.84821   0.00000  Uiso   1.00
C57    C     0.69495   0.93133   0.76850   0.00000  Uiso   1.00
C58    C     0.75447   0.92095   0.77687   0.00000  Uiso   1.00
C59    C     0.84647   0.89436   0.75373   0.00000  Uiso   1.00
C60    C     0.68503   0.00450   0.01133   0.00000  Uiso   1.00
C61    C     0.63204   0.98630   0.07536   0.00000  Uiso   1.00
C62    C     0.62162   0.98533   0.20335   0.00000  Uiso   1.00
C63    C     0.57060   0.96732   0.24334   0.00000  Uiso   1.00
C64    C     0.65847   0.03132   0.91810   0.00000  Uiso   1.00
C65    C     0.67028   0.06821   0.91386   0.00000  Uiso   1.00
C66    C     0.64152   0.08810   0.82146   0.00000  Uiso   1.00
C67    C     0.71519   0.97515   0.93325   0.00000  Uiso   1.00
C68    C     0.77468   0.96482   0.94173   0.00000  Uiso   1.00
C69    C     0.79368   0.93743   0.86206   0.00000  Uiso   1.00
H70    H     0.58248   0.96143   0.78856   0.00000  Uiso   1.00
H71    H     0.51159   0.93912   0.96429   0.00000  Uiso   1.00
H72    H     0.56026   0.02198   0.67484   0.00000  Uiso   1.00
H73    H     0.66464   0.91861   0.70271   0.00000  Uiso   1.00
H74    H     0.45025   0.92164   0.19662   0.00000  Uiso   1.00
H75    H     0.55288   0.09636   0.58627   0.00000  Uiso   1.00
H76    H     0.77300   0.87838   0.64503   0.00000  Uiso   1.00
H77    H     0.71550   0.01731   0.07754   0.00000  Uiso   1.00
H78    H     0.65192   0.99806   0.26913   0.00000  Uiso   1.00
H79    H     0.70058   0.08092   0.97968   0.00000  Uiso   1.00
H80    H     0.80496   0.97755   0.00755   0.00000  Uiso   1.00
H81    H     0.56414   0.96949   0.44404   0.00000  Uiso   1.00
H82    H     0.66677   0.14420   0.83368   0.00000  Uiso   1.00
H83    H     0.88689   0.92622   0.89246   0.00000  Uiso   1.00
O84    O     0.46296   0.93191   0.44115   0.00000  Uiso   1.00
O85    O     0.59761   0.16113   0.64038   0.00000  Uiso   1.00
O86    O     0.88640   0.87514   0.71748   0.00000  Uiso   1.00
N87    N     0.48579   0.93554   0.22856   0.00000  Uiso   1.00
N88    N     0.58173   0.09889   0.65793   0.00000  Uiso   1.00
N89    N     0.78753   0.89510   0.71285   0.00000  Uiso   1.00
N90    N     0.54707   0.96128   0.36169   0.00000  Uiso   1.00
N91    N     0.64302   0.12463   0.79106   0.00000  Uiso   1.00
N92    N     0.84881   0.92085   0.84598   0.00000  Uiso   1.00
C93    C     0.11296   0.47423   0.85477   0.00000  Uiso   1.00
C94    C     0.09289   0.46985   0.99032   0.00000  Uiso   1.00
C95    C     0.04188   0.45184   0.03013   0.00000  Uiso   1.00
C96    C     0.03138   0.45085   0.15815   0.00000  Uiso   1.00
C97    C     0.99425   0.44156   0.35569   0.00000  Uiso   1.00
C98    C     0.11933   0.51488   0.83306   0.00000  Uiso   1.00
C99    C     0.09054   0.53471   0.74064   0.00000  Uiso   1.00
C100   C     0.10231   0.57162   0.73627   0.00000  Uiso   1.00
C101   C     0.10625   0.63224   0.68960   0.00000  Uiso   1.00
C102   C     0.17604   0.45871   0.84821   0.00000  Uiso   1.00
C103   C     0.19495   0.43133   0.76850   0.00000  Uiso   1.00
C104   C     0.25447   0.42095   0.77687   0.00000  Uiso   1.00
C105   C     0.34647   0.39436   0.75373   0.00000  Uiso   1.00
C106   C     0.18503   0.50450   0.01133   0.00000  Uiso   1.00
C107   C     0.13204   0.48630   0.07536   0.00000  Uiso   1.00
C108   C     0.12162   0.48533   0.20335   0.00000  Uiso   1.00
C109   C     0.07060   0.46732   0.24334   0.00000  Uiso   1.00
C110   C     0.15847   0.53132   0.91810   0.00000  Uiso   1.00
C111   C     0.17028   0.56821   0.91386   0.00000  Uiso   1.00
C112   C     0.14152   0.58810   0.82146   0.00000  Uiso   1.00
C113   C     0.21519   0.47515   0.93325   0.00000  Uiso   1.00
C114   C     0.27468   0.46482   0.94173   0.00000  Uiso   1.00
C115   C     0.29368   0.43743   0.86206   0.00000  Uiso   1.00
H116   H     0.08248   0.46143   0.78856   0.00000  Uiso   1.00
H117   H     0.01159   0.43912   0.96429   0.00000  Uiso   1.00
H118   H     0.06026   0.52198   0.67484   0.00000  Uiso   1.00
H119   H     0.16464   0.41861   0.70271   0.00000  Uiso   1.00
H120   H     0.95025   0.42164   0.19662   0.00000  Uiso   1.00
H121   H     0.05288   0.59636   0.58627   0.00000  Uiso   1.00
H122   H     0.27300   0.37838   0.64503   0.00000  Uiso   1.00
H123   H     0.21550   0.51731   0.07754   0.00000  Uiso   1.00
H124   H     0.15192   0.49806   0.26913   0.00000  Uiso   1.00
H125   H     0.20058   0.58092   0.97968   0.00000  Uiso   1.00
H126   H     0.30496   0.47755   0.00755   0.00000  Uiso   1.00
H127   H     0.06414   0.46949   0.44404   0.00000  Uiso   1.00
H128   H     0.16677   0.64420   0.83368   0.00000  Uiso   1.00
H129   H     0.38689   0.42622   0.89246   0.00000  Uiso   1.00
O130   O     0.96296   0.43191   0.44115   0.00000  Uiso   1.00
O131   O     0.09761   0.66113   0.64038   0.00000  Uiso   1.00
O132   O     0.38640   0.37514   0.71748   0.00000  Uiso   1.00
N133   N     0.98579   0.43554   0.22856   0.00000  Uiso   1.00
N134   N     0.08173   0.59889   0.65793   0.00000  Uiso   1.00
N135   N     0.28753   0.39510   0.71285   0.00000  Uiso   1.00
N136   N     0.04707   0.46128   0.36169   0.00000  Uiso   1.00
N137   N     0.14302   0.62463   0.79106   0.00000  Uiso   1.00
N138   N     0.34881   0.42085   0.84598   0.00000  Uiso   1.00
C139   C     0.11296   0.97423   0.35477   0.00000  Uiso   1.00
C140   C     0.09289   0.96985   0.49032   0.00000  Uiso   1.00
C141   C     0.04188   0.95184   0.53013   0.00000  Uiso   1.00
C142   C     0.03138   0.95085   0.65815   0.00000  Uiso   1.00
C143   C     0.99425   0.94156   0.85569   0.00000  Uiso   1.00
C144   C     0.11933   0.01488   0.33306   0.00000  Uiso   1.00
C145   C     0.09054   0.03471   0.24064   0.00000  Uiso   1.00
C146   C     0.10231   0.07162   0.23627   0.00000  Uiso   1.00
C147   C     0.10625   0.13224   0.18960   0.00000  Uiso   1.00
C148   C     0.17604   0.95871   0.34821   0.00000  Uiso   1.00
C149   C     0.19495   0.93133   0.26850   0.00000  Uiso   1.00
C150   C     0.25447   0.92095   0.27687   0.00000  Uiso   1.00
C151   C     0.34647   0.89436   0.25373   0.00000  Uiso   1.00
C152   C     0.18503   0.00450   0.51133   0.00000  Uiso   1.00
C153   C     0.13204   0.98630   0.57536   0.00000  Uiso   1.00
C154   C     0.12162   0.98533   0.70335   0.00000  Uiso   1.00
C155   C     0.07060   0.96732   0.74334   0.00000  Uiso   1.00
C156   C     0.15847   0.03132   0.41810   0.00000  Uiso   1.00
C157   C     0.17028   0.06821   0.41386   0.00000  Uiso   1.00
C158   C     0.14152   0.08810   0.32146   0.00000  Uiso   1.00
C159   C     0.21519   0.97515   0.43325   0.00000  Uiso   1.00
C160   C     0.27468   0.96482   0.44173   0.00000  Uiso   1.00
C161   C     0.29368   0.93743   0.36206   0.00000  Uiso   1.00
H162   H     0.08248   0.96143   0.28856   0.00000  Uiso   1.00
H163   H     0.01159   0.93912   0.46429   0.00000  Uiso   1.00
H164   H     0.06026   0.02198   0.17484   0.00000  Uiso   1.00
H165   H     0.16464   0.91861   0.20271   0.00000  Uiso   1.00
H166   H     0.95025   0.92164   0.69662   0.00000  Uiso   1.00
H167   H     0.05288   0.09636   0.08627   0.00000  Uiso   1.00
H168   H     0.27300   0.87838   0.14503   0.00000  Uiso   1.00
H169   H     0.21550   0.01731   0.57754   0.00000  Uiso   1.00
H170   H     0.15192   0.99806   0.76913   0.00000  Uiso   1.00
H171   H     0.20058   0.08092   0.47968   0.00000  Uiso   1.00
H172   H     0.30496   0.97755   0.50755   0.00000  Uiso   1.00
H173   H     0.06414   0.96949   0.94404   0.00000  Uiso   1.00
H174   H     0.16677   0.14420   0.33368   0.00000  Uiso   1.00
H175   H     0.38689   0.92622   0.39246   0.00000  Uiso   1.00
O176   O     0.96296   0.93191   0.94115   0.00000  Uiso   1.00
O177   O     0.09761   0.16113   0.14038   0.00000  Uiso   1.00
O178   O     0.38640   0.87514   0.21748   0.00000  Uiso   1.00
N179   N     0.98579   0.93554   0.72856   0.00000  Uiso   1.00
N180   N     0.08173   0.09889   0.15793   0.00000  Uiso   1.00
N181   N     0.28753   0.89510   0.21285   0.00000  Uiso   1.00
N182   N     0.04707   0.96128   0.86169   0.00000  Uiso   1.00
N183   N     0.14302   0.12463   0.29106   0.00000  Uiso   1.00
N184   N     0.34881   0.92085   0.34598   0.00000  Uiso   1.00
C185   C     0.38704   0.52577   0.35477   0.00000  Uiso   1.00
C186   C     0.40711   0.53015   0.49032   0.00000  Uiso   1.00
C187   C     0.45812   0.54816   0.53013   0.00000  Uiso   1.00
C188   C     0.46862   0.54915   0.65815   0.00000  Uiso   1.00
C189   C     0.50575   0.55844   0.85569   0.00000  Uiso   1.00
C190   C     0.38067   0.48512   0.33306   0.00000  Uiso   1.00
C191   C     0.40946   0.46529   0.24064   0.00000  Uiso   1.00
C192   C     0.39769   0.42838   0.23627   0.00000  Uiso   1.00
C193   C     0.39375   0.36776   0.18960   0.00000  Uiso   1.00
C194   C     0.32396   0.54129   0.34821   0.00000  Uiso   1.00
C195   C     0.30505   0.56867   0.26850   0.00000  Uiso   1.00
C196   C     0.24553   0.57905   0.27687   0.00000  Uiso   1.00
C197   C     0.15353   0.60564   0.25373   0.00000  Uiso   1.00
C198   C     0.31497   0.49550   0.51133   0.00000  Uiso   1.00
C199   C     0.36796   0.51370   0.57536   0.00000  Uiso   1.00
C200   C     0.37838   0.51467   0.70335   0.00000  Uiso   1.00
C201   C     0.42940   0.53268   0.74334   0.00000  Uiso   1.00
C202   C     0.34153   0.46868   0.41810   0.00000  Uiso   1.00
C203   C     0.32972   0.43179   0.41386   0.00000  Uiso   1.00
C204   C     0.35848   0.41190   0.32146   0.00000  Uiso   1.00
C205   C     0.28481   0.52485   0.43325   0.00000  Uiso   1.00
C206   C     0.22532   0.53518   0.44173   0.00000  Uiso   1.00
C207   C     0.20632   0.56257   0.36206   0.00000  Uiso   1.00
H208   H     0.41752   0.53857   0.28856   0.00000  Uiso   1.00
H209   H     0.48841   0.56088   0.46429   0.00000  Uiso   1.00
H210   H     0.43974   0.47802   0.17484   0.00000  Uiso   1.00
H211   H     0.33536   0.58139   0.20271   0.00000  Uiso   1.00
H212   H     0.54975   0.57836   0.69662   0.00000  Uiso   1.00
H213   H     0.44712   0.40364   0.08627   0.00000  Uiso   1.00
H214   H     0.22700   0.62162   0.14503   0.00000  Uiso   1.00
H215   H     0.28450   0.48269   0.57754   0.00000  Uiso   1.00
H216   H     0.34808   0.50194   0.76913   0.00000  Uiso   1.00
H217   H     0.29942   0.41908   0.47968   0.00000  Uiso   1.00
H218   H     0.19504   0.52245   0.50755   0.00000  Uiso   1.00
H219   H     0.43586   0.53051   0.94404   0.00000  Uiso   1.00
H220   H     0.33323   0.35580   0.33368   0.00000  Uiso   1.00
H221   H     0.11311   0.57378   0.39246   0.00000  Uiso   1.00
O222   O     0.53704   0.56809   0.94115   0.00000  Uiso   1.00
O223   O     0.40239   0.33887   0.14038   0.00000  Uiso   1.00
O224   O     0.11360   0.62486   0.21748   0.00000  Uiso   1.00
N225   N     0.51421   0.56446   0.72856   0.00000  Uiso   1.00
N226   N     0.41827   0.40111   0.15793   0.00000  Uiso   1.00
N227   N     0.21247   0.60490   0.21285   0.00000  Uiso   1.00
N228   N     0.45293   0.53872   0.86169   0.00000  Uiso   1.00
N229   N     0.35698   0.37537   0.29106   0.00000  Uiso   1.00
N230   N     0.15119   0.57915   0.34598   0.00000  Uiso   1.00
C231   C     0.38704   0.02577   0.85477   0.00000  Uiso   1.00
C232   C     0.40711   0.03015   0.99032   0.00000  Uiso   1.00
C233   C     0.45812   0.04816   0.03013   0.00000  Uiso   1.00
C234   C     0.46862   0.04915   0.15815   0.00000  Uiso   1.00
C235   C     0.50575   0.05844   0.35569   0.00000  Uiso   1.00
C236   C     0.38067   0.98512   0.83306   0.00000  Uiso   1.00
C237   C     0.40946   0.96529   0.74064   0.00000  Uiso   1.00
C238   C     0.39769   0.92838   0.73627   0.00000  Uiso   1.00
C239   C     0.39375   0.86776   0.68960   0.00000  Uiso   1.00
C240   C     0.32396   0.04129   0.84821   0.00000  Uiso   1.00
C241   C     0.30505   0.06867   0.76850   0.00000  Uiso   1.00
C242   C     0.24553   0.07905   0.77687   0.00000  Uiso   1.00
C243   C     0.15353   0.10564   0.75373   0.00000  Uiso   1.00
C244   C     0.31497   0.99550   0.01133   0.00000  Uiso   1.00
C245   C     0.36796   0.01370   0.07536   0.00000  Uiso   1.00
C246   C     0.37838   0.01467   0.20335   0.00000  Uiso   1.00
C247   C     0.42940   0.03268   0.24334   0.00000  Uiso   1.00
C248   C     0.34153   0.96868   0.91810   0.00000  Uiso   1.00
C249   C     0.32972   0.93179   0.91386   0.00000  Uiso   1.00
C250   C     0.35848   0.91190   0.82146   0.00000  Uiso   1.00
C251   C     0.28481   0.02485   0.93325   0.00000  Uiso   1.00
C252   C     0.22532   0.03518   0.94173   0.00000  Uiso   1.00
C253   C     0.20632   0.06257   0.86206   0.00000  Uiso   1.00
H254   H     0.41752   0.03857   0.78856   0.00000  Uiso   1.00
H255   H     0.48841   0.06088   0.96429   0.00000  Uiso   1.00
H256   H     0.43974   0.97802   0.67484   0.00000  Uiso   1.00
H257   H     0.33536   0.08139   0.70271   0.00000  Uiso   1.00
H258   H     0.54975   0.07836   0.19662   0.00000  Uiso   1.00
H259   H     0.44712   0.90364   0.58627   0.00000  Uiso   1.00
H260   H     0.22700   0.12162   0.64503   0.00000  Uiso   1.00
H261   H     0.28450   0.98269   0.07754   0.00000  Uiso   1.00
H262   H     0.34808   0.00194   0.26913   0.00000  Uiso   1.00
H263   H     0.29942   0.91908   0.97968   0.00000  Uiso   1.00
H264   H     0.19504   0.02245   0.00755   0.00000  Uiso   1.00
H265   H     0.43586   0.03051   0.44404   0.00000  Uiso   1.00
H266   H     0.33323   0.85580   0.83368   0.00000  Uiso   1.00
H267   H     0.11311   0.07378   0.89246   0.00000  Uiso   1.00
O268   O     0.53704   0.06809   0.44115   0.00000  Uiso   1.00
O269   O     0.40239   0.83887   0.64038   0.00000  Uiso   1.00
O270   O     0.11360   0.12486   0.71748   0.00000  Uiso   1.00
N271   N     0.51421   0.06446   0.22856   0.00000  Uiso   1.00
N272   N     0.41827   0.90111   0.65793   0.00000  Uiso   1.00
N273   N     0.21247   0.10490   0.71285   0.00000  Uiso   1.00
N274   N     0.45293   0.03872   0.36169   0.00000  Uiso   1.00
N275   N     0.35698   0.87537   0.79106   0.00000  Uiso   1.00
N276   N     0.15119   0.07915   0.84598   0.00000  Uiso   1.00
C277   C     0.88704   0.52577   0.85477   0.00000  Uiso   1.00
C278   C     0.90711   0.53015   0.99032   0.00000  Uiso   1.00
C279   C     0.95812   0.54816   0.03013   0.00000  Uiso   1.00
C280   C     0.96862   0.54915   0.15815   0.00000  Uiso   1.00
C281   C     0.00575   0.55844   0.35569   0.00000  Uiso   1.00
C282   C     0.88067   0.48512   0.83306   0.00000  Uiso   1.00
C283   C     0.90946   0.46529   0.74064   0.00000  Uiso   1.00
C284   C     0.89769   0.42838   0.73627   0.00000  Uiso   1.00
C285   C     0.89375   0.36776   0.68960   0.00000  Uiso   1.00
C286   C     0.82396   0.54129   0.84821   0.00000  Uiso   1.00
C287   C     0.80505   0.56867   0.76850   0.00000  Uiso   1.00
C288   C     0.74553   0.57905   0.77687   0.00000  Uiso   1.00
C289   C     0.65353   0.60564   0.75373   0.00000  Uiso   1.00
C290   C     0.81497   0.49550   0.01133   0.00000  Uiso   1.00
C291   C     0.86796   0.51370   0.07536   0.00000  Uiso   1.00
C292   C     0.87838   0.51467   0.20335   0.00000  Uiso   1.00
C293   C     0.92940   0.53268   0.24334   0.00000  Uiso   1.00
C294   C     0.84153   0.46868   0.91810   0.00000  Uiso   1.00
C295   C     0.82972   0.43179   0.91386   0.00000  Uiso   1.00
C296   C     0.85848   0.41190   0.82146   0.00000  Uiso   1.00
C297   C     0.78481   0.52485   0.93325   0.00000  Uiso   1.00
C298   C     0.72532   0.53518   0.94173   0.00000  Uiso   1.00
C299   C     0.70632   0.56257   0.86206   0.00000  Uiso   1.00
H300   H     0.91752   0.53857   0.78856   0.00000  Uiso   1.00
H301   H     0.98841   0.56088   0.96429   0.00000  Uiso   1.00
H302   H     0.93974   0.47802   0.67484   0.00000  Uiso   1.00
H303   H     0.83536   0.58139   0.70271   0.00000  Uiso   1.00
H304   H     0.04975   0.57836   0.19662   0.00000  Uiso   1.00
H305   H     0.94712   0.40364   0.58627   0.00000  Uiso   1.00
H306   H     0.72700   0.62162   0.64503   0.00000  Uiso   1.00
H307   H     0.78450   0.48269   0.07754   0.00000  Uiso   1.00
H308   H     0.84808   0.50194   0.26913   0.00000  Uiso   1.00
H309   H     0.79942   0.41908   0.97968   0.00000  Uiso   1.00
H310   H     0.69504   0.52245   0.00755   0.00000  Uiso   1.00
H311   H     0.93586   0.53051   0.44404   0.00000  Uiso   1.00
H312   H     0.83323   0.35580   0.83368   0.00000  Uiso   1.00
H313   H     0.61311   0.57378   0.89246   0.00000  Uiso   1.00
O314   O     0.03704   0.56809   0.44115   0.00000  Uiso   1.00
O315   O     0.90239   0.33887   0.64038   0.00000  Uiso   1.00
O316   O     0.61360   0.62486   0.71748   0.00000  Uiso   1.00
N317   N     0.01421   0.56446   0.22856   0.00000  Uiso   1.00
N318   N     0.91827   0.40111   0.65793   0.00000  Uiso   1.00
N319   N     0.71247   0.60490   0.71285   0.00000  Uiso   1.00
N320   N     0.95293   0.53872   0.36169   0.00000  Uiso   1.00
N321   N     0.85698   0.37537   0.79106   0.00000  Uiso   1.00
N322   N     0.65119   0.57915   0.84598   0.00000  Uiso   1.00
C323   C     0.88704   0.02577   0.35477   0.00000  Uiso   1.00
C324   C     0.90711   0.03015   0.49032   0.00000  Uiso   1.00
C325   C     0.95812   0.04816   0.53013   0.00000  Uiso   1.00
C326   C     0.96862   0.04915   0.65815   0.00000  Uiso   1.00
C327   C     0.00575   0.05844   0.85569   0.00000  Uiso   1.00
C328   C     0.88067   0.98512   0.33306   0.00000  Uiso   1.00
C329   C     0.90946   0.96529   0.24064   0.00000  Uiso   1.00
C330   C     0.89769   0.92838   0.23627   0.00000  Uiso   1.00
C331   C     0.89375   0.86776   0.18960   0.00000  Uiso   1.00
C332   C     0.82396   0.04129   0.34821   0.00000  Uiso   1.00
C333   C     0.80505   0.06867   0.26850   0.00000  Uiso   1.00
C334   C     0.74553   0.07905   0.27687   0.00000  Uiso   1.00
C335   C     0.65353   0.10564   0.25373   0.00000  Uiso   1.00
C336   C     0.81497   0.99550   0.51133   0.00000  Uiso   1.00
C337   C     0.86796   0.01370   0.57536   0.00000  Uiso   1.00
C338   C     0.87838   0.01467   0.70335   0.00000  Uiso   1.00
C339   C     0.92940   0.03268   0.74334   0.00000  Uiso   1.00
C340   C     0.84153   0.96868   0.41810   0.00000  Uiso   1.00
C341   C     0.82972   0.93179   0.41386   0.00000  Uiso   1.00
C342   C     0.85848   0.91190   0.32146   0.00000  Uiso   1.00
C343   C     0.78481   0.02485   0.43325   0.00000  Uiso   1.00
C344   C     0.72532   0.03518   0.44173   0.00000  Uiso   1.00
C345   C     0.70632   0.06257   0.36206   0.00000  Uiso   1.00
H346   H     0.91752   0.03857   0.28856   0.00000  Uiso   1.00
H347   H     0.98841   0.06088   0.46429   0.00000  Uiso   1.00
H348   H     0.93974   0.97802   0.17484   0.00000  Uiso   1.00
H349   H     0.83536   0.08139   0.20271   0.00000  Uiso   1.00
H350   H     0.04975   0.07836   0.69662   0.00000  Uiso   1.00
H351   H     0.94712   0.90364   0.08627   0.00000  Uiso   1.00
H352   H     0.72700   0.12162   0.14503   0.00000  Uiso   1.00
H353   H     0.78450   0.98269   0.57754   0.00000  Uiso   1.00
H354   H     0.84808   0.00194   0.76913   0.00000  Uiso   1.00
H355   H     0.79942   0.91908   0.47968   0.00000  Uiso   1.00
H356   H     0.69504   0.02245   0.50755   0.00000  Uiso   1.00
H357   H     0.93586   0.03051   0.94404   0.00000  Uiso   1.00
H358   H     0.83323   0.85580   0.33368   0.00000  Uiso   1.00
H359   H     0.61311   0.07378   0.39246   0.00000  Uiso   1.00
O360   O     0.03704   0.06809   0.94115   0.00000  Uiso   1.00
O361   O     0.90239   0.83887   0.14038   0.00000  Uiso   1.00
O362   O     0.61360   0.12486   0.21748   0.00000  Uiso   1.00
N363   N     0.01421   0.06446   0.72856   0.00000  Uiso   1.00
N364   N     0.91827   0.90111   0.15793   0.00000  Uiso   1.00
N365   N     0.71247   0.10490   0.21285   0.00000  Uiso   1.00
N366   N     0.95293   0.03872   0.86169   0.00000  Uiso   1.00
N367   N     0.85698   0.87537   0.29106   0.00000  Uiso   1.00
N368   N     0.65119   0.07915   0.34598   0.00000  Uiso   1.00
C369   C     0.86296   0.77577   0.60477   0.00000  Uiso   1.00
C370   C     0.84289   0.78015   0.74032   0.00000  Uiso   1.00
C371   C     0.79188   0.79816   0.78013   0.00000  Uiso   1.00
C372   C     0.78138   0.79915   0.90815   0.00000  Uiso   1.00
C373   C     0.74425   0.80844   0.10569   0.00000  Uiso   1.00
C374   C     0.86933   0.73512   0.58306   0.00000  Uiso   1.00
C375   C     0.84054   0.71529   0.49064   0.00000  Uiso   1.00
C376   C     0.85231   0.67838   0.48627   0.00000  Uiso   1.00
C377   C     0.85625   0.61776   0.43960   0.00000  Uiso   1.00
C378   C     0.92604   0.79129   0.59821   0.00000  Uiso   1.00
C379   C     0.94495   0.81867   0.51850   0.00000  Uiso   1.00
C380   C     0.00447   0.82905   0.52687   0.00000  Uiso   1.00
C381   C     0.09647   0.85564   0.50373   0.00000  Uiso   1.00
C382   C     0.93503   0.74550   0.76133   0.00000  Uiso   1.00
C383   C     0.88204   0.76370   0.82536   0.00000  Uiso   1.00
C384   C     0.87162   0.76467   0.95335   0.00000  Uiso   1.00
C385   C     0.82060   0.78268   0.99334   0.00000  Uiso   1.00
C386   C     0.90847   0.71868   0.66810   0.00000  Uiso   1.00
C387   C     0.92028   0.68179   0.66386   0.00000  Uiso   1.00
C388   C     0.89152   0.66190   0.57146   0.00000  Uiso   1.00
C389   C     0.96519   0.77485   0.68325   0.00000  Uiso   1.00
C390   C     0.02468   0.78518   0.69173   0.00000  Uiso   1.00
C391   C     0.04368   0.81257   0.61206   0.00000  Uiso   1.00
H392   H     0.83248   0.78857   0.53856   0.00000  Uiso   1.00
H393   H     0.76159   0.81088   0.71429   0.00000  Uiso   1.00
H394   H     0.81026   0.72802   0.42484   0.00000  Uiso   1.00
H395   H     0.91464   0.83139   0.45271   0.00000  Uiso   1.00
H396   H     0.70025   0.82836   0.94662   0.00000  Uiso   1.00
H397   H     0.80288   0.65364   0.33627   0.00000  Uiso   1.00
H398   H     0.02300   0.87162   0.39503   0.00000  Uiso   1.00
H399   H     0.96550   0.73269   0.82754   0.00000  Uiso   1.00
H400   H     0.90192   0.75194   0.01913   0.00000  Uiso   1.00
H401   H     0.95058   0.66908   0.72968   0.00000  Uiso   1.00
H402   H     0.05496   0.77245   0.75755   0.00000  Uiso   1.00
H403   H     0.81414   0.78051   0.19404   0.00000  Uiso   1.00
H404   H     0.91677   0.60580   0.58368   0.00000  Uiso   1.00
H405   H     0.13689   0.82378   0.64246   0.00000  Uiso   1.00
O406   O     0.71296   0.81809   0.19115   0.00000  Uiso   1.00
O407   O     0.84761   0.58887   0.39038   0.00000  Uiso   1.00
O408   O     0.13640   0.87486   0.46748   0.00000  Uiso   1.00
N409   N     0.73579   0.81446   0.97856   0.00000  Uiso   1.00
N410   N     0.83173   0.65111   0.40793   0.00000  Uiso   1.00
N411   N     0.03753   0.85490   0.46285   0.00000  Uiso   1.00
N412   N     0.79707   0.78872   0.11169   0.00000  Uiso   1.00
N413   N     0.89302   0.62537   0.54106   0.00000  Uiso   1.00
N414   N     0.09881   0.82915   0.59598   0.00000  Uiso   1.00
C415   C     0.86296   0.27577   0.10477   0.00000  Uiso   1.00
C416   C     0.84289   0.28015   0.24032   0.00000  Uiso   1.00
C417   C     0.79188   0.29816   0.28013   0.00000  Uiso   1.00
C418   C     0.78138   0.29915   0.40815   0.00000  Uiso   1.00
C419   C     0.74425   0.30844   0.60569   0.00000  Uiso   1.00
C420   C     0.86933   0.23512   0.08306   0.00000  Uiso   1.00
C421   C     0.84054   0.21529   0.99064   0.00000  Uiso   1.00
C422   C     0.85231   0.17838   0.98627   0.00000  Uiso   1.00
C423   C     0.85625   0.11776   0.93960   0.00000  Uiso   1.00
C424   C     0.92604   0.29129   0.09821   0.00000  Uiso   1.00
C425   C     0.94495   0.31867   0.01850   0.00000  Uiso   1.00
C426   C     0.00447   0.32905   0.02687   0.00000  Uiso   1.00
C427   C     0.09647   0.35564   0.00373   0.00000  Uiso   1.00
C428   C     0.93503   0.24550   0.26133   0.00000  Uiso   1.00
C429   C     0.88204   0.26370   0.32536   0.00000  Uiso   1.00
C430   C     0.87162   0.26467   0.45335   0.00000  Uiso   1.00
C431   C     0.82060   0.28268   0.49334   0.00000  Uiso   1.00
C432   C     0.90847   0.21868   0.16810   0.00000  Uiso   1.00
C433   C     0.92028   0.18179   0.16386   0.00000  Uiso   1.00
C434   C     0.89152   0.16190   0.07146   0.00000  Uiso   1.00
C435   C     0.96519   0.27485   0.18325   0.00000  Uiso   1.00
C436   C     0.02468   0.28518   0.19173   0.00000  Uiso   1.00
C437   C     0.04368   0.31257   0.11206   0.00000  Uiso   1.00
H438   H     0.83248   0.28857   0.03856   0.00000  Uiso   1.00
H439   H     0.76159   0.31088   0.21429   0.00000  Uiso   1.00
H440   H     0.81026   0.22802   0.92484   0.00000  Uiso   1.00
H441   H     0.91464   0.33139   0.95271   0.00000  Uiso   1.00
H442   H     0.70025   0.32836   0.44662   0.00000  Uiso   1.00
H443   H     0.80288   0.15364   0.83627   0.00000  Uiso   1.00
H444   H     0.02300   0.37162   0.89503   0.00000  Uiso   1.00
H445   H     0.96550   0.23269   0.32754   0.00000  Uiso   1.00
H446   H     0.90192   0.25194   0.51913   0.00000  Uiso   1.00
H447   H     0.95058   0.16908   0.22968   0.00000  Uiso   1.00
H448   H     0.05496   0.27245   0.25755   0.00000  Uiso   1.00
H449   H     0.81414   0.28051   0.69404   0.00000  Uiso   1.00
H450   H     0.91677   0.10580   0.08368   0.00000  Uiso   1.00
H451   H     0.13689   0.32378   0.14246   0.00000  Uiso   1.00
O452   O     0.71296   0.31809   0.69115   0.00000  Uiso   1.00
O453   O     0.84761   0.08887   0.89038   0.00000  Uiso   1.00
O454   O     0.13640   0.37486   0.96748   0.00000  Uiso   1.00
N455   N     0.73579   0.31446   0.47856   0.00000  Uiso   1.00
N456   N     0.83173   0.15111   0.90793   0.00000  Uiso   1.00
N457   N     0.03753   0.35490   0.96285   0.00000  Uiso   1.00
N458   N     0.79707   0.28872   0.61169   0.00000  Uiso   1.00
N459   N     0.89302   0.12537   0.04106   0.00000  Uiso   1.00
N460   N     0.09881   0.32915   0.09598   0.00000  Uiso   1.00
C461   C     0.36296   0.77577   0.10477   0.00000  Uiso   1.00
C462   C     0.34289   0.78015   0.24032   0.00000  Uiso   1.00
C463   C     0.29188   0.79816   0.28013   0.00000  Uiso   1.00
C464   C     0.28138   0.79915   0.40815   0.00000  Uiso   1.00
C465   C     0.24425   0.80844   0.60569   0.00000  Uiso   1.00
C466   C     0.36933   0.73512   0.08306   0.00000  Uiso   1.00
C467   C     0.34054   0.71529   0.99064   0.00000  Uiso   1.00
C468   C     0.35231   0.67838   0.98627   0.00000  Uiso   1.00
C469   C     0.35625   0.61776   0.93960   0.00000  Uiso   1.00
C470   C     0.42604   0.79129   0.09821   0.00000  Uiso   1.00
C471   C     0.44495   0.81867   0.01850   0.00000  Uiso   1.00
C472   C     0.50447   0.82905   0.02687   0.00000  Uiso   1.00
C473   C     0.59647   0.85564   0.00373   0.00000  Uiso   1.00
C474   C     0.43503   0.74550   0.26133   0.00000  Uiso   1.00
C475   C     0.38204   0.76370   0.32536   0.00000  Uiso   1.00
C476   C     0.37162   0.76467   0.45335   0.00000  Uiso   1.00
C477   C     0.32060   0.78268   0.49334   0.00000  Uiso   1.00
C478   C     0.40847   0.71868   0.16810   0.00000  Uiso   1.00
C479   C     0.42028   0.68179   0.16386   0.00000  Uiso   1.00
C480   C     0.39152   0.66190   0.07146   0.00000  Uiso   1.00
C481   C     0.46519   0.77485   0.18325   0.00000  Uiso   1.00
C482   C     0.52468   0.78518   0.19173   0.00000  Uiso   1.00
C483   C     0.54368   0.81257   0.11206   0.00000  Uiso   1.00
H484   H     0.33248   0.78857   0.03856   0.00000  Uiso   1.00
H485   H     0.26159   0.81088   0.21429   0.00000  Uiso   1.00
H486   H     0.31026   0.72802   0.92484   0.00000  Uiso   1.00
H487   H     0.41464   0.83139   0.95271   0.00000  Uiso   1.00
H488   H     0.20025   0.82836   0.44662   0.00000  Uiso   1.00
H489   H     0.30288   0.65364   0.83627   0.00000  Uiso   1.00
H490   H     0.52300   0.87162   0.89503   0.00000  Uiso   1.00
H491   H     0.46550   0.73269   0.32754   0.00000  Uiso   1.00
H492   H     0.40192   0.75194   0.51913   0.00000  Uiso   1.00
H493   H     0.45058   0.66908   0.22968   0.00000  Uiso   1.00
H494   H     0.55496   0.77245   0.25755   0.00000  Uiso   1.00
H495   H     0.31414   0.78051   0.69404   0.00000  Uiso   1.00
H496   H     0.41677   0.60580   0.08368   0.00000  Uiso   1.00
H497   H     0.63689   0.82378   0.14246   0.00000  Uiso   1.00
O498   O     0.21296   0.81809   0.69115   0.00000  Uiso   1.00
O499   O     0.34761   0.58887   0.89038   0.00000  Uiso   1.00
O500   O     0.63640   0.87486   0.96748   0.00000  Uiso   1.00
N501   N     0.23579   0.81446   0.47856   0.00000  Uiso   1.00
N502   N     0.33173   0.65111   0.90793   0.00000  Uiso   1.00
N503   N     0.53753   0.85490   0.96285   0.00000  Uiso   1.00
N504   N     0.29707   0.78872   0.61169   0.00000  Uiso   1.00
N505   N     0.39302   0.62537   0.04106   0.00000  Uiso   1.00
N506   N     0.59881   0.82915   0.09598   0.00000  Uiso   1.00
C507   C     0.36296   0.27577   0.60477   0.00000  Uiso   1.00
C508   C     0.34289   0.28015   0.74032   0.00000  Uiso   1.00
C509   C     0.29188   0.29816   0.78013   0.00000  Uiso   1.00
C510   C     0.28138   0.29915   0.90815   0.00000  Uiso   1.00
C511   C     0.24425   0.30844   0.10569   0.00000  Uiso   1.00
C512   C     0.36933   0.23512   0.58306   0.00000  Uiso   1.00
C513   C     0.34054   0.21529   0.49064   0.00000  Uiso   1.00
C514   C     0.35231   0.17838   0.48627   0.00000  Uiso   1.00
C515   C     0.35625   0.11776   0.43960   0.00000  Uiso   1.00
C516   C     0.42604   0.29129   0.59821   0.00000  Uiso   1.00
C517   C     0.44495   0.31867   0.51850   0.00000  Uiso   1.00
C518   C     0.50447   0.32905   0.52687   0.00000  Uiso   1.00
C519   C     0.59647   0.35564   0.50373   0.00000  Uiso   1.00
C520   C     0.43503   0.24550   0.76133   0.00000  Uiso   1.00
C521   C     0.38204   0.26370   0.82536   0.00000  Uiso   1.00
C522   C     0.37162   0.26467   0.95335   0.00000  Uiso   1.00
C523   C     0.32060   0.28268   0.99334   0.00000  Uiso   1.00
C524   C     0.40847   0.21868   0.66810   0.00000  Uiso   1.00
C525   C     0.42028   0.18179   0.66386   0.00000  Uiso   1.00
C526   C     0.39152   0.16190   0.57146   0.00000  Uiso   1.00
C527   C     0.46519   0.27485   0.68325   0.00000  Uiso   1.00
C528   C     0.52468   0.28518   0.69173   0.00000  Uiso   1.00
C529   C     0.54368   0.31257   0.61206   0.00000  Uiso   1.00
H530   H     0.33248   0.28857   0.53856   0.00000  Uiso   1.00
H531   H     0.26159   0.31088   0.71429   0.00000  Uiso   1.00
H532   H     0.31026   0.22802   0.42484   0.00000  Uiso   1.00
H533   H     0.41464   0.33139   0.45271   0.00000  Uiso   1.00
H534   H     0.20025   0.32836   0.94662   0.00000  Uiso   1.00
H535   H     0.30288   0.15364   0.33627   0.00000  Uiso   1.00
H536   H     0.52300   0.37162   0.39503   0.00000  Uiso   1.00
H537   H     0.46550   0.23269   0.82754   0.00000  Uiso   1.00
H538   H     0.40192   0.25194   0.01913   0.00000  Uiso   1.00
H539   H     0.45058   0.16908   0.72968   0.00000  Uiso   1.00
H540   H     0.55496   0.27245   0.75755   0.00000  Uiso   1.00
H541   H     0.31414   0.28051   0.19404   0.00000  Uiso   1.00
H542   H     0.41677   0.10580   0.58368   0.00000  Uiso   1.00
H543   H     0.63689   0.32378   0.64246   0.00000  Uiso   1.00
O544   O     0.21296   0.31809   0.19115   0.00000  Uiso   1.00
O545   O     0.34761   0.08887   0.39038   0.00000  Uiso   1.00
O546   O     0.63640   0.37486   0.46748   0.00000  Uiso   1.00
N547   N     0.23579   0.31446   0.97856   0.00000  Uiso   1.00
N548   N     0.33173   0.15111   0.40793   0.00000  Uiso   1.00
N549   N     0.53753   0.35490   0.46285   0.00000  Uiso   1.00
N550   N     0.29707   0.28872   0.11169   0.00000  Uiso   1.00
N551   N     0.39302   0.12537   0.54106   0.00000  Uiso   1.00
N552   N     0.59881   0.32915   0.59598   0.00000  Uiso   1.00
C553   C     0.63704   0.72423   0.60477   0.00000  Uiso   1.00
C554   C     0.65711   0.71985   0.74032   0.00000  Uiso   1.00
C555   C     0.70812   0.70184   0.78013   0.00000  Uiso   1.00
C556   C     0.71862   0.70085   0.90815   0.00000  Uiso   1.00
C557   C     0.75575   0.69156   0.10569   0.00000  Uiso   1.00
C558   C     0.63067   0.76488   0.58306   0.00000  Uiso   1.00
C559   C     0.65946   0.78471   0.49064   0.00000  Uiso   1.00
C560   C     0.64769   0.82162   0.48627   0.00000  Uiso   1.00
C561   C     0.64375   0.88224   0.43960   0.00000  Uiso   1.00
C562   C     0.57396   0.70871   0.59821   0.00000  Uiso   1.00
C563   C     0.55505   0.68133   0.51850   0.00000  Uiso   1.00
C564   C     0.49553   0.67095   0.52687   0.00000  Uiso   1.00
C565   C     0.40353   0.64436   0.50373   0.00000  Uiso   1.00
C566   C     0.56497   0.75450   0.76133   0.00000  Uiso   1.00
C567   C     0.61796   0.73630   0.82536   0.00000  Uiso   1.00
C568   C     0.62838   0.73533   0.95335   0.00000  Uiso   1.00
C569   C     0.67940   0.71732   0.99334   0.00000  Uiso   1.00
C570   C     0.59153   0.78132   0.66810   0.00000  Uiso   1.00
C571   C     0.57972   0.81821   0.66386   0.00000  Uiso   1.00
C572   C     0.60848   0.83810   0.57146   0.00000  Uiso   1.00
C573   C     0.53481   0.72515   0.68325   0.00000  Uiso   1.00
C574   C     0.47532   0.71482   0.69173   0.00000  Uiso   1.00
C575   C     0.45632   0.68743   0.61206   0.00000  Uiso   1.00
H576   H     0.66752   0.71143   0.53856   0.00000  Uiso   1.00
H577   H     0.73841   0.68912   0.71429   0.00000  Uiso   1.00
H578   H     0.68974   0.77198   0.42484   0.00000  Uiso   1.00
H579   H     0.58536   0.66861   0.45271   0.00000  Uiso   1.00
H580   H     0.79975   0.67164   0.94662   0.00000  Uiso   1.00
H581   H     0.69712   0.84636   0.33627   0.00000  Uiso   1.00
H582   H     0.47700   0.62838   0.39503   0.00000  Uiso   1.00
H583   H     0.53450   0.76731   0.82754   0.00000  Uiso   1.00
H584   H     0.59808   0.74806   0.01913   0.00000  Uiso   1.00
H585   H     0.54942   0.83092   0.72968   0.00000  Uiso   1.00
H586   H     0.44504   0.72755   0.75755   0.00000  Uiso   1.00
H587   H     0.68586   0.71949   0.19404   0.00000  Uiso   1.00
H588   H     0.58323   0.89420   0.58368   0.00000  Uiso   1.00
H589   H     0.36311   0.67622   0.64246   0.00000  Uiso   1.00
O590   O     0.78704   0.68191   0.19115   0.00000  Uiso   1.00
O591   O     0.65239   0.91113   0.39038   0.00000  Uiso   1.00
O592   O     0.36360   0.62514   0.46748   0.00000  Uiso   1.00
N593   N     0.76421   0.68554   0.97856   0.00000  Uiso   1.00
N594   N     0.66827   0.84889   0.40793   0.00000  Uiso   1.00
N595   N     0.46247   0.64510   0.46285   0.00000  Uiso   1.00
N596   N     0.70293   0.71128   0.11169   0.00000  Uiso   1.00
N597   N     0.60698   0.87463   0.54106   0.00000  Uiso   1.00
N598   N     0.40119   0.67085   0.59598   0.00000  Uiso   1.00
C599   C     0.63704   0.22423   0.10477   0.00000  Uiso   1.00
C600   C     0.65711   0.21985   0.24032   0.00000  Uiso   1.00
C601   C     0.70812   0.20184   0.28013   0.00000  Uiso   1.00
C602   C     0.71862   0.20085   0.40815   0.00000  Uiso   1.00
C603   C     0.75575   0.19156   0.60569   0.00000  Uiso   1.00
C604   C     0.63067   0.26488   0.08306   0.00000  Uiso   1.00
C605   C     0.65946   0.28471   0.99064   0.00000  Uiso   1.00
C606   C     0.64769   0.32162   0.98627   0.00000  Uiso   1.00
C607   C     0.64375   0.38224   0.93960   0.00000  Uiso   1.00
C608   C     0.57396   0.20871   0.09821   0.00000  Uiso   1.00
C609   C     0.55505   0.18133   0.01850   0.00000  Uiso   1.00
C610   C     0.49553   0.17095   0.02687   0.00000  Uiso   1.00
C611   C     0.40353   0.14436   0.00373   0.00000  Uiso   1.00
C612   C     0.56497   0.25450   0.26133   0.00000  Uiso   1.00
C613   C     0.61796   0.23630   0.32536   0.00000  Uiso   1.00
C614   C     0.62838   0.23533   0.45335   0.00000  Uiso   1.00
C615   C     0.67940   0.21732   0.49334   0.00000  Uiso   1.00
C616   C     0.59153   0.28132   0.16810   0.00000  Uiso   1.00
C617   C     0.57972   0.31821   0.16386   0.00000  Uiso   1.00
C618   C     0.60848   0.33810   0.07146   0.00000  Uiso   1.00
C619   C     0.53481   0.22515   0.18325   0.00000  Uiso   1.00
C620   C     0.47532   0.21482   0.19173   0.00000  Uiso   1.00
C621   C     0.45632   0.18743   0.11206   0.00000  Uiso   1.00
H622   H     0.66752   0.21143   0.03856   0.00000  Uiso   1.00
H623   H     0.73841   0.18912   0.21429   0.00000  Uiso   1.00
H624   H     0.68974   0.27198   0.92484   0.00000  Uiso   1.00
H625   H     0.58536   0.16861   0.95271   0.00000  Uiso   1.00
H626   H     0.79975   0.17164   0.44662   0.00000  Uiso   1.00
H627   H     0.69712   0.34636   0.83627   0.00000  Uiso   1.00
H628   H     0.47700   0.12838   0.89503   0.00000  Uiso   1.00
H629   H     0.53450   0.26731   0.32754   0.00000  Uiso   1.00
H630   H     0.59808   0.24806   0.51913   0.00000  Uiso   1.00
H631   H     0.54942   0.33092   0.22968   0.00000  Uiso   1.00
H632   H     0.44504   0.22755   0.25755   0.00000  Uiso   1.00
H633   H     0.68586   0.21949   0.69404   0.00000  Uiso   1.00
H634   H     0.58323   0.39420   0.08368   0.00000  Uiso   1.00
H635   H     0.36311   0.17622   0.14246   0.00000  Uiso   1.00
O636   O     0.78704   0.18191   0.69115   0.00000  Uiso   1.00
O637   O     0.65239   0.41113   0.89038   0.00000  Uiso   1.00
O638   O     0.36360   0.12514   0.96748   0.00000  Uiso   1.00
N639   N     0.76421   0.18554   0.47856   0.00000  Uiso   1.00
N640   N     0.66827   0.34889   0.90793   0.00000  Uiso   1.00
N641   N     0.46247   0.14510   0.96285   0.00000  Uiso   1.00
N642   N     0.70293   0.21128   0.61169   0.00000  Uiso   1.00
N643   N     0.60698   0.37463   0.04106   0.00000  Uiso   1.00
N644   N     0.40119   0.17085   0.09598   0.00000  Uiso   1.00
C645   C     0.13704   0.72423   0.10477   0.00000  Uiso   1.00
C646   C     0.15711   0.71985   0.24032   0.00000  Uiso   1.00
C647   C     0.20812   0.70184   0.28013   0.00000  Uiso   1.00
C648   C     0.21862   0.70085   0.40815   0.00000  Uiso   1.00
C649   C     0.25575   0.69156   0.60569   0.00000  Uiso   1.00
C650   C     0.13067   0.76488   0.08306   0.00000  Uiso   1.00
C651   C     0.15946   0.78471   0.99064   0.00000  Uiso   1.00
C652   C     0.14769   0.82162   0.98627   0.00000  Uiso   1.00
C653   C     0.14375   0.88224   0.93960   0.00000  Uiso   1.00
C654   C     0.07396   0.70871   0.09821   0.00000  Uiso   1.00
C655   C     0.05505   0.68133   0.01850   0.00000  Uiso   1.00
C656   C     0.99553   0.67095   0.02687   0.00000  Uiso   1.00
C657   C     0.90353   0.64436   0.00373   0.00000  Uiso   1.00
C658   C     0.06497   0.75450   0.26133   0.00000  Uiso   1.00
C659   C     0.11796   0.73630   0.32536   0.00000  Uiso   1.00
C660   C     0.12838   0.73533   0.45335   0.00000  Uiso   1.00
C661   C     0.17940   0.71732   0.49334   0.00000  Uiso   1.00
C662   C     0.09153   0.78132   0.16810   0.00000  Uiso   1.00
C663   C     0.07972   0.81821   0.16386   0.00000  Uiso   1.00
C664   C     0.10848   0.83810   0.07146   0.00000  Uiso   1.00
C665   C     0.03481   0.72515   0.18325   0.00000  Uiso   1.00
C666   C     0.97532   0.71482   0.19173   0.00000  Uiso   1.00
C667   C     0.95632   0.68743   0.11206   0.00000  Uiso   1.00
H668   H     0.16752   0.71143   0.03856   0.00000  Uiso   1.00
H669   H     0.23841   0.68912   0.21429   0.00000  Uiso   1.00
H670   H     0.18974   0.77198   0.92484   0.00000  Uiso   1.00
H671   H     0.08536   0.66861   0.95271   0.00000  Uiso   1.00
H672   H     0.29975   0.67164   0.44662   0.00000  Uiso   1.00
H673   H     0.19712   0.84636   0.83627   0.00000  Uiso   1.00
H674   H     0.97700   0.62838   0.89503   0.00000  Uiso   1.00
H675   H     0.03450   0.76731   0.32754   0.00000  Uiso   1.00
H676   H     0.09808   0.74806   0.51913   0.00000  Uiso   1.00
H677   H     0.04942   0.83092   0.22968   0.00000  Uiso   1.00
H678   H     0.94504   0.72755   0.25755   0.00000  Uiso   1.00
H679   H     0.18586   0.71949   0.69404   0.00000  Uiso   1.00
H680   H     0.08323   0.89420   0.08368   0.00000  Uiso   1.00
H681   H     0.86311   0.67622   0.14246   0.00000  Uiso   1.00
O682   O     0.28704   0.68191   0.69115   0.00000  Uiso   1.00
O683   O     0.15239   0.91113   0.89038   0.00000  Uiso   1.00
O684   O     0.86360   0.62514   0.96748   0.00000  Uiso   1.00
N685   N     0.26421   0.68554   0.47856   0.00000  Uiso   1.00
N686   N     0.16827   0.84889   0.90793   0.00000  Uiso   1.00
N687   N     0.96247   0.64510   0.96285   0.00000  Uiso   1.00
N688   N     0.20293   0.71128   0.61169   0.00000  Uiso   1.00
N689   N     0.10698   0.87463   0.04106   0.00000  Uiso   1.00
N690   N     0.90119   0.67085   0.09598   0.00000  Uiso   1.00
C691   C     0.13704   0.22423   0.60477   0.00000  Uiso   1.00
C692   C     0.15711   0.21985   0.74032   0.00000  Uiso   1.00
C693   C     0.20812   0.20184   0.78013   0.00000  Uiso   1.00
C694   C     0.21862   0.20085   0.90815   0.00000  Uiso   1.00
C695   C     0.25575   0.19156   0.10569   0.00000  Uiso   1.00
C696   C     0.13067   0.26488   0.58306   0.00000  Uiso   1.00
C697   C     0.15946   0.28471   0.49064   0.00000  Uiso   1.00
C698   C     0.14769   0.32162   0.48627   0.00000  Uiso   1.00
C699   C     0.14375   0.38224   0.43960   0.00000  Uiso   1.00
C700   C     0.07396   0.20871   0.59821   0.00000  Uiso   1.00
C701   C     0.05505   0.18133   0.51850   0.00000  Uiso   1.00
C702   C     0.99553   0.17095   0.52687   0.00000  Uiso   1.00
C703   C     0.90353   0.14436   0.50373   0.00000  Uiso   1.00
C704   C     0.06497   0.25450   0.76133   0.00000  Uiso   1.00
C705   C     0.11796   0.23630   0.82536   0.00000  Uiso   1.00
C706   C     0.12838   0.23533   0.95335   0.00000  Uiso   1.00
C707   C     0.17940   0.21732   0.99334   0.00000  Uiso   1.00
C708   C     0.09153   0.28132   0.66810   0.00000  Uiso   1.00
C709   C     0.07972   0.31821   0.66386   0.00000  Uiso   1.00
C710   C     0.10848   0.33810   0.57146   0.00000  Uiso   1.00
C711   C     0.03481   0.22515   0.68325   0.00000  Uiso   1.00
C712   C     0.97532   0.21482   0.69173   0.00000  Uiso   1.00
C713   C     0.95632   0.18743   0.61206   0.00000  Uiso   1.00
H714   H     0.16752   0.21143   0.53856   0.00000  Uiso   1.00
H715   H     0.23841   0.18912   0.71429   0.00000  Uiso   1.00
H716   H     0.18974   0.27198   0.42484   0.00000  Uiso   1.00
H717   H     0.08536   0.16861   0.45271   0.00000  Uiso   1.00
H718   H     0.29975   0.17164   0.94662   0.00000  Uiso   1.00
H719   H     0.19712   0.34636   0.33627   0.00000  Uiso   1.00
H720   H     0.97700   0.12838   0.39503   0.00000  Uiso   1.00
H721   H     0.03450   0.26731   0.82754   0.00000  Uiso   1.00
H722   H     0.09808   0.24806   0.01913   0.00000  Uiso   1.00
H723   H     0.04942   0.33092   0.72968   0.00000  Uiso   1.00
H724   H     0.94504   0.22755   0.75755   0.00000  Uiso   1.00
H725   H     0.18586   0.21949   0.19404   0.00000  Uiso   1.00
H726   H     0.08323   0.39420   0.58368   0.00000  Uiso   1.00
H727   H     0.86311   0.17622   0.64246   0.00000  Uiso   1.00
O728   O     0.28704   0.18191   0.19115   0.00000  Uiso   1.00
O729   O     0.15239   0.41113   0.39038   0.00000  Uiso   1.00
O730   O     0.86360   0.12514   0.46748   0.00000  Uiso   1.00
N731   N     0.26421   0.18554   0.97856   0.00000  Uiso   1.00
N732   N     0.16827   0.34889   0.40793   0.00000  Uiso   1.00
N733   N     0.96247   0.14510   0.46285   0.00000  Uiso   1.00
N734   N     0.20293   0.21128   0.11169   0.00000  Uiso   1.00
N735   N     0.10698   0.37463   0.54106   0.00000  Uiso   1.00
N736   N     0.90119   0.17085   0.59598   0.00000  Uiso   1.00
