data_job_05619
_audit_creation_date              2018-12-19
_audit_creation_method            'Materials Studio'
_symmetry_space_group_name_H-M    'P1'
_symmetry_Int_Tables_number       1
_symmetry_cell_setting            triclinic
loop_
_symmetry_equiv_pos_as_xyz
  x,y,z
_cell_length_a                    28.8254
_cell_length_b                    28.8254
_cell_length_c                    12.9508
_cell_angle_alpha                 90.0000
_cell_angle_beta                  90.0000
_cell_angle_gamma                 90.0000
loop_
_atom_site_label
_atom_site_type_symbol
_atom_site_fract_x
_atom_site_fract_y
_atom_site_fract_z
_atom_site_U_iso_or_equiv
_atom_site_adp_type
_atom_site_occupancy
C1     C     0.18908   0.11794   0.75560   0.00000  Uiso   1.00
C2     C     0.22527   0.09531   0.68605   0.00000  Uiso   1.00
C3     C     0.21604   0.06587   0.60378   0.00000  Uiso   1.00
C4     C     0.25394   0.04876   0.54970   0.00000  Uiso   1.00
C5     C     0.30322   0.01177   0.43759   0.00000  Uiso   1.00
C6     C     0.20136   0.10354   0.86555   0.00000  Uiso   1.00
C7     C     0.17202   0.08103   0.93420   0.00000  Uiso   1.00
C8     C     0.18980   0.07085   0.03123   0.00000  Uiso   1.00
C9     C     0.20195   0.04668   0.19782   0.00000  Uiso   1.00
C10    C     0.19797   0.17002   0.74965   0.00000  Uiso   1.00
C11    C     0.16580   0.20342   0.72088   0.00000  Uiso   1.00
C12    C     0.18072   0.24922   0.72035   0.00000  Uiso   1.00
C13    C     0.18762   0.32827   0.70699   0.00000  Uiso   1.00
C14    C     0.27279   0.13989   0.80587   0.00000  Uiso   1.00
C15    C     0.27074   0.10722   0.71336   0.00000  Uiso   1.00
C16    C     0.30867   0.09015   0.65939   0.00000  Uiso   1.00
C17    C     0.29950   0.06070   0.57704   0.00000  Uiso   1.00
C18    C     0.24683   0.11546   0.89286   0.00000  Uiso   1.00
C19    C     0.26465   0.10531   0.98981   0.00000  Uiso   1.00
C20    C     0.23535   0.08279   0.05859   0.00000  Uiso   1.00
C21    C     0.24345   0.18194   0.77695   0.00000  Uiso   1.00
C22    C     0.25842   0.22770   0.77648   0.00000  Uiso   1.00
C23    C     0.22628   0.26116   0.74771   0.00000  Uiso   1.00
H24    H     0.15367   0.10866   0.73435   0.00000  Uiso   1.00
H25    H     0.18084   0.05665   0.58268   0.00000  Uiso   1.00
H26    H     0.13683   0.07182   0.91305   0.00000  Uiso   1.00
H27    H     0.13061   0.19418   0.69976   0.00000  Uiso   1.00
H28    H     0.23102   0.00423   0.42658   0.00000  Uiso   1.00
H29    H     0.13822   0.03622   0.12321   0.00000  Uiso   1.00
H30    H     0.12509   0.29425   0.67343   0.00000  Uiso   1.00
H31    H     0.30820   0.14917   0.82713   0.00000  Uiso   1.00
H32    H     0.34385   0.09938   0.68053   0.00000  Uiso   1.00
H33    H     0.29984   0.11454   0.01092   0.00000  Uiso   1.00
H34    H     0.29362   0.23691   0.79762   0.00000  Uiso   1.00
H35    H     0.36333   0.03891   0.50601   0.00000  Uiso   1.00
H36    H     0.27052   0.07090   0.20264   0.00000  Uiso   1.00
H37    H     0.25740   0.32893   0.75286   0.00000  Uiso   1.00
O38    O     0.31784   0.98808   0.36821   0.00000  Uiso   1.00
O39    O     0.19608   0.03005   0.28217   0.00000  Uiso   1.00
O40    O     0.17886   0.36858   0.69206   0.00000  Uiso   1.00
N41    N     0.25727   0.01923   0.46538   0.00000  Uiso   1.00
N42    N     0.17051   0.04913   0.11668   0.00000  Uiso   1.00
N43    N     0.15823   0.29038   0.69620   0.00000  Uiso   1.00
N44    N     0.32846   0.03789   0.50812   0.00000  Uiso   1.00
N45    N     0.24170   0.06779   0.15942   0.00000  Uiso   1.00
N46    N     0.22942   0.30903   0.73894   0.00000  Uiso   1.00
C47    C     0.68908   0.61794   0.25560   0.00000  Uiso   1.00
C48    C     0.72527   0.59531   0.18605   0.00000  Uiso   1.00
C49    C     0.71604   0.56587   0.10378   0.00000  Uiso   1.00
C50    C     0.75394   0.54876   0.04970   0.00000  Uiso   1.00
C51    C     0.80322   0.51177   0.93759   0.00000  Uiso   1.00
C52    C     0.70136   0.60354   0.36555   0.00000  Uiso   1.00
C53    C     0.67202   0.58103   0.43420   0.00000  Uiso   1.00
C54    C     0.68980   0.57085   0.53123   0.00000  Uiso   1.00
C55    C     0.70195   0.54668   0.69782   0.00000  Uiso   1.00
C56    C     0.69797   0.67002   0.24965   0.00000  Uiso   1.00
C57    C     0.66580   0.70342   0.22088   0.00000  Uiso   1.00
C58    C     0.68072   0.74922   0.22035   0.00000  Uiso   1.00
C59    C     0.68762   0.82827   0.20699   0.00000  Uiso   1.00
C60    C     0.77279   0.63989   0.30587   0.00000  Uiso   1.00
C61    C     0.77074   0.60722   0.21336   0.00000  Uiso   1.00
C62    C     0.80867   0.59015   0.15939   0.00000  Uiso   1.00
C63    C     0.79950   0.56070   0.07704   0.00000  Uiso   1.00
C64    C     0.74683   0.61546   0.39286   0.00000  Uiso   1.00
C65    C     0.76465   0.60531   0.48981   0.00000  Uiso   1.00
C66    C     0.73535   0.58279   0.55859   0.00000  Uiso   1.00
C67    C     0.74345   0.68194   0.27695   0.00000  Uiso   1.00
C68    C     0.75842   0.72770   0.27648   0.00000  Uiso   1.00
C69    C     0.72628   0.76116   0.24771   0.00000  Uiso   1.00
H70    H     0.65367   0.60866   0.23435   0.00000  Uiso   1.00
H71    H     0.68084   0.55665   0.08268   0.00000  Uiso   1.00
H72    H     0.63683   0.57182   0.41305   0.00000  Uiso   1.00
H73    H     0.63061   0.69418   0.19976   0.00000  Uiso   1.00
H74    H     0.73102   0.50423   0.92658   0.00000  Uiso   1.00
H75    H     0.63822   0.53622   0.62321   0.00000  Uiso   1.00
H76    H     0.62509   0.79425   0.17343   0.00000  Uiso   1.00
H77    H     0.80820   0.64917   0.32713   0.00000  Uiso   1.00
H78    H     0.84385   0.59938   0.18053   0.00000  Uiso   1.00
H79    H     0.79984   0.61454   0.51092   0.00000  Uiso   1.00
H80    H     0.79362   0.73691   0.29762   0.00000  Uiso   1.00
H81    H     0.86333   0.53891   0.00601   0.00000  Uiso   1.00
H82    H     0.77052   0.57090   0.70264   0.00000  Uiso   1.00
H83    H     0.75740   0.82893   0.25286   0.00000  Uiso   1.00
O84    O     0.81784   0.48808   0.86821   0.00000  Uiso   1.00
O85    O     0.69608   0.53005   0.78217   0.00000  Uiso   1.00
O86    O     0.67886   0.86858   0.19206   0.00000  Uiso   1.00
N87    N     0.75727   0.51923   0.96538   0.00000  Uiso   1.00
N88    N     0.67051   0.54913   0.61668   0.00000  Uiso   1.00
N89    N     0.65823   0.79038   0.19620   0.00000  Uiso   1.00
N90    N     0.82846   0.53789   0.00812   0.00000  Uiso   1.00
N91    N     0.74170   0.56779   0.65942   0.00000  Uiso   1.00
N92    N     0.72942   0.80903   0.23894   0.00000  Uiso   1.00
C93    C     0.31092   0.38206   0.25560   0.00000  Uiso   1.00
C94    C     0.27473   0.40469   0.18605   0.00000  Uiso   1.00
C95    C     0.28396   0.43413   0.10378   0.00000  Uiso   1.00
C96    C     0.24606   0.45124   0.04970   0.00000  Uiso   1.00
C97    C     0.19678   0.48823   0.93759   0.00000  Uiso   1.00
C98    C     0.29864   0.39646   0.36555   0.00000  Uiso   1.00
C99    C     0.32798   0.41897   0.43420   0.00000  Uiso   1.00
C100   C     0.31020   0.42915   0.53123   0.00000  Uiso   1.00
C101   C     0.29805   0.45332   0.69782   0.00000  Uiso   1.00
C102   C     0.30203   0.32998   0.24965   0.00000  Uiso   1.00
C103   C     0.33420   0.29658   0.22088   0.00000  Uiso   1.00
C104   C     0.31928   0.25078   0.22035   0.00000  Uiso   1.00
C105   C     0.31238   0.17173   0.20699   0.00000  Uiso   1.00
C106   C     0.22721   0.36011   0.30587   0.00000  Uiso   1.00
C107   C     0.22926   0.39278   0.21336   0.00000  Uiso   1.00
C108   C     0.19133   0.40985   0.15939   0.00000  Uiso   1.00
C109   C     0.20050   0.43930   0.07704   0.00000  Uiso   1.00
C110   C     0.25317   0.38454   0.39286   0.00000  Uiso   1.00
C111   C     0.23535   0.39469   0.48981   0.00000  Uiso   1.00
C112   C     0.26465   0.41721   0.55859   0.00000  Uiso   1.00
C113   C     0.25655   0.31806   0.27695   0.00000  Uiso   1.00
C114   C     0.24158   0.27230   0.27648   0.00000  Uiso   1.00
C115   C     0.27372   0.23884   0.24771   0.00000  Uiso   1.00
H116   H     0.34633   0.39134   0.23435   0.00000  Uiso   1.00
H117   H     0.31916   0.44335   0.08268   0.00000  Uiso   1.00
H118   H     0.36317   0.42818   0.41305   0.00000  Uiso   1.00
H119   H     0.36939   0.30582   0.19976   0.00000  Uiso   1.00
H120   H     0.26898   0.49577   0.92658   0.00000  Uiso   1.00
H121   H     0.36178   0.46378   0.62321   0.00000  Uiso   1.00
H122   H     0.37491   0.20575   0.17343   0.00000  Uiso   1.00
H123   H     0.19180   0.35083   0.32713   0.00000  Uiso   1.00
H124   H     0.15615   0.40062   0.18053   0.00000  Uiso   1.00
H125   H     0.20016   0.38546   0.51092   0.00000  Uiso   1.00
H126   H     0.20638   0.26309   0.29762   0.00000  Uiso   1.00
H127   H     0.13667   0.46109   0.00601   0.00000  Uiso   1.00
H128   H     0.22948   0.42910   0.70264   0.00000  Uiso   1.00
H129   H     0.24260   0.17107   0.25286   0.00000  Uiso   1.00
O130   O     0.18216   0.51192   0.86821   0.00000  Uiso   1.00
O131   O     0.30392   0.46995   0.78217   0.00000  Uiso   1.00
O132   O     0.32114   0.13142   0.19206   0.00000  Uiso   1.00
N133   N     0.24273   0.48077   0.96538   0.00000  Uiso   1.00
N134   N     0.32949   0.45087   0.61668   0.00000  Uiso   1.00
N135   N     0.34177   0.20962   0.19620   0.00000  Uiso   1.00
N136   N     0.17154   0.46211   0.00812   0.00000  Uiso   1.00
N137   N     0.25830   0.43221   0.65942   0.00000  Uiso   1.00
N138   N     0.27058   0.19097   0.23894   0.00000  Uiso   1.00
C139   C     0.81092   0.88206   0.75560   0.00000  Uiso   1.00
C140   C     0.77473   0.90469   0.68605   0.00000  Uiso   1.00
C141   C     0.78396   0.93413   0.60378   0.00000  Uiso   1.00
C142   C     0.74606   0.95124   0.54970   0.00000  Uiso   1.00
C143   C     0.69678   0.98823   0.43759   0.00000  Uiso   1.00
C144   C     0.79864   0.89646   0.86555   0.00000  Uiso   1.00
C145   C     0.82798   0.91897   0.93420   0.00000  Uiso   1.00
C146   C     0.81020   0.92915   0.03123   0.00000  Uiso   1.00
C147   C     0.79805   0.95332   0.19782   0.00000  Uiso   1.00
C148   C     0.80203   0.82998   0.74965   0.00000  Uiso   1.00
C149   C     0.83420   0.79658   0.72088   0.00000  Uiso   1.00
C150   C     0.81928   0.75078   0.72035   0.00000  Uiso   1.00
C151   C     0.81238   0.67173   0.70699   0.00000  Uiso   1.00
C152   C     0.72721   0.86011   0.80587   0.00000  Uiso   1.00
C153   C     0.72926   0.89278   0.71336   0.00000  Uiso   1.00
C154   C     0.69133   0.90985   0.65939   0.00000  Uiso   1.00
C155   C     0.70050   0.93930   0.57704   0.00000  Uiso   1.00
C156   C     0.75317   0.88454   0.89286   0.00000  Uiso   1.00
C157   C     0.73535   0.89469   0.98981   0.00000  Uiso   1.00
C158   C     0.76465   0.91721   0.05859   0.00000  Uiso   1.00
C159   C     0.75655   0.81806   0.77695   0.00000  Uiso   1.00
C160   C     0.74158   0.77230   0.77648   0.00000  Uiso   1.00
C161   C     0.77372   0.73884   0.74771   0.00000  Uiso   1.00
H162   H     0.84633   0.89134   0.73435   0.00000  Uiso   1.00
H163   H     0.81916   0.94335   0.58268   0.00000  Uiso   1.00
H164   H     0.86317   0.92818   0.91305   0.00000  Uiso   1.00
H165   H     0.86939   0.80582   0.69976   0.00000  Uiso   1.00
H166   H     0.76898   0.99577   0.42658   0.00000  Uiso   1.00
H167   H     0.86178   0.96378   0.12321   0.00000  Uiso   1.00
H168   H     0.87491   0.70575   0.67343   0.00000  Uiso   1.00
H169   H     0.69180   0.85083   0.82713   0.00000  Uiso   1.00
H170   H     0.65615   0.90062   0.68053   0.00000  Uiso   1.00
H171   H     0.70016   0.88546   0.01092   0.00000  Uiso   1.00
H172   H     0.70638   0.76309   0.79762   0.00000  Uiso   1.00
H173   H     0.63667   0.96109   0.50601   0.00000  Uiso   1.00
H174   H     0.72948   0.92910   0.20264   0.00000  Uiso   1.00
H175   H     0.74260   0.67107   0.75286   0.00000  Uiso   1.00
O176   O     0.68216   0.01192   0.36821   0.00000  Uiso   1.00
O177   O     0.80392   0.96995   0.28217   0.00000  Uiso   1.00
O178   O     0.82114   0.63142   0.69206   0.00000  Uiso   1.00
N179   N     0.74273   0.98077   0.46538   0.00000  Uiso   1.00
N180   N     0.82949   0.95087   0.11668   0.00000  Uiso   1.00
N181   N     0.84177   0.70962   0.69620   0.00000  Uiso   1.00
N182   N     0.67154   0.96211   0.50812   0.00000  Uiso   1.00
N183   N     0.75830   0.93221   0.15942   0.00000  Uiso   1.00
N184   N     0.77058   0.69097   0.73894   0.00000  Uiso   1.00
C185   C     0.88206   0.68908   0.00560   0.00000  Uiso   1.00
C186   C     0.90469   0.72527   0.93605   0.00000  Uiso   1.00
C187   C     0.93413   0.71604   0.85378   0.00000  Uiso   1.00
C188   C     0.95124   0.75394   0.79970   0.00000  Uiso   1.00
C189   C     0.98823   0.80322   0.68759   0.00000  Uiso   1.00
C190   C     0.89646   0.70136   0.11555   0.00000  Uiso   1.00
C191   C     0.91897   0.67202   0.18420   0.00000  Uiso   1.00
C192   C     0.92915   0.68980   0.28123   0.00000  Uiso   1.00
C193   C     0.95332   0.70195   0.44782   0.00000  Uiso   1.00
C194   C     0.82998   0.69797   0.99965   0.00000  Uiso   1.00
C195   C     0.79658   0.66580   0.97088   0.00000  Uiso   1.00
C196   C     0.75078   0.68072   0.97035   0.00000  Uiso   1.00
C197   C     0.67173   0.68762   0.95699   0.00000  Uiso   1.00
C198   C     0.86011   0.77279   0.05587   0.00000  Uiso   1.00
C199   C     0.89278   0.77074   0.96336   0.00000  Uiso   1.00
C200   C     0.90985   0.80867   0.90939   0.00000  Uiso   1.00
C201   C     0.93930   0.79950   0.82704   0.00000  Uiso   1.00
C202   C     0.88454   0.74683   0.14286   0.00000  Uiso   1.00
C203   C     0.89469   0.76465   0.23981   0.00000  Uiso   1.00
C204   C     0.91721   0.73535   0.30859   0.00000  Uiso   1.00
C205   C     0.81806   0.74345   0.02695   0.00000  Uiso   1.00
C206   C     0.77230   0.75842   0.02648   0.00000  Uiso   1.00
C207   C     0.73884   0.72628   0.99771   0.00000  Uiso   1.00
H208   H     0.89134   0.65367   0.98435   0.00000  Uiso   1.00
H209   H     0.94335   0.68084   0.83268   0.00000  Uiso   1.00
H210   H     0.92818   0.63683   0.16305   0.00000  Uiso   1.00
H211   H     0.80582   0.63061   0.94976   0.00000  Uiso   1.00
H212   H     0.99577   0.73102   0.67658   0.00000  Uiso   1.00
H213   H     0.96378   0.63822   0.37321   0.00000  Uiso   1.00
H214   H     0.70575   0.62509   0.92343   0.00000  Uiso   1.00
H215   H     0.85083   0.80820   0.07713   0.00000  Uiso   1.00
H216   H     0.90062   0.84385   0.93053   0.00000  Uiso   1.00
H217   H     0.88546   0.79984   0.26092   0.00000  Uiso   1.00
H218   H     0.76309   0.79362   0.04762   0.00000  Uiso   1.00
H219   H     0.96109   0.86333   0.75601   0.00000  Uiso   1.00
H220   H     0.92910   0.77052   0.45264   0.00000  Uiso   1.00
H221   H     0.67107   0.75740   0.00286   0.00000  Uiso   1.00
O222   O     0.01192   0.81784   0.61821   0.00000  Uiso   1.00
O223   O     0.96995   0.69608   0.53217   0.00000  Uiso   1.00
O224   O     0.63142   0.67886   0.94206   0.00000  Uiso   1.00
N225   N     0.98077   0.75727   0.71538   0.00000  Uiso   1.00
N226   N     0.95087   0.67051   0.36668   0.00000  Uiso   1.00
N227   N     0.70962   0.65823   0.94620   0.00000  Uiso   1.00
N228   N     0.96211   0.82846   0.75812   0.00000  Uiso   1.00
N229   N     0.93221   0.74170   0.40942   0.00000  Uiso   1.00
N230   N     0.69097   0.72942   0.98894   0.00000  Uiso   1.00
C231   C     0.38206   0.18908   0.50560   0.00000  Uiso   1.00
C232   C     0.40469   0.22527   0.43605   0.00000  Uiso   1.00
C233   C     0.43413   0.21604   0.35378   0.00000  Uiso   1.00
C234   C     0.45124   0.25394   0.29970   0.00000  Uiso   1.00
C235   C     0.48823   0.30322   0.18759   0.00000  Uiso   1.00
C236   C     0.39646   0.20136   0.61555   0.00000  Uiso   1.00
C237   C     0.41897   0.17202   0.68420   0.00000  Uiso   1.00
C238   C     0.42915   0.18980   0.78123   0.00000  Uiso   1.00
C239   C     0.45332   0.20195   0.94782   0.00000  Uiso   1.00
C240   C     0.32998   0.19797   0.49965   0.00000  Uiso   1.00
C241   C     0.29658   0.16580   0.47088   0.00000  Uiso   1.00
C242   C     0.25078   0.18072   0.47035   0.00000  Uiso   1.00
C243   C     0.17173   0.18762   0.45699   0.00000  Uiso   1.00
C244   C     0.36011   0.27279   0.55587   0.00000  Uiso   1.00
C245   C     0.39278   0.27074   0.46336   0.00000  Uiso   1.00
C246   C     0.40985   0.30867   0.40939   0.00000  Uiso   1.00
C247   C     0.43930   0.29950   0.32704   0.00000  Uiso   1.00
C248   C     0.38454   0.24683   0.64286   0.00000  Uiso   1.00
C249   C     0.39469   0.26465   0.73981   0.00000  Uiso   1.00
C250   C     0.41721   0.23535   0.80859   0.00000  Uiso   1.00
C251   C     0.31806   0.24345   0.52695   0.00000  Uiso   1.00
C252   C     0.27230   0.25842   0.52648   0.00000  Uiso   1.00
C253   C     0.23884   0.22628   0.49771   0.00000  Uiso   1.00
H254   H     0.39134   0.15367   0.48435   0.00000  Uiso   1.00
H255   H     0.44335   0.18084   0.33268   0.00000  Uiso   1.00
H256   H     0.42818   0.13683   0.66305   0.00000  Uiso   1.00
H257   H     0.30582   0.13061   0.44976   0.00000  Uiso   1.00
H258   H     0.49577   0.23102   0.17658   0.00000  Uiso   1.00
H259   H     0.46378   0.13822   0.87321   0.00000  Uiso   1.00
H260   H     0.20575   0.12509   0.42343   0.00000  Uiso   1.00
H261   H     0.35083   0.30820   0.57713   0.00000  Uiso   1.00
H262   H     0.40062   0.34385   0.43053   0.00000  Uiso   1.00
H263   H     0.38546   0.29984   0.76092   0.00000  Uiso   1.00
H264   H     0.26309   0.29362   0.54762   0.00000  Uiso   1.00
H265   H     0.46109   0.36333   0.25601   0.00000  Uiso   1.00
H266   H     0.42910   0.27052   0.95264   0.00000  Uiso   1.00
H267   H     0.17107   0.25740   0.50286   0.00000  Uiso   1.00
O268   O     0.51192   0.31784   0.11821   0.00000  Uiso   1.00
O269   O     0.46995   0.19608   0.03217   0.00000  Uiso   1.00
O270   O     0.13142   0.17886   0.44206   0.00000  Uiso   1.00
N271   N     0.48077   0.25727   0.21538   0.00000  Uiso   1.00
N272   N     0.45087   0.17051   0.86668   0.00000  Uiso   1.00
N273   N     0.20962   0.15823   0.44620   0.00000  Uiso   1.00
N274   N     0.46211   0.32846   0.25812   0.00000  Uiso   1.00
N275   N     0.43221   0.24170   0.90942   0.00000  Uiso   1.00
N276   N     0.19097   0.22942   0.48894   0.00000  Uiso   1.00
C277   C     0.61794   0.81092   0.50560   0.00000  Uiso   1.00
C278   C     0.59531   0.77473   0.43605   0.00000  Uiso   1.00
C279   C     0.56587   0.78396   0.35378   0.00000  Uiso   1.00
C280   C     0.54876   0.74606   0.29970   0.00000  Uiso   1.00
C281   C     0.51177   0.69678   0.18759   0.00000  Uiso   1.00
C282   C     0.60354   0.79864   0.61555   0.00000  Uiso   1.00
C283   C     0.58103   0.82798   0.68420   0.00000  Uiso   1.00
C284   C     0.57085   0.81020   0.78123   0.00000  Uiso   1.00
C285   C     0.54668   0.79805   0.94782   0.00000  Uiso   1.00
C286   C     0.67002   0.80203   0.49965   0.00000  Uiso   1.00
C287   C     0.70342   0.83420   0.47088   0.00000  Uiso   1.00
C288   C     0.74922   0.81928   0.47035   0.00000  Uiso   1.00
C289   C     0.82827   0.81238   0.45699   0.00000  Uiso   1.00
C290   C     0.63989   0.72721   0.55587   0.00000  Uiso   1.00
C291   C     0.60722   0.72926   0.46336   0.00000  Uiso   1.00
C292   C     0.59015   0.69133   0.40939   0.00000  Uiso   1.00
C293   C     0.56070   0.70050   0.32704   0.00000  Uiso   1.00
C294   C     0.61546   0.75317   0.64286   0.00000  Uiso   1.00
C295   C     0.60531   0.73535   0.73981   0.00000  Uiso   1.00
C296   C     0.58279   0.76465   0.80859   0.00000  Uiso   1.00
C297   C     0.68194   0.75655   0.52695   0.00000  Uiso   1.00
C298   C     0.72770   0.74158   0.52648   0.00000  Uiso   1.00
C299   C     0.76116   0.77372   0.49771   0.00000  Uiso   1.00
H300   H     0.60866   0.84633   0.48435   0.00000  Uiso   1.00
H301   H     0.55665   0.81916   0.33268   0.00000  Uiso   1.00
H302   H     0.57182   0.86317   0.66305   0.00000  Uiso   1.00
H303   H     0.69418   0.86939   0.44976   0.00000  Uiso   1.00
H304   H     0.50423   0.76898   0.17658   0.00000  Uiso   1.00
H305   H     0.53622   0.86178   0.87321   0.00000  Uiso   1.00
H306   H     0.79425   0.87491   0.42343   0.00000  Uiso   1.00
H307   H     0.64917   0.69180   0.57713   0.00000  Uiso   1.00
H308   H     0.59938   0.65615   0.43053   0.00000  Uiso   1.00
H309   H     0.61454   0.70016   0.76092   0.00000  Uiso   1.00
H310   H     0.73691   0.70638   0.54762   0.00000  Uiso   1.00
H311   H     0.53891   0.63667   0.25601   0.00000  Uiso   1.00
H312   H     0.57090   0.72948   0.95264   0.00000  Uiso   1.00
H313   H     0.82893   0.74260   0.50286   0.00000  Uiso   1.00
O314   O     0.48808   0.68216   0.11821   0.00000  Uiso   1.00
O315   O     0.53005   0.80392   0.03217   0.00000  Uiso   1.00
O316   O     0.86858   0.82114   0.44206   0.00000  Uiso   1.00
N317   N     0.51923   0.74273   0.21538   0.00000  Uiso   1.00
N318   N     0.54913   0.82949   0.86668   0.00000  Uiso   1.00
N319   N     0.79038   0.84177   0.44620   0.00000  Uiso   1.00
N320   N     0.53789   0.67154   0.25812   0.00000  Uiso   1.00
N321   N     0.56779   0.75830   0.90942   0.00000  Uiso   1.00
N322   N     0.80903   0.77058   0.48894   0.00000  Uiso   1.00
C323   C     0.11794   0.31092   0.00560   0.00000  Uiso   1.00
C324   C     0.09531   0.27473   0.93605   0.00000  Uiso   1.00
C325   C     0.06587   0.28396   0.85378   0.00000  Uiso   1.00
C326   C     0.04876   0.24606   0.79970   0.00000  Uiso   1.00
C327   C     0.01177   0.19678   0.68759   0.00000  Uiso   1.00
C328   C     0.10354   0.29864   0.11555   0.00000  Uiso   1.00
C329   C     0.08103   0.32798   0.18420   0.00000  Uiso   1.00
C330   C     0.07085   0.31020   0.28123   0.00000  Uiso   1.00
C331   C     0.04668   0.29805   0.44782   0.00000  Uiso   1.00
C332   C     0.17002   0.30203   0.99965   0.00000  Uiso   1.00
C333   C     0.20342   0.33420   0.97088   0.00000  Uiso   1.00
C334   C     0.24922   0.31928   0.97035   0.00000  Uiso   1.00
C335   C     0.32827   0.31238   0.95699   0.00000  Uiso   1.00
C336   C     0.13989   0.22721   0.05587   0.00000  Uiso   1.00
C337   C     0.10722   0.22926   0.96336   0.00000  Uiso   1.00
C338   C     0.09015   0.19133   0.90939   0.00000  Uiso   1.00
C339   C     0.06070   0.20050   0.82704   0.00000  Uiso   1.00
C340   C     0.11546   0.25317   0.14286   0.00000  Uiso   1.00
C341   C     0.10531   0.23535   0.23981   0.00000  Uiso   1.00
C342   C     0.08279   0.26465   0.30859   0.00000  Uiso   1.00
C343   C     0.18194   0.25655   0.02695   0.00000  Uiso   1.00
C344   C     0.22770   0.24158   0.02648   0.00000  Uiso   1.00
C345   C     0.26116   0.27372   0.99771   0.00000  Uiso   1.00
H346   H     0.10866   0.34633   0.98435   0.00000  Uiso   1.00
H347   H     0.05665   0.31916   0.83268   0.00000  Uiso   1.00
H348   H     0.07182   0.36317   0.16305   0.00000  Uiso   1.00
H349   H     0.19418   0.36939   0.94976   0.00000  Uiso   1.00
H350   H     0.00423   0.26898   0.67658   0.00000  Uiso   1.00
H351   H     0.03622   0.36178   0.37321   0.00000  Uiso   1.00
H352   H     0.29425   0.37491   0.92343   0.00000  Uiso   1.00
H353   H     0.14917   0.19180   0.07713   0.00000  Uiso   1.00
H354   H     0.09938   0.15615   0.93053   0.00000  Uiso   1.00
H355   H     0.11454   0.20016   0.26092   0.00000  Uiso   1.00
H356   H     0.23691   0.20638   0.04762   0.00000  Uiso   1.00
H357   H     0.03891   0.13667   0.75601   0.00000  Uiso   1.00
H358   H     0.07090   0.22948   0.45264   0.00000  Uiso   1.00
H359   H     0.32893   0.24260   0.00286   0.00000  Uiso   1.00
O360   O     0.98808   0.18216   0.61821   0.00000  Uiso   1.00
O361   O     0.03005   0.30392   0.53217   0.00000  Uiso   1.00
O362   O     0.36858   0.32114   0.94206   0.00000  Uiso   1.00
N363   N     0.01923   0.24273   0.71538   0.00000  Uiso   1.00
N364   N     0.04913   0.32949   0.36668   0.00000  Uiso   1.00
N365   N     0.29038   0.34177   0.94620   0.00000  Uiso   1.00
N366   N     0.03789   0.17154   0.75812   0.00000  Uiso   1.00
N367   N     0.06779   0.25830   0.40942   0.00000  Uiso   1.00
N368   N     0.30903   0.27058   0.98894   0.00000  Uiso   1.00
C369   C     0.18908   0.88206   0.25560   0.00000  Uiso   1.00
C370   C     0.22527   0.90469   0.18605   0.00000  Uiso   1.00
C371   C     0.21604   0.93413   0.10378   0.00000  Uiso   1.00
C372   C     0.25394   0.95124   0.04970   0.00000  Uiso   1.00
C373   C     0.30322   0.98823   0.93759   0.00000  Uiso   1.00
C374   C     0.20136   0.89646   0.36555   0.00000  Uiso   1.00
C375   C     0.17202   0.91897   0.43420   0.00000  Uiso   1.00
C376   C     0.18980   0.92915   0.53123   0.00000  Uiso   1.00
C377   C     0.20195   0.95332   0.69782   0.00000  Uiso   1.00
C378   C     0.19797   0.82998   0.24965   0.00000  Uiso   1.00
C379   C     0.16580   0.79658   0.22088   0.00000  Uiso   1.00
C380   C     0.18072   0.75078   0.22035   0.00000  Uiso   1.00
C381   C     0.18762   0.67173   0.20699   0.00000  Uiso   1.00
C382   C     0.27279   0.86011   0.30587   0.00000  Uiso   1.00
C383   C     0.27074   0.89278   0.21336   0.00000  Uiso   1.00
C384   C     0.30867   0.90985   0.15939   0.00000  Uiso   1.00
C385   C     0.29950   0.93930   0.07704   0.00000  Uiso   1.00
C386   C     0.24683   0.88454   0.39286   0.00000  Uiso   1.00
C387   C     0.26465   0.89469   0.48981   0.00000  Uiso   1.00
C388   C     0.23535   0.91721   0.55859   0.00000  Uiso   1.00
C389   C     0.24345   0.81806   0.27695   0.00000  Uiso   1.00
C390   C     0.25842   0.77230   0.27648   0.00000  Uiso   1.00
C391   C     0.22628   0.73884   0.24771   0.00000  Uiso   1.00
H392   H     0.15367   0.89134   0.23435   0.00000  Uiso   1.00
H393   H     0.18084   0.94335   0.08268   0.00000  Uiso   1.00
H394   H     0.13683   0.92818   0.41305   0.00000  Uiso   1.00
H395   H     0.13061   0.80582   0.19976   0.00000  Uiso   1.00
H396   H     0.23102   0.99577   0.92658   0.00000  Uiso   1.00
H397   H     0.13822   0.96378   0.62321   0.00000  Uiso   1.00
H398   H     0.12509   0.70575   0.17343   0.00000  Uiso   1.00
H399   H     0.30820   0.85083   0.32713   0.00000  Uiso   1.00
H400   H     0.34385   0.90062   0.18053   0.00000  Uiso   1.00
H401   H     0.29984   0.88546   0.51092   0.00000  Uiso   1.00
H402   H     0.29362   0.76309   0.29762   0.00000  Uiso   1.00
H403   H     0.36333   0.96109   0.00601   0.00000  Uiso   1.00
H404   H     0.27052   0.92910   0.70264   0.00000  Uiso   1.00
H405   H     0.25740   0.67107   0.25286   0.00000  Uiso   1.00
O406   O     0.31784   0.01192   0.86821   0.00000  Uiso   1.00
O407   O     0.19608   0.96995   0.78217   0.00000  Uiso   1.00
O408   O     0.17886   0.63142   0.19206   0.00000  Uiso   1.00
N409   N     0.25727   0.98077   0.96538   0.00000  Uiso   1.00
N410   N     0.17051   0.95087   0.61668   0.00000  Uiso   1.00
N411   N     0.15823   0.70962   0.19620   0.00000  Uiso   1.00
N412   N     0.32846   0.96211   0.00812   0.00000  Uiso   1.00
N413   N     0.24170   0.93221   0.65942   0.00000  Uiso   1.00
N414   N     0.22942   0.69097   0.23894   0.00000  Uiso   1.00
C415   C     0.68908   0.38206   0.75560   0.00000  Uiso   1.00
C416   C     0.72527   0.40469   0.68605   0.00000  Uiso   1.00
C417   C     0.71604   0.43413   0.60378   0.00000  Uiso   1.00
C418   C     0.75394   0.45124   0.54970   0.00000  Uiso   1.00
C419   C     0.80322   0.48823   0.43759   0.00000  Uiso   1.00
C420   C     0.70136   0.39646   0.86555   0.00000  Uiso   1.00
C421   C     0.67202   0.41897   0.93420   0.00000  Uiso   1.00
C422   C     0.68980   0.42915   0.03123   0.00000  Uiso   1.00
C423   C     0.70195   0.45332   0.19782   0.00000  Uiso   1.00
C424   C     0.69797   0.32998   0.74965   0.00000  Uiso   1.00
C425   C     0.66580   0.29658   0.72088   0.00000  Uiso   1.00
C426   C     0.68072   0.25078   0.72035   0.00000  Uiso   1.00
C427   C     0.68762   0.17173   0.70699   0.00000  Uiso   1.00
C428   C     0.77279   0.36011   0.80587   0.00000  Uiso   1.00
C429   C     0.77074   0.39278   0.71336   0.00000  Uiso   1.00
C430   C     0.80867   0.40985   0.65939   0.00000  Uiso   1.00
C431   C     0.79950   0.43930   0.57704   0.00000  Uiso   1.00
C432   C     0.74683   0.38454   0.89286   0.00000  Uiso   1.00
C433   C     0.76465   0.39469   0.98981   0.00000  Uiso   1.00
C434   C     0.73535   0.41721   0.05859   0.00000  Uiso   1.00
C435   C     0.74345   0.31806   0.77695   0.00000  Uiso   1.00
C436   C     0.75842   0.27230   0.77648   0.00000  Uiso   1.00
C437   C     0.72628   0.23884   0.74771   0.00000  Uiso   1.00
H438   H     0.65367   0.39134   0.73435   0.00000  Uiso   1.00
H439   H     0.68084   0.44335   0.58268   0.00000  Uiso   1.00
H440   H     0.63683   0.42818   0.91305   0.00000  Uiso   1.00
H441   H     0.63061   0.30582   0.69976   0.00000  Uiso   1.00
H442   H     0.73102   0.49577   0.42658   0.00000  Uiso   1.00
H443   H     0.63822   0.46378   0.12321   0.00000  Uiso   1.00
H444   H     0.62509   0.20575   0.67343   0.00000  Uiso   1.00
H445   H     0.80820   0.35083   0.82713   0.00000  Uiso   1.00
H446   H     0.84385   0.40062   0.68053   0.00000  Uiso   1.00
H447   H     0.79984   0.38546   0.01092   0.00000  Uiso   1.00
H448   H     0.79362   0.26309   0.79762   0.00000  Uiso   1.00
H449   H     0.86333   0.46109   0.50601   0.00000  Uiso   1.00
H450   H     0.77052   0.42910   0.20264   0.00000  Uiso   1.00
H451   H     0.75740   0.17107   0.75286   0.00000  Uiso   1.00
O452   O     0.81784   0.51192   0.36821   0.00000  Uiso   1.00
O453   O     0.69608   0.46995   0.28217   0.00000  Uiso   1.00
O454   O     0.67886   0.13142   0.69206   0.00000  Uiso   1.00
N455   N     0.75727   0.48077   0.46538   0.00000  Uiso   1.00
N456   N     0.67051   0.45087   0.11668   0.00000  Uiso   1.00
N457   N     0.65823   0.20962   0.69620   0.00000  Uiso   1.00
N458   N     0.82846   0.46211   0.50812   0.00000  Uiso   1.00
N459   N     0.74170   0.43221   0.15942   0.00000  Uiso   1.00
N460   N     0.72942   0.19097   0.73894   0.00000  Uiso   1.00
C461   C     0.31092   0.61794   0.75560   0.00000  Uiso   1.00
C462   C     0.27473   0.59531   0.68605   0.00000  Uiso   1.00
C463   C     0.28396   0.56587   0.60378   0.00000  Uiso   1.00
C464   C     0.24606   0.54876   0.54970   0.00000  Uiso   1.00
C465   C     0.19678   0.51177   0.43759   0.00000  Uiso   1.00
C466   C     0.29864   0.60354   0.86555   0.00000  Uiso   1.00
C467   C     0.32798   0.58103   0.93420   0.00000  Uiso   1.00
C468   C     0.31020   0.57085   0.03123   0.00000  Uiso   1.00
C469   C     0.29805   0.54668   0.19782   0.00000  Uiso   1.00
C470   C     0.30203   0.67002   0.74965   0.00000  Uiso   1.00
C471   C     0.33420   0.70342   0.72088   0.00000  Uiso   1.00
C472   C     0.31928   0.74922   0.72035   0.00000  Uiso   1.00
C473   C     0.31238   0.82827   0.70699   0.00000  Uiso   1.00
C474   C     0.22721   0.63989   0.80587   0.00000  Uiso   1.00
C475   C     0.22926   0.60722   0.71336   0.00000  Uiso   1.00
C476   C     0.19133   0.59015   0.65939   0.00000  Uiso   1.00
C477   C     0.20050   0.56070   0.57704   0.00000  Uiso   1.00
C478   C     0.25317   0.61546   0.89286   0.00000  Uiso   1.00
C479   C     0.23535   0.60531   0.98981   0.00000  Uiso   1.00
C480   C     0.26465   0.58279   0.05859   0.00000  Uiso   1.00
C481   C     0.25655   0.68194   0.77695   0.00000  Uiso   1.00
C482   C     0.24158   0.72770   0.77648   0.00000  Uiso   1.00
C483   C     0.27372   0.76116   0.74771   0.00000  Uiso   1.00
H484   H     0.34633   0.60866   0.73435   0.00000  Uiso   1.00
H485   H     0.31916   0.55665   0.58268   0.00000  Uiso   1.00
H486   H     0.36317   0.57182   0.91305   0.00000  Uiso   1.00
H487   H     0.36939   0.69418   0.69976   0.00000  Uiso   1.00
H488   H     0.26898   0.50423   0.42658   0.00000  Uiso   1.00
H489   H     0.36178   0.53622   0.12321   0.00000  Uiso   1.00
H490   H     0.37491   0.79425   0.67343   0.00000  Uiso   1.00
H491   H     0.19180   0.64917   0.82713   0.00000  Uiso   1.00
H492   H     0.15615   0.59938   0.68053   0.00000  Uiso   1.00
H493   H     0.20016   0.61454   0.01092   0.00000  Uiso   1.00
H494   H     0.20638   0.73691   0.79762   0.00000  Uiso   1.00
H495   H     0.13667   0.53891   0.50601   0.00000  Uiso   1.00
H496   H     0.22948   0.57090   0.20264   0.00000  Uiso   1.00
H497   H     0.24260   0.82893   0.75286   0.00000  Uiso   1.00
O498   O     0.18216   0.48808   0.36821   0.00000  Uiso   1.00
O499   O     0.30392   0.53005   0.28217   0.00000  Uiso   1.00
O500   O     0.32114   0.86858   0.69206   0.00000  Uiso   1.00
N501   N     0.24273   0.51923   0.46538   0.00000  Uiso   1.00
N502   N     0.32949   0.54913   0.11668   0.00000  Uiso   1.00
N503   N     0.34177   0.79038   0.69620   0.00000  Uiso   1.00
N504   N     0.17154   0.53789   0.50812   0.00000  Uiso   1.00
N505   N     0.25830   0.56779   0.15942   0.00000  Uiso   1.00
N506   N     0.27058   0.80903   0.73894   0.00000  Uiso   1.00
C507   C     0.81092   0.11794   0.25560   0.00000  Uiso   1.00
C508   C     0.77473   0.09531   0.18605   0.00000  Uiso   1.00
C509   C     0.78396   0.06587   0.10378   0.00000  Uiso   1.00
C510   C     0.74606   0.04876   0.04970   0.00000  Uiso   1.00
C511   C     0.69678   0.01177   0.93759   0.00000  Uiso   1.00
C512   C     0.79864   0.10354   0.36555   0.00000  Uiso   1.00
C513   C     0.82798   0.08103   0.43420   0.00000  Uiso   1.00
C514   C     0.81020   0.07085   0.53123   0.00000  Uiso   1.00
C515   C     0.79805   0.04668   0.69782   0.00000  Uiso   1.00
C516   C     0.80203   0.17002   0.24965   0.00000  Uiso   1.00
C517   C     0.83420   0.20342   0.22088   0.00000  Uiso   1.00
C518   C     0.81928   0.24922   0.22035   0.00000  Uiso   1.00
C519   C     0.81238   0.32827   0.20699   0.00000  Uiso   1.00
C520   C     0.72721   0.13989   0.30587   0.00000  Uiso   1.00
C521   C     0.72926   0.10722   0.21336   0.00000  Uiso   1.00
C522   C     0.69133   0.09015   0.15939   0.00000  Uiso   1.00
C523   C     0.70050   0.06070   0.07704   0.00000  Uiso   1.00
C524   C     0.75317   0.11546   0.39286   0.00000  Uiso   1.00
C525   C     0.73535   0.10531   0.48981   0.00000  Uiso   1.00
C526   C     0.76465   0.08279   0.55859   0.00000  Uiso   1.00
C527   C     0.75655   0.18194   0.27695   0.00000  Uiso   1.00
C528   C     0.74158   0.22770   0.27648   0.00000  Uiso   1.00
C529   C     0.77372   0.26116   0.24771   0.00000  Uiso   1.00
H530   H     0.84633   0.10866   0.23435   0.00000  Uiso   1.00
H531   H     0.81916   0.05665   0.08268   0.00000  Uiso   1.00
H532   H     0.86317   0.07182   0.41305   0.00000  Uiso   1.00
H533   H     0.86939   0.19418   0.19976   0.00000  Uiso   1.00
H534   H     0.76898   0.00423   0.92658   0.00000  Uiso   1.00
H535   H     0.86178   0.03622   0.62321   0.00000  Uiso   1.00
H536   H     0.87491   0.29425   0.17343   0.00000  Uiso   1.00
H537   H     0.69180   0.14917   0.32713   0.00000  Uiso   1.00
H538   H     0.65615   0.09938   0.18053   0.00000  Uiso   1.00
H539   H     0.70016   0.11454   0.51092   0.00000  Uiso   1.00
H540   H     0.70638   0.23691   0.29762   0.00000  Uiso   1.00
H541   H     0.63667   0.03891   0.00601   0.00000  Uiso   1.00
H542   H     0.72948   0.07090   0.70264   0.00000  Uiso   1.00
H543   H     0.74260   0.32893   0.25286   0.00000  Uiso   1.00
O544   O     0.68216   0.98808   0.86821   0.00000  Uiso   1.00
O545   O     0.80392   0.03005   0.78217   0.00000  Uiso   1.00
O546   O     0.82114   0.36858   0.19206   0.00000  Uiso   1.00
N547   N     0.74273   0.01923   0.96538   0.00000  Uiso   1.00
N548   N     0.82949   0.04913   0.61668   0.00000  Uiso   1.00
N549   N     0.84177   0.29038   0.19620   0.00000  Uiso   1.00
N550   N     0.67154   0.03789   0.00812   0.00000  Uiso   1.00
N551   N     0.75830   0.06779   0.65942   0.00000  Uiso   1.00
N552   N     0.77058   0.30903   0.23894   0.00000  Uiso   1.00
C553   C     0.88206   0.31092   0.50560   0.00000  Uiso   1.00
C554   C     0.90469   0.27473   0.43605   0.00000  Uiso   1.00
C555   C     0.93413   0.28396   0.35378   0.00000  Uiso   1.00
C556   C     0.95124   0.24606   0.29970   0.00000  Uiso   1.00
C557   C     0.98823   0.19678   0.18759   0.00000  Uiso   1.00
C558   C     0.89646   0.29864   0.61555   0.00000  Uiso   1.00
C559   C     0.91897   0.32798   0.68420   0.00000  Uiso   1.00
C560   C     0.92915   0.31020   0.78123   0.00000  Uiso   1.00
C561   C     0.95332   0.29805   0.94782   0.00000  Uiso   1.00
C562   C     0.82998   0.30203   0.49965   0.00000  Uiso   1.00
C563   C     0.79658   0.33420   0.47088   0.00000  Uiso   1.00
C564   C     0.75078   0.31928   0.47035   0.00000  Uiso   1.00
C565   C     0.67173   0.31238   0.45699   0.00000  Uiso   1.00
C566   C     0.86011   0.22721   0.55587   0.00000  Uiso   1.00
C567   C     0.89278   0.22926   0.46336   0.00000  Uiso   1.00
C568   C     0.90985   0.19133   0.40939   0.00000  Uiso   1.00
C569   C     0.93930   0.20050   0.32704   0.00000  Uiso   1.00
C570   C     0.88454   0.25317   0.64286   0.00000  Uiso   1.00
C571   C     0.89469   0.23535   0.73981   0.00000  Uiso   1.00
C572   C     0.91721   0.26465   0.80859   0.00000  Uiso   1.00
C573   C     0.81806   0.25655   0.52695   0.00000  Uiso   1.00
C574   C     0.77230   0.24158   0.52648   0.00000  Uiso   1.00
C575   C     0.73884   0.27372   0.49771   0.00000  Uiso   1.00
H576   H     0.89134   0.34633   0.48435   0.00000  Uiso   1.00
H577   H     0.94335   0.31916   0.33268   0.00000  Uiso   1.00
H578   H     0.92818   0.36317   0.66305   0.00000  Uiso   1.00
H579   H     0.80582   0.36939   0.44976   0.00000  Uiso   1.00
H580   H     0.99577   0.26898   0.17658   0.00000  Uiso   1.00
H581   H     0.96378   0.36178   0.87321   0.00000  Uiso   1.00
H582   H     0.70575   0.37491   0.42343   0.00000  Uiso   1.00
H583   H     0.85083   0.19180   0.57713   0.00000  Uiso   1.00
H584   H     0.90062   0.15615   0.43053   0.00000  Uiso   1.00
H585   H     0.88546   0.20016   0.76092   0.00000  Uiso   1.00
H586   H     0.76309   0.20638   0.54762   0.00000  Uiso   1.00
H587   H     0.96109   0.13667   0.25601   0.00000  Uiso   1.00
H588   H     0.92910   0.22948   0.95264   0.00000  Uiso   1.00
H589   H     0.67107   0.24260   0.50286   0.00000  Uiso   1.00
O590   O     0.01192   0.18216   0.11821   0.00000  Uiso   1.00
O591   O     0.96995   0.30392   0.03217   0.00000  Uiso   1.00
O592   O     0.63142   0.32114   0.44206   0.00000  Uiso   1.00
N593   N     0.98077   0.24273   0.21538   0.00000  Uiso   1.00
N594   N     0.95087   0.32949   0.86668   0.00000  Uiso   1.00
N595   N     0.70962   0.34177   0.44620   0.00000  Uiso   1.00
N596   N     0.96211   0.17154   0.25812   0.00000  Uiso   1.00
N597   N     0.93221   0.25830   0.90942   0.00000  Uiso   1.00
N598   N     0.69097   0.27058   0.48894   0.00000  Uiso   1.00
C599   C     0.38206   0.81092   0.00560   0.00000  Uiso   1.00
C600   C     0.40469   0.77473   0.93605   0.00000  Uiso   1.00
C601   C     0.43413   0.78396   0.85378   0.00000  Uiso   1.00
C602   C     0.45124   0.74606   0.79970   0.00000  Uiso   1.00
C603   C     0.48823   0.69678   0.68759   0.00000  Uiso   1.00
C604   C     0.39646   0.79864   0.11555   0.00000  Uiso   1.00
C605   C     0.41897   0.82798   0.18420   0.00000  Uiso   1.00
C606   C     0.42915   0.81020   0.28123   0.00000  Uiso   1.00
C607   C     0.45332   0.79805   0.44782   0.00000  Uiso   1.00
C608   C     0.32998   0.80203   0.99965   0.00000  Uiso   1.00
C609   C     0.29658   0.83420   0.97088   0.00000  Uiso   1.00
C610   C     0.25078   0.81928   0.97035   0.00000  Uiso   1.00
C611   C     0.17173   0.81238   0.95699   0.00000  Uiso   1.00
C612   C     0.36011   0.72721   0.05587   0.00000  Uiso   1.00
C613   C     0.39278   0.72926   0.96336   0.00000  Uiso   1.00
C614   C     0.40985   0.69133   0.90939   0.00000  Uiso   1.00
C615   C     0.43930   0.70050   0.82704   0.00000  Uiso   1.00
C616   C     0.38454   0.75317   0.14286   0.00000  Uiso   1.00
C617   C     0.39469   0.73535   0.23981   0.00000  Uiso   1.00
C618   C     0.41721   0.76465   0.30859   0.00000  Uiso   1.00
C619   C     0.31806   0.75655   0.02695   0.00000  Uiso   1.00
C620   C     0.27230   0.74158   0.02648   0.00000  Uiso   1.00
C621   C     0.23884   0.77372   0.99771   0.00000  Uiso   1.00
H622   H     0.39134   0.84633   0.98435   0.00000  Uiso   1.00
H623   H     0.44335   0.81916   0.83268   0.00000  Uiso   1.00
H624   H     0.42818   0.86317   0.16305   0.00000  Uiso   1.00
H625   H     0.30582   0.86939   0.94976   0.00000  Uiso   1.00
H626   H     0.49577   0.76898   0.67658   0.00000  Uiso   1.00
H627   H     0.46378   0.86178   0.37321   0.00000  Uiso   1.00
H628   H     0.20575   0.87491   0.92343   0.00000  Uiso   1.00
H629   H     0.35083   0.69180   0.07713   0.00000  Uiso   1.00
H630   H     0.40062   0.65615   0.93053   0.00000  Uiso   1.00
H631   H     0.38546   0.70016   0.26092   0.00000  Uiso   1.00
H632   H     0.26309   0.70638   0.04762   0.00000  Uiso   1.00
H633   H     0.46109   0.63667   0.75601   0.00000  Uiso   1.00
H634   H     0.42910   0.72948   0.45264   0.00000  Uiso   1.00
H635   H     0.17107   0.74260   0.00286   0.00000  Uiso   1.00
O636   O     0.51192   0.68216   0.61821   0.00000  Uiso   1.00
O637   O     0.46995   0.80392   0.53217   0.00000  Uiso   1.00
O638   O     0.13142   0.82114   0.94206   0.00000  Uiso   1.00
N639   N     0.48077   0.74273   0.71538   0.00000  Uiso   1.00
N640   N     0.45087   0.82949   0.36668   0.00000  Uiso   1.00
N641   N     0.20962   0.84177   0.94620   0.00000  Uiso   1.00
N642   N     0.46211   0.67154   0.75812   0.00000  Uiso   1.00
N643   N     0.43221   0.75830   0.40942   0.00000  Uiso   1.00
N644   N     0.19097   0.77058   0.98894   0.00000  Uiso   1.00
C645   C     0.61794   0.18908   0.00560   0.00000  Uiso   1.00
C646   C     0.59531   0.22527   0.93605   0.00000  Uiso   1.00
C647   C     0.56587   0.21604   0.85378   0.00000  Uiso   1.00
C648   C     0.54876   0.25394   0.79970   0.00000  Uiso   1.00
C649   C     0.51177   0.30322   0.68759   0.00000  Uiso   1.00
C650   C     0.60354   0.20136   0.11555   0.00000  Uiso   1.00
C651   C     0.58103   0.17202   0.18420   0.00000  Uiso   1.00
C652   C     0.57085   0.18980   0.28123   0.00000  Uiso   1.00
C653   C     0.54668   0.20195   0.44782   0.00000  Uiso   1.00
C654   C     0.67002   0.19797   0.99965   0.00000  Uiso   1.00
C655   C     0.70342   0.16580   0.97088   0.00000  Uiso   1.00
C656   C     0.74922   0.18072   0.97035   0.00000  Uiso   1.00
C657   C     0.82827   0.18762   0.95699   0.00000  Uiso   1.00
C658   C     0.63989   0.27279   0.05587   0.00000  Uiso   1.00
C659   C     0.60722   0.27074   0.96336   0.00000  Uiso   1.00
C660   C     0.59015   0.30867   0.90939   0.00000  Uiso   1.00
C661   C     0.56070   0.29950   0.82704   0.00000  Uiso   1.00
C662   C     0.61546   0.24683   0.14286   0.00000  Uiso   1.00
C663   C     0.60531   0.26465   0.23981   0.00000  Uiso   1.00
C664   C     0.58279   0.23535   0.30859   0.00000  Uiso   1.00
C665   C     0.68194   0.24345   0.02695   0.00000  Uiso   1.00
C666   C     0.72770   0.25842   0.02648   0.00000  Uiso   1.00
C667   C     0.76116   0.22628   0.99771   0.00000  Uiso   1.00
H668   H     0.60866   0.15367   0.98435   0.00000  Uiso   1.00
H669   H     0.55665   0.18084   0.83268   0.00000  Uiso   1.00
H670   H     0.57182   0.13683   0.16305   0.00000  Uiso   1.00
H671   H     0.69418   0.13061   0.94976   0.00000  Uiso   1.00
H672   H     0.50423   0.23102   0.67658   0.00000  Uiso   1.00
H673   H     0.53622   0.13822   0.37321   0.00000  Uiso   1.00
H674   H     0.79425   0.12509   0.92343   0.00000  Uiso   1.00
H675   H     0.64917   0.30820   0.07713   0.00000  Uiso   1.00
H676   H     0.59938   0.34385   0.93053   0.00000  Uiso   1.00
H677   H     0.61454   0.29984   0.26092   0.00000  Uiso   1.00
H678   H     0.73691   0.29362   0.04762   0.00000  Uiso   1.00
H679   H     0.53891   0.36333   0.75601   0.00000  Uiso   1.00
H680   H     0.57090   0.27052   0.45264   0.00000  Uiso   1.00
H681   H     0.82893   0.25740   0.00286   0.00000  Uiso   1.00
O682   O     0.48808   0.31784   0.61821   0.00000  Uiso   1.00
O683   O     0.53005   0.19608   0.53217   0.00000  Uiso   1.00
O684   O     0.86858   0.17886   0.94206   0.00000  Uiso   1.00
N685   N     0.51923   0.25727   0.71538   0.00000  Uiso   1.00
N686   N     0.54913   0.17051   0.36668   0.00000  Uiso   1.00
N687   N     0.79038   0.15823   0.94620   0.00000  Uiso   1.00
N688   N     0.53789   0.32846   0.75812   0.00000  Uiso   1.00
N689   N     0.56779   0.24170   0.40942   0.00000  Uiso   1.00
N690   N     0.80903   0.22942   0.98894   0.00000  Uiso   1.00
C691   C     0.11794   0.68908   0.50560   0.00000  Uiso   1.00
C692   C     0.09531   0.72527   0.43605   0.00000  Uiso   1.00
C693   C     0.06587   0.71604   0.35378   0.00000  Uiso   1.00
C694   C     0.04876   0.75394   0.29970   0.00000  Uiso   1.00
C695   C     0.01177   0.80322   0.18759   0.00000  Uiso   1.00
C696   C     0.10354   0.70136   0.61555   0.00000  Uiso   1.00
C697   C     0.08103   0.67202   0.68420   0.00000  Uiso   1.00
C698   C     0.07085   0.68980   0.78123   0.00000  Uiso   1.00
C699   C     0.04668   0.70195   0.94782   0.00000  Uiso   1.00
C700   C     0.17002   0.69797   0.49965   0.00000  Uiso   1.00
C701   C     0.20342   0.66580   0.47088   0.00000  Uiso   1.00
C702   C     0.24922   0.68072   0.47035   0.00000  Uiso   1.00
C703   C     0.32827   0.68762   0.45699   0.00000  Uiso   1.00
C704   C     0.13989   0.77279   0.55587   0.00000  Uiso   1.00
C705   C     0.10722   0.77074   0.46336   0.00000  Uiso   1.00
C706   C     0.09015   0.80867   0.40939   0.00000  Uiso   1.00
C707   C     0.06070   0.79950   0.32704   0.00000  Uiso   1.00
C708   C     0.11546   0.74683   0.64286   0.00000  Uiso   1.00
C709   C     0.10531   0.76465   0.73981   0.00000  Uiso   1.00
C710   C     0.08279   0.73535   0.80859   0.00000  Uiso   1.00
C711   C     0.18194   0.74345   0.52695   0.00000  Uiso   1.00
C712   C     0.22770   0.75842   0.52648   0.00000  Uiso   1.00
C713   C     0.26116   0.72628   0.49771   0.00000  Uiso   1.00
H714   H     0.10866   0.65367   0.48435   0.00000  Uiso   1.00
H715   H     0.05665   0.68084   0.33268   0.00000  Uiso   1.00
H716   H     0.07182   0.63683   0.66305   0.00000  Uiso   1.00
H717   H     0.19418   0.63061   0.44976   0.00000  Uiso   1.00
H718   H     0.00423   0.73102   0.17658   0.00000  Uiso   1.00
H719   H     0.03622   0.63822   0.87321   0.00000  Uiso   1.00
H720   H     0.29425   0.62509   0.42343   0.00000  Uiso   1.00
H721   H     0.14917   0.80820   0.57713   0.00000  Uiso   1.00
H722   H     0.09938   0.84385   0.43053   0.00000  Uiso   1.00
H723   H     0.11454   0.79984   0.76092   0.00000  Uiso   1.00
H724   H     0.23691   0.79362   0.54762   0.00000  Uiso   1.00
H725   H     0.03891   0.86333   0.25601   0.00000  Uiso   1.00
H726   H     0.07090   0.77052   0.95264   0.00000  Uiso   1.00
H727   H     0.32893   0.75740   0.50286   0.00000  Uiso   1.00
O728   O     0.98808   0.81784   0.11821   0.00000  Uiso   1.00
O729   O     0.03005   0.69608   0.03217   0.00000  Uiso   1.00
O730   O     0.36858   0.67886   0.44206   0.00000  Uiso   1.00
N731   N     0.01923   0.75727   0.21538   0.00000  Uiso   1.00
N732   N     0.04913   0.67051   0.86668   0.00000  Uiso   1.00
N733   N     0.29038   0.65823   0.44620   0.00000  Uiso   1.00
N734   N     0.03789   0.82846   0.25812   0.00000  Uiso   1.00
N735   N     0.06779   0.74170   0.90942   0.00000  Uiso   1.00
N736   N     0.30903   0.72942   0.48894   0.00000  Uiso   1.00
