data_job_02444
_audit_creation_date              2018-12-19
_audit_creation_method            'Materials Studio'
_symmetry_space_group_name_H-M    'P1'
_symmetry_Int_Tables_number       1
_symmetry_cell_setting            triclinic
loop_
_symmetry_equiv_pos_as_xyz
  x,y,z
_cell_length_a                    20.1622
_cell_length_b                    20.1622
_cell_length_c                    24.7561
_cell_angle_alpha                 90.0000
_cell_angle_beta                  90.0000
_cell_angle_gamma                 90.0000
loop_
_atom_site_label
_atom_site_type_symbol
_atom_site_fract_x
_atom_site_fract_y
_atom_site_fract_z
_atom_site_U_iso_or_equiv
_atom_site_adp_type
_atom_site_occupancy
C1     C     0.00415   0.80401   0.13095   0.00000  Uiso   1.00
C2     C     0.95124   0.82204   0.08945   0.00000  Uiso   1.00
C3     C     0.88572   0.83783   0.10082   0.00000  Uiso   1.00
C4     C     0.84512   0.85288   0.05721   0.00000  Uiso   1.00
C5     C     0.75929   0.88095   0.00084   0.00000  Uiso   1.00
C6     C     0.03071   0.73624   0.11421   0.00000  Uiso   1.00
C7     C     0.03201   0.67990   0.14640   0.00000  Uiso   1.00
C8     C     0.05833   0.62273   0.12363   0.00000  Uiso   1.00
C9     C     0.09593   0.51762   0.10571   0.00000  Uiso   1.00
C10    C     0.06093   0.85282   0.12227   0.00000  Uiso   1.00
C11    C     0.08765   0.89448   0.16123   0.00000  Uiso   1.00
C12    C     0.13941   0.93544   0.14525   0.00000  Uiso   1.00
C13    C     0.22392   0.01133   0.13985   0.00000  Uiso   1.00
C14    C     0.04857   0.80267   0.03330   0.00000  Uiso   1.00
C15    C     0.97538   0.82131   0.03641   0.00000  Uiso   1.00
C16    C     0.93487   0.83635   0.99277   0.00000  Uiso   1.00
C17    C     0.86929   0.85215   0.00407   0.00000  Uiso   1.00
C18    C     0.05484   0.73552   0.06117   0.00000  Uiso   1.00
C19    C     0.08117   0.67842   0.03835   0.00000  Uiso   1.00
C20    C     0.08250   0.62200   0.07049   0.00000  Uiso   1.00
C21    C     0.08506   0.85209   0.06923   0.00000  Uiso   1.00
C22    C     0.13679   0.89300   0.05319   0.00000  Uiso   1.00
C23    C     0.16358   0.93471   0.09212   0.00000  Uiso   1.00
H24    H     0.98536   0.80457   0.17225   0.00000  Uiso   1.00
H25    H     0.86706   0.83838   0.14187   0.00000  Uiso   1.00
H26    H     0.01334   0.68048   0.18744   0.00000  Uiso   1.00
H27    H     0.06896   0.89503   0.20228   0.00000  Uiso   1.00
H28    H     0.74653   0.87551   0.08480   0.00000  Uiso   1.00
H29    H     0.05500   0.54258   0.18090   0.00000  Uiso   1.00
H30    H     0.17228   0.99499   0.21218   0.00000  Uiso   1.00
H31    H     0.06736   0.80210   0.99200   0.00000  Uiso   1.00
H32    H     0.95356   0.83578   0.95173   0.00000  Uiso   1.00
H33    H     0.09984   0.67787   0.99730   0.00000  Uiso   1.00
H34    H     0.15546   0.89242   0.01214   0.00000  Uiso   1.00
H35    H     0.81674   0.87340   0.93047   0.00000  Uiso   1.00
H36    H     0.12520   0.54046   0.02657   0.00000  Uiso   1.00
H37    H     0.24249   0.99288   0.05785   0.00000  Uiso   1.00
O38    O     0.70528   0.89663   0.98439   0.00000  Uiso   1.00
O39    O     0.10999   0.45984   0.11048   0.00000  Uiso   1.00
O40    O     0.26386   0.05339   0.15152   0.00000  Uiso   1.00
N41    N     0.77868   0.87041   0.05400   0.00000  Uiso   1.00
N42    N     0.06706   0.55913   0.14385   0.00000  Uiso   1.00
N43    N     0.17673   0.98209   0.17310   0.00000  Uiso   1.00
N44    N     0.81645   0.86927   0.97096   0.00000  Uiso   1.00
N45    N     0.10484   0.55799   0.06081   0.00000  Uiso   1.00
N46    N     0.21450   0.98095   0.09006   0.00000  Uiso   1.00
C47    C     0.50415   0.30401   0.63095   0.00000  Uiso   1.00
C48    C     0.45124   0.32204   0.58945   0.00000  Uiso   1.00
C49    C     0.38572   0.33783   0.60082   0.00000  Uiso   1.00
C50    C     0.34512   0.35288   0.55721   0.00000  Uiso   1.00
C51    C     0.25929   0.38095   0.50084   0.00000  Uiso   1.00
C52    C     0.53071   0.23624   0.61421   0.00000  Uiso   1.00
C53    C     0.53201   0.17990   0.64640   0.00000  Uiso   1.00
C54    C     0.55833   0.12273   0.62363   0.00000  Uiso   1.00
C55    C     0.59593   0.01762   0.60571   0.00000  Uiso   1.00
C56    C     0.56093   0.35282   0.62227   0.00000  Uiso   1.00
C57    C     0.58765   0.39448   0.66123   0.00000  Uiso   1.00
C58    C     0.63941   0.43544   0.64525   0.00000  Uiso   1.00
C59    C     0.72392   0.51133   0.63985   0.00000  Uiso   1.00
C60    C     0.54857   0.30267   0.53330   0.00000  Uiso   1.00
C61    C     0.47538   0.32131   0.53641   0.00000  Uiso   1.00
C62    C     0.43487   0.33635   0.49277   0.00000  Uiso   1.00
C63    C     0.36929   0.35215   0.50407   0.00000  Uiso   1.00
C64    C     0.55484   0.23552   0.56117   0.00000  Uiso   1.00
C65    C     0.58117   0.17842   0.53835   0.00000  Uiso   1.00
C66    C     0.58250   0.12200   0.57049   0.00000  Uiso   1.00
C67    C     0.58506   0.35209   0.56923   0.00000  Uiso   1.00
C68    C     0.63679   0.39300   0.55319   0.00000  Uiso   1.00
C69    C     0.66358   0.43471   0.59212   0.00000  Uiso   1.00
H70    H     0.48536   0.30457   0.67225   0.00000  Uiso   1.00
H71    H     0.36706   0.33838   0.64187   0.00000  Uiso   1.00
H72    H     0.51334   0.18048   0.68744   0.00000  Uiso   1.00
H73    H     0.56896   0.39503   0.70228   0.00000  Uiso   1.00
H74    H     0.24653   0.37551   0.58480   0.00000  Uiso   1.00
H75    H     0.55500   0.04258   0.68090   0.00000  Uiso   1.00
H76    H     0.67228   0.49499   0.71218   0.00000  Uiso   1.00
H77    H     0.56736   0.30210   0.49200   0.00000  Uiso   1.00
H78    H     0.45356   0.33578   0.45173   0.00000  Uiso   1.00
H79    H     0.59984   0.17787   0.49730   0.00000  Uiso   1.00
H80    H     0.65546   0.39242   0.51214   0.00000  Uiso   1.00
H81    H     0.31674   0.37340   0.43047   0.00000  Uiso   1.00
H82    H     0.62520   0.04046   0.52657   0.00000  Uiso   1.00
H83    H     0.74249   0.49288   0.55785   0.00000  Uiso   1.00
O84    O     0.20528   0.39663   0.48439   0.00000  Uiso   1.00
O85    O     0.60999   0.95984   0.61048   0.00000  Uiso   1.00
O86    O     0.76386   0.55339   0.65152   0.00000  Uiso   1.00
N87    N     0.27868   0.37041   0.55400   0.00000  Uiso   1.00
N88    N     0.56706   0.05913   0.64385   0.00000  Uiso   1.00
N89    N     0.67673   0.48209   0.67310   0.00000  Uiso   1.00
N90    N     0.31645   0.36927   0.47096   0.00000  Uiso   1.00
N91    N     0.60484   0.05799   0.56081   0.00000  Uiso   1.00
N92    N     0.71450   0.48095   0.59006   0.00000  Uiso   1.00
C93    C     0.49585   0.69599   0.63095   0.00000  Uiso   1.00
C94    C     0.54876   0.67796   0.58945   0.00000  Uiso   1.00
C95    C     0.61428   0.66217   0.60082   0.00000  Uiso   1.00
C96    C     0.65488   0.64712   0.55721   0.00000  Uiso   1.00
C97    C     0.74071   0.61905   0.50084   0.00000  Uiso   1.00
C98    C     0.46929   0.76376   0.61421   0.00000  Uiso   1.00
C99    C     0.46799   0.82010   0.64640   0.00000  Uiso   1.00
C100   C     0.44167   0.87727   0.62363   0.00000  Uiso   1.00
C101   C     0.40407   0.98238   0.60571   0.00000  Uiso   1.00
C102   C     0.43907   0.64718   0.62227   0.00000  Uiso   1.00
C103   C     0.41235   0.60552   0.66123   0.00000  Uiso   1.00
C104   C     0.36059   0.56456   0.64525   0.00000  Uiso   1.00
C105   C     0.27608   0.48867   0.63985   0.00000  Uiso   1.00
C106   C     0.45143   0.69733   0.53330   0.00000  Uiso   1.00
C107   C     0.52462   0.67869   0.53641   0.00000  Uiso   1.00
C108   C     0.56513   0.66365   0.49277   0.00000  Uiso   1.00
C109   C     0.63071   0.64785   0.50407   0.00000  Uiso   1.00
C110   C     0.44516   0.76448   0.56117   0.00000  Uiso   1.00
C111   C     0.41883   0.82158   0.53835   0.00000  Uiso   1.00
C112   C     0.41750   0.87800   0.57049   0.00000  Uiso   1.00
C113   C     0.41494   0.64791   0.56923   0.00000  Uiso   1.00
C114   C     0.36321   0.60700   0.55319   0.00000  Uiso   1.00
C115   C     0.33642   0.56529   0.59212   0.00000  Uiso   1.00
H116   H     0.51464   0.69543   0.67225   0.00000  Uiso   1.00
H117   H     0.63294   0.66162   0.64187   0.00000  Uiso   1.00
H118   H     0.48666   0.81952   0.68744   0.00000  Uiso   1.00
H119   H     0.43104   0.60497   0.70228   0.00000  Uiso   1.00
H120   H     0.75347   0.62449   0.58480   0.00000  Uiso   1.00
H121   H     0.44500   0.95742   0.68090   0.00000  Uiso   1.00
H122   H     0.32772   0.50501   0.71218   0.00000  Uiso   1.00
H123   H     0.43264   0.69790   0.49200   0.00000  Uiso   1.00
H124   H     0.54644   0.66422   0.45173   0.00000  Uiso   1.00
H125   H     0.40016   0.82213   0.49730   0.00000  Uiso   1.00
H126   H     0.34454   0.60758   0.51214   0.00000  Uiso   1.00
H127   H     0.68326   0.62660   0.43047   0.00000  Uiso   1.00
H128   H     0.37480   0.95954   0.52657   0.00000  Uiso   1.00
H129   H     0.25751   0.50712   0.55785   0.00000  Uiso   1.00
O130   O     0.79472   0.60337   0.48439   0.00000  Uiso   1.00
O131   O     0.39001   0.04016   0.61048   0.00000  Uiso   1.00
O132   O     0.23614   0.44661   0.65152   0.00000  Uiso   1.00
N133   N     0.72132   0.62959   0.55400   0.00000  Uiso   1.00
N134   N     0.43294   0.94087   0.64385   0.00000  Uiso   1.00
N135   N     0.32327   0.51791   0.67310   0.00000  Uiso   1.00
N136   N     0.68355   0.63073   0.47096   0.00000  Uiso   1.00
N137   N     0.39516   0.94201   0.56081   0.00000  Uiso   1.00
N138   N     0.28550   0.51905   0.59006   0.00000  Uiso   1.00
C139   C     0.99585   0.19599   0.13095   0.00000  Uiso   1.00
C140   C     0.04876   0.17796   0.08945   0.00000  Uiso   1.00
C141   C     0.11428   0.16217   0.10082   0.00000  Uiso   1.00
C142   C     0.15488   0.14712   0.05721   0.00000  Uiso   1.00
C143   C     0.24071   0.11905   0.00084   0.00000  Uiso   1.00
C144   C     0.96929   0.26376   0.11421   0.00000  Uiso   1.00
C145   C     0.96799   0.32010   0.14640   0.00000  Uiso   1.00
C146   C     0.94167   0.37727   0.12363   0.00000  Uiso   1.00
C147   C     0.90407   0.48238   0.10571   0.00000  Uiso   1.00
C148   C     0.93907   0.14718   0.12227   0.00000  Uiso   1.00
C149   C     0.91235   0.10552   0.16123   0.00000  Uiso   1.00
C150   C     0.86059   0.06456   0.14525   0.00000  Uiso   1.00
C151   C     0.77608   0.98867   0.13985   0.00000  Uiso   1.00
C152   C     0.95143   0.19733   0.03330   0.00000  Uiso   1.00
C153   C     0.02462   0.17869   0.03641   0.00000  Uiso   1.00
C154   C     0.06513   0.16365   0.99277   0.00000  Uiso   1.00
C155   C     0.13071   0.14785   0.00407   0.00000  Uiso   1.00
C156   C     0.94516   0.26448   0.06117   0.00000  Uiso   1.00
C157   C     0.91883   0.32158   0.03835   0.00000  Uiso   1.00
C158   C     0.91750   0.37800   0.07049   0.00000  Uiso   1.00
C159   C     0.91494   0.14791   0.06923   0.00000  Uiso   1.00
C160   C     0.86321   0.10700   0.05319   0.00000  Uiso   1.00
C161   C     0.83642   0.06529   0.09212   0.00000  Uiso   1.00
H162   H     0.01464   0.19543   0.17225   0.00000  Uiso   1.00
H163   H     0.13294   0.16162   0.14187   0.00000  Uiso   1.00
H164   H     0.98666   0.31952   0.18744   0.00000  Uiso   1.00
H165   H     0.93104   0.10497   0.20228   0.00000  Uiso   1.00
H166   H     0.25347   0.12449   0.08480   0.00000  Uiso   1.00
H167   H     0.94500   0.45742   0.18090   0.00000  Uiso   1.00
H168   H     0.82772   0.00501   0.21218   0.00000  Uiso   1.00
H169   H     0.93264   0.19790   0.99200   0.00000  Uiso   1.00
H170   H     0.04644   0.16422   0.95173   0.00000  Uiso   1.00
H171   H     0.90016   0.32213   0.99730   0.00000  Uiso   1.00
H172   H     0.84454   0.10758   0.01214   0.00000  Uiso   1.00
H173   H     0.18326   0.12660   0.93047   0.00000  Uiso   1.00
H174   H     0.87480   0.45954   0.02657   0.00000  Uiso   1.00
H175   H     0.75751   0.00712   0.05785   0.00000  Uiso   1.00
O176   O     0.29472   0.10337   0.98439   0.00000  Uiso   1.00
O177   O     0.89001   0.54016   0.11048   0.00000  Uiso   1.00
O178   O     0.73614   0.94661   0.15152   0.00000  Uiso   1.00
N179   N     0.22132   0.12959   0.05400   0.00000  Uiso   1.00
N180   N     0.93294   0.44087   0.14385   0.00000  Uiso   1.00
N181   N     0.82327   0.01791   0.17310   0.00000  Uiso   1.00
N182   N     0.18355   0.13073   0.97096   0.00000  Uiso   1.00
N183   N     0.89516   0.44201   0.06081   0.00000  Uiso   1.00
N184   N     0.78550   0.01905   0.09006   0.00000  Uiso   1.00
C185   C     0.19599   0.50415   0.38095   0.00000  Uiso   1.00
C186   C     0.17796   0.45124   0.33945   0.00000  Uiso   1.00
C187   C     0.16217   0.38572   0.35082   0.00000  Uiso   1.00
C188   C     0.14712   0.34512   0.30721   0.00000  Uiso   1.00
C189   C     0.11905   0.25929   0.25084   0.00000  Uiso   1.00
C190   C     0.26376   0.53071   0.36421   0.00000  Uiso   1.00
C191   C     0.32010   0.53201   0.39640   0.00000  Uiso   1.00
C192   C     0.37727   0.55833   0.37363   0.00000  Uiso   1.00
C193   C     0.48238   0.59593   0.35571   0.00000  Uiso   1.00
C194   C     0.14718   0.56093   0.37227   0.00000  Uiso   1.00
C195   C     0.10552   0.58765   0.41123   0.00000  Uiso   1.00
C196   C     0.06456   0.63941   0.39525   0.00000  Uiso   1.00
C197   C     0.98867   0.72392   0.38985   0.00000  Uiso   1.00
C198   C     0.19733   0.54857   0.28330   0.00000  Uiso   1.00
C199   C     0.17869   0.47538   0.28641   0.00000  Uiso   1.00
C200   C     0.16365   0.43487   0.24277   0.00000  Uiso   1.00
C201   C     0.14785   0.36929   0.25407   0.00000  Uiso   1.00
C202   C     0.26448   0.55484   0.31117   0.00000  Uiso   1.00
C203   C     0.32158   0.58117   0.28835   0.00000  Uiso   1.00
C204   C     0.37800   0.58250   0.32049   0.00000  Uiso   1.00
C205   C     0.14791   0.58506   0.31923   0.00000  Uiso   1.00
C206   C     0.10700   0.63679   0.30319   0.00000  Uiso   1.00
C207   C     0.06529   0.66358   0.34212   0.00000  Uiso   1.00
H208   H     0.19543   0.48536   0.42225   0.00000  Uiso   1.00
H209   H     0.16162   0.36706   0.39187   0.00000  Uiso   1.00
H210   H     0.31952   0.51334   0.43744   0.00000  Uiso   1.00
H211   H     0.10497   0.56896   0.45228   0.00000  Uiso   1.00
H212   H     0.12449   0.24653   0.33480   0.00000  Uiso   1.00
H213   H     0.45742   0.55500   0.43090   0.00000  Uiso   1.00
H214   H     0.00501   0.67228   0.46218   0.00000  Uiso   1.00
H215   H     0.19790   0.56736   0.24200   0.00000  Uiso   1.00
H216   H     0.16422   0.45356   0.20173   0.00000  Uiso   1.00
H217   H     0.32213   0.59984   0.24730   0.00000  Uiso   1.00
H218   H     0.10758   0.65546   0.26214   0.00000  Uiso   1.00
H219   H     0.12660   0.31674   0.18047   0.00000  Uiso   1.00
H220   H     0.45954   0.62520   0.27657   0.00000  Uiso   1.00
H221   H     0.00712   0.74249   0.30785   0.00000  Uiso   1.00
O222   O     0.10337   0.20528   0.23439   0.00000  Uiso   1.00
O223   O     0.54016   0.60999   0.36048   0.00000  Uiso   1.00
O224   O     0.94661   0.76386   0.40152   0.00000  Uiso   1.00
N225   N     0.12959   0.27868   0.30400   0.00000  Uiso   1.00
N226   N     0.44087   0.56706   0.39385   0.00000  Uiso   1.00
N227   N     0.01791   0.67673   0.42310   0.00000  Uiso   1.00
N228   N     0.13073   0.31645   0.22096   0.00000  Uiso   1.00
N229   N     0.44201   0.60484   0.31081   0.00000  Uiso   1.00
N230   N     0.01905   0.71450   0.34006   0.00000  Uiso   1.00
C231   C     0.69599   0.00415   0.88095   0.00000  Uiso   1.00
C232   C     0.67796   0.95124   0.83945   0.00000  Uiso   1.00
C233   C     0.66217   0.88572   0.85082   0.00000  Uiso   1.00
C234   C     0.64712   0.84512   0.80721   0.00000  Uiso   1.00
C235   C     0.61905   0.75929   0.75084   0.00000  Uiso   1.00
C236   C     0.76376   0.03071   0.86421   0.00000  Uiso   1.00
C237   C     0.82010   0.03201   0.89640   0.00000  Uiso   1.00
C238   C     0.87727   0.05833   0.87363   0.00000  Uiso   1.00
C239   C     0.98238   0.09593   0.85571   0.00000  Uiso   1.00
C240   C     0.64718   0.06093   0.87227   0.00000  Uiso   1.00
C241   C     0.60552   0.08765   0.91123   0.00000  Uiso   1.00
C242   C     0.56456   0.13941   0.89525   0.00000  Uiso   1.00
C243   C     0.48867   0.22392   0.88985   0.00000  Uiso   1.00
C244   C     0.69733   0.04857   0.78330   0.00000  Uiso   1.00
C245   C     0.67869   0.97538   0.78641   0.00000  Uiso   1.00
C246   C     0.66365   0.93487   0.74277   0.00000  Uiso   1.00
C247   C     0.64785   0.86929   0.75407   0.00000  Uiso   1.00
C248   C     0.76448   0.05484   0.81117   0.00000  Uiso   1.00
C249   C     0.82158   0.08117   0.78835   0.00000  Uiso   1.00
C250   C     0.87800   0.08250   0.82049   0.00000  Uiso   1.00
C251   C     0.64791   0.08506   0.81923   0.00000  Uiso   1.00
C252   C     0.60700   0.13679   0.80319   0.00000  Uiso   1.00
C253   C     0.56529   0.16358   0.84212   0.00000  Uiso   1.00
H254   H     0.69543   0.98536   0.92225   0.00000  Uiso   1.00
H255   H     0.66162   0.86706   0.89187   0.00000  Uiso   1.00
H256   H     0.81952   0.01334   0.93744   0.00000  Uiso   1.00
H257   H     0.60497   0.06896   0.95228   0.00000  Uiso   1.00
H258   H     0.62449   0.74653   0.83480   0.00000  Uiso   1.00
H259   H     0.95742   0.05500   0.93090   0.00000  Uiso   1.00
H260   H     0.50501   0.17228   0.96218   0.00000  Uiso   1.00
H261   H     0.69790   0.06736   0.74200   0.00000  Uiso   1.00
H262   H     0.66422   0.95356   0.70173   0.00000  Uiso   1.00
H263   H     0.82213   0.09984   0.74730   0.00000  Uiso   1.00
H264   H     0.60758   0.15546   0.76214   0.00000  Uiso   1.00
H265   H     0.62660   0.81674   0.68047   0.00000  Uiso   1.00
H266   H     0.95954   0.12520   0.77657   0.00000  Uiso   1.00
H267   H     0.50712   0.24249   0.80785   0.00000  Uiso   1.00
O268   O     0.60337   0.70528   0.73439   0.00000  Uiso   1.00
O269   O     0.04016   0.10999   0.86048   0.00000  Uiso   1.00
O270   O     0.44661   0.26386   0.90152   0.00000  Uiso   1.00
N271   N     0.62959   0.77868   0.80400   0.00000  Uiso   1.00
N272   N     0.94087   0.06706   0.89385   0.00000  Uiso   1.00
N273   N     0.51791   0.17673   0.92310   0.00000  Uiso   1.00
N274   N     0.63073   0.81645   0.72096   0.00000  Uiso   1.00
N275   N     0.94201   0.10484   0.81081   0.00000  Uiso   1.00
N276   N     0.51905   0.21450   0.84006   0.00000  Uiso   1.00
C277   C     0.30401   0.99585   0.88095   0.00000  Uiso   1.00
C278   C     0.32204   0.04876   0.83945   0.00000  Uiso   1.00
C279   C     0.33783   0.11428   0.85082   0.00000  Uiso   1.00
C280   C     0.35288   0.15488   0.80721   0.00000  Uiso   1.00
C281   C     0.38095   0.24071   0.75084   0.00000  Uiso   1.00
C282   C     0.23624   0.96929   0.86421   0.00000  Uiso   1.00
C283   C     0.17990   0.96799   0.89640   0.00000  Uiso   1.00
C284   C     0.12273   0.94167   0.87363   0.00000  Uiso   1.00
C285   C     0.01762   0.90407   0.85571   0.00000  Uiso   1.00
C286   C     0.35282   0.93907   0.87227   0.00000  Uiso   1.00
C287   C     0.39448   0.91235   0.91123   0.00000  Uiso   1.00
C288   C     0.43544   0.86059   0.89525   0.00000  Uiso   1.00
C289   C     0.51133   0.77608   0.88985   0.00000  Uiso   1.00
C290   C     0.30267   0.95143   0.78330   0.00000  Uiso   1.00
C291   C     0.32131   0.02462   0.78641   0.00000  Uiso   1.00
C292   C     0.33635   0.06513   0.74277   0.00000  Uiso   1.00
C293   C     0.35215   0.13071   0.75407   0.00000  Uiso   1.00
C294   C     0.23552   0.94516   0.81117   0.00000  Uiso   1.00
C295   C     0.17842   0.91883   0.78835   0.00000  Uiso   1.00
C296   C     0.12200   0.91750   0.82049   0.00000  Uiso   1.00
C297   C     0.35209   0.91494   0.81923   0.00000  Uiso   1.00
C298   C     0.39300   0.86321   0.80319   0.00000  Uiso   1.00
C299   C     0.43471   0.83642   0.84212   0.00000  Uiso   1.00
H300   H     0.30457   0.01464   0.92225   0.00000  Uiso   1.00
H301   H     0.33838   0.13294   0.89187   0.00000  Uiso   1.00
H302   H     0.18048   0.98666   0.93744   0.00000  Uiso   1.00
H303   H     0.39503   0.93104   0.95228   0.00000  Uiso   1.00
H304   H     0.37551   0.25347   0.83480   0.00000  Uiso   1.00
H305   H     0.04258   0.94500   0.93090   0.00000  Uiso   1.00
H306   H     0.49499   0.82772   0.96218   0.00000  Uiso   1.00
H307   H     0.30210   0.93264   0.74200   0.00000  Uiso   1.00
H308   H     0.33578   0.04644   0.70173   0.00000  Uiso   1.00
H309   H     0.17787   0.90016   0.74730   0.00000  Uiso   1.00
H310   H     0.39242   0.84454   0.76214   0.00000  Uiso   1.00
H311   H     0.37340   0.18326   0.68047   0.00000  Uiso   1.00
H312   H     0.04046   0.87480   0.77657   0.00000  Uiso   1.00
H313   H     0.49288   0.75751   0.80785   0.00000  Uiso   1.00
O314   O     0.39663   0.29472   0.73439   0.00000  Uiso   1.00
O315   O     0.95984   0.89001   0.86048   0.00000  Uiso   1.00
O316   O     0.55339   0.73614   0.90152   0.00000  Uiso   1.00
N317   N     0.37041   0.22132   0.80400   0.00000  Uiso   1.00
N318   N     0.05913   0.93294   0.89385   0.00000  Uiso   1.00
N319   N     0.48209   0.82327   0.92310   0.00000  Uiso   1.00
N320   N     0.36927   0.18355   0.72096   0.00000  Uiso   1.00
N321   N     0.05799   0.89516   0.81081   0.00000  Uiso   1.00
N322   N     0.48095   0.78550   0.84006   0.00000  Uiso   1.00
C323   C     0.80401   0.49585   0.38095   0.00000  Uiso   1.00
C324   C     0.82204   0.54876   0.33945   0.00000  Uiso   1.00
C325   C     0.83783   0.61428   0.35082   0.00000  Uiso   1.00
C326   C     0.85288   0.65488   0.30721   0.00000  Uiso   1.00
C327   C     0.88095   0.74071   0.25084   0.00000  Uiso   1.00
C328   C     0.73624   0.46929   0.36421   0.00000  Uiso   1.00
C329   C     0.67990   0.46799   0.39640   0.00000  Uiso   1.00
C330   C     0.62273   0.44167   0.37363   0.00000  Uiso   1.00
C331   C     0.51762   0.40407   0.35571   0.00000  Uiso   1.00
C332   C     0.85282   0.43907   0.37227   0.00000  Uiso   1.00
C333   C     0.89448   0.41235   0.41123   0.00000  Uiso   1.00
C334   C     0.93544   0.36059   0.39525   0.00000  Uiso   1.00
C335   C     0.01133   0.27608   0.38985   0.00000  Uiso   1.00
C336   C     0.80267   0.45143   0.28330   0.00000  Uiso   1.00
C337   C     0.82131   0.52462   0.28641   0.00000  Uiso   1.00
C338   C     0.83635   0.56513   0.24277   0.00000  Uiso   1.00
C339   C     0.85215   0.63071   0.25407   0.00000  Uiso   1.00
C340   C     0.73552   0.44516   0.31117   0.00000  Uiso   1.00
C341   C     0.67842   0.41883   0.28835   0.00000  Uiso   1.00
C342   C     0.62200   0.41750   0.32049   0.00000  Uiso   1.00
C343   C     0.85209   0.41494   0.31923   0.00000  Uiso   1.00
C344   C     0.89300   0.36321   0.30319   0.00000  Uiso   1.00
C345   C     0.93471   0.33642   0.34212   0.00000  Uiso   1.00
H346   H     0.80457   0.51464   0.42225   0.00000  Uiso   1.00
H347   H     0.83838   0.63294   0.39187   0.00000  Uiso   1.00
H348   H     0.68048   0.48666   0.43744   0.00000  Uiso   1.00
H349   H     0.89503   0.43104   0.45228   0.00000  Uiso   1.00
H350   H     0.87551   0.75347   0.33480   0.00000  Uiso   1.00
H351   H     0.54258   0.44500   0.43090   0.00000  Uiso   1.00
H352   H     0.99499   0.32772   0.46218   0.00000  Uiso   1.00
H353   H     0.80210   0.43264   0.24200   0.00000  Uiso   1.00
H354   H     0.83578   0.54644   0.20173   0.00000  Uiso   1.00
H355   H     0.67787   0.40016   0.24730   0.00000  Uiso   1.00
H356   H     0.89242   0.34454   0.26214   0.00000  Uiso   1.00
H357   H     0.87340   0.68326   0.18047   0.00000  Uiso   1.00
H358   H     0.54046   0.37480   0.27657   0.00000  Uiso   1.00
H359   H     0.99288   0.25751   0.30785   0.00000  Uiso   1.00
O360   O     0.89663   0.79472   0.23439   0.00000  Uiso   1.00
O361   O     0.45984   0.39001   0.36048   0.00000  Uiso   1.00
O362   O     0.05339   0.23614   0.40152   0.00000  Uiso   1.00
N363   N     0.87041   0.72132   0.30400   0.00000  Uiso   1.00
N364   N     0.55913   0.43294   0.39385   0.00000  Uiso   1.00
N365   N     0.98209   0.32327   0.42310   0.00000  Uiso   1.00
N366   N     0.86927   0.68355   0.22096   0.00000  Uiso   1.00
N367   N     0.55799   0.39516   0.31081   0.00000  Uiso   1.00
N368   N     0.98095   0.28550   0.34006   0.00000  Uiso   1.00
C369   C     0.00415   0.19599   0.63095   0.00000  Uiso   1.00
C370   C     0.95124   0.17796   0.58945   0.00000  Uiso   1.00
C371   C     0.88572   0.16217   0.60082   0.00000  Uiso   1.00
C372   C     0.84512   0.14712   0.55721   0.00000  Uiso   1.00
C373   C     0.75929   0.11905   0.50084   0.00000  Uiso   1.00
C374   C     0.03071   0.26376   0.61421   0.00000  Uiso   1.00
C375   C     0.03201   0.32010   0.64640   0.00000  Uiso   1.00
C376   C     0.05833   0.37727   0.62363   0.00000  Uiso   1.00
C377   C     0.09593   0.48238   0.60571   0.00000  Uiso   1.00
C378   C     0.06093   0.14718   0.62227   0.00000  Uiso   1.00
C379   C     0.08765   0.10552   0.66123   0.00000  Uiso   1.00
C380   C     0.13941   0.06456   0.64525   0.00000  Uiso   1.00
C381   C     0.22392   0.98867   0.63985   0.00000  Uiso   1.00
C382   C     0.04857   0.19733   0.53330   0.00000  Uiso   1.00
C383   C     0.97538   0.17869   0.53641   0.00000  Uiso   1.00
C384   C     0.93487   0.16365   0.49277   0.00000  Uiso   1.00
C385   C     0.86929   0.14785   0.50407   0.00000  Uiso   1.00
C386   C     0.05484   0.26448   0.56117   0.00000  Uiso   1.00
C387   C     0.08117   0.32158   0.53835   0.00000  Uiso   1.00
C388   C     0.08250   0.37800   0.57049   0.00000  Uiso   1.00
C389   C     0.08506   0.14791   0.56923   0.00000  Uiso   1.00
C390   C     0.13679   0.10700   0.55319   0.00000  Uiso   1.00
C391   C     0.16358   0.06529   0.59212   0.00000  Uiso   1.00
H392   H     0.98536   0.19543   0.67225   0.00000  Uiso   1.00
H393   H     0.86706   0.16162   0.64187   0.00000  Uiso   1.00
H394   H     0.01334   0.31952   0.68744   0.00000  Uiso   1.00
H395   H     0.06896   0.10497   0.70228   0.00000  Uiso   1.00
H396   H     0.74653   0.12449   0.58480   0.00000  Uiso   1.00
H397   H     0.05500   0.45742   0.68090   0.00000  Uiso   1.00
H398   H     0.17228   0.00501   0.71218   0.00000  Uiso   1.00
H399   H     0.06736   0.19790   0.49200   0.00000  Uiso   1.00
H400   H     0.95356   0.16422   0.45173   0.00000  Uiso   1.00
H401   H     0.09984   0.32213   0.49730   0.00000  Uiso   1.00
H402   H     0.15546   0.10758   0.51214   0.00000  Uiso   1.00
H403   H     0.81674   0.12660   0.43047   0.00000  Uiso   1.00
H404   H     0.12520   0.45954   0.52657   0.00000  Uiso   1.00
H405   H     0.24249   0.00712   0.55785   0.00000  Uiso   1.00
O406   O     0.70528   0.10337   0.48439   0.00000  Uiso   1.00
O407   O     0.10999   0.54016   0.61048   0.00000  Uiso   1.00
O408   O     0.26386   0.94661   0.65152   0.00000  Uiso   1.00
N409   N     0.77868   0.12959   0.55400   0.00000  Uiso   1.00
N410   N     0.06706   0.44087   0.64385   0.00000  Uiso   1.00
N411   N     0.17673   0.01791   0.67310   0.00000  Uiso   1.00
N412   N     0.81645   0.13073   0.47096   0.00000  Uiso   1.00
N413   N     0.10484   0.44201   0.56081   0.00000  Uiso   1.00
N414   N     0.21450   0.01905   0.59006   0.00000  Uiso   1.00
C415   C     0.50415   0.69599   0.13095   0.00000  Uiso   1.00
C416   C     0.45124   0.67796   0.08945   0.00000  Uiso   1.00
C417   C     0.38572   0.66217   0.10082   0.00000  Uiso   1.00
C418   C     0.34512   0.64712   0.05721   0.00000  Uiso   1.00
C419   C     0.25929   0.61905   0.00084   0.00000  Uiso   1.00
C420   C     0.53071   0.76376   0.11421   0.00000  Uiso   1.00
C421   C     0.53201   0.82010   0.14640   0.00000  Uiso   1.00
C422   C     0.55833   0.87727   0.12363   0.00000  Uiso   1.00
C423   C     0.59593   0.98238   0.10571   0.00000  Uiso   1.00
C424   C     0.56093   0.64718   0.12227   0.00000  Uiso   1.00
C425   C     0.58765   0.60552   0.16123   0.00000  Uiso   1.00
C426   C     0.63941   0.56456   0.14525   0.00000  Uiso   1.00
C427   C     0.72392   0.48867   0.13985   0.00000  Uiso   1.00
C428   C     0.54857   0.69733   0.03330   0.00000  Uiso   1.00
C429   C     0.47538   0.67869   0.03641   0.00000  Uiso   1.00
C430   C     0.43487   0.66365   0.99277   0.00000  Uiso   1.00
C431   C     0.36929   0.64785   0.00407   0.00000  Uiso   1.00
C432   C     0.55484   0.76448   0.06117   0.00000  Uiso   1.00
C433   C     0.58117   0.82158   0.03835   0.00000  Uiso   1.00
C434   C     0.58250   0.87800   0.07049   0.00000  Uiso   1.00
C435   C     0.58506   0.64791   0.06923   0.00000  Uiso   1.00
C436   C     0.63679   0.60700   0.05319   0.00000  Uiso   1.00
C437   C     0.66358   0.56529   0.09212   0.00000  Uiso   1.00
H438   H     0.48536   0.69543   0.17225   0.00000  Uiso   1.00
H439   H     0.36706   0.66162   0.14187   0.00000  Uiso   1.00
H440   H     0.51334   0.81952   0.18744   0.00000  Uiso   1.00
H441   H     0.56896   0.60497   0.20228   0.00000  Uiso   1.00
H442   H     0.24653   0.62449   0.08480   0.00000  Uiso   1.00
H443   H     0.55500   0.95742   0.18090   0.00000  Uiso   1.00
H444   H     0.67228   0.50501   0.21218   0.00000  Uiso   1.00
H445   H     0.56736   0.69790   0.99200   0.00000  Uiso   1.00
H446   H     0.45356   0.66422   0.95173   0.00000  Uiso   1.00
H447   H     0.59984   0.82213   0.99730   0.00000  Uiso   1.00
H448   H     0.65546   0.60758   0.01214   0.00000  Uiso   1.00
H449   H     0.31674   0.62660   0.93047   0.00000  Uiso   1.00
H450   H     0.62520   0.95954   0.02657   0.00000  Uiso   1.00
H451   H     0.74249   0.50712   0.05785   0.00000  Uiso   1.00
O452   O     0.20528   0.60337   0.98439   0.00000  Uiso   1.00
O453   O     0.60999   0.04016   0.11048   0.00000  Uiso   1.00
O454   O     0.76386   0.44661   0.15152   0.00000  Uiso   1.00
N455   N     0.27868   0.62959   0.05400   0.00000  Uiso   1.00
N456   N     0.56706   0.94087   0.14385   0.00000  Uiso   1.00
N457   N     0.67673   0.51791   0.17310   0.00000  Uiso   1.00
N458   N     0.31645   0.63073   0.97096   0.00000  Uiso   1.00
N459   N     0.60484   0.94201   0.06081   0.00000  Uiso   1.00
N460   N     0.71450   0.51905   0.09006   0.00000  Uiso   1.00
C461   C     0.49585   0.30401   0.13095   0.00000  Uiso   1.00
C462   C     0.54876   0.32204   0.08945   0.00000  Uiso   1.00
C463   C     0.61428   0.33783   0.10082   0.00000  Uiso   1.00
C464   C     0.65488   0.35288   0.05721   0.00000  Uiso   1.00
C465   C     0.74071   0.38095   0.00084   0.00000  Uiso   1.00
C466   C     0.46929   0.23624   0.11421   0.00000  Uiso   1.00
C467   C     0.46799   0.17990   0.14640   0.00000  Uiso   1.00
C468   C     0.44167   0.12273   0.12363   0.00000  Uiso   1.00
C469   C     0.40407   0.01762   0.10571   0.00000  Uiso   1.00
C470   C     0.43907   0.35282   0.12227   0.00000  Uiso   1.00
C471   C     0.41235   0.39448   0.16123   0.00000  Uiso   1.00
C472   C     0.36059   0.43544   0.14525   0.00000  Uiso   1.00
C473   C     0.27608   0.51133   0.13985   0.00000  Uiso   1.00
C474   C     0.45143   0.30267   0.03330   0.00000  Uiso   1.00
C475   C     0.52462   0.32131   0.03641   0.00000  Uiso   1.00
C476   C     0.56513   0.33635   0.99277   0.00000  Uiso   1.00
C477   C     0.63071   0.35215   0.00407   0.00000  Uiso   1.00
C478   C     0.44516   0.23552   0.06117   0.00000  Uiso   1.00
C479   C     0.41883   0.17842   0.03835   0.00000  Uiso   1.00
C480   C     0.41750   0.12200   0.07049   0.00000  Uiso   1.00
C481   C     0.41494   0.35209   0.06923   0.00000  Uiso   1.00
C482   C     0.36321   0.39300   0.05319   0.00000  Uiso   1.00
C483   C     0.33642   0.43471   0.09212   0.00000  Uiso   1.00
H484   H     0.51464   0.30457   0.17225   0.00000  Uiso   1.00
H485   H     0.63294   0.33838   0.14187   0.00000  Uiso   1.00
H486   H     0.48666   0.18048   0.18744   0.00000  Uiso   1.00
H487   H     0.43104   0.39503   0.20228   0.00000  Uiso   1.00
H488   H     0.75347   0.37551   0.08480   0.00000  Uiso   1.00
H489   H     0.44500   0.04258   0.18090   0.00000  Uiso   1.00
H490   H     0.32772   0.49499   0.21218   0.00000  Uiso   1.00
H491   H     0.43264   0.30210   0.99200   0.00000  Uiso   1.00
H492   H     0.54644   0.33578   0.95173   0.00000  Uiso   1.00
H493   H     0.40016   0.17787   0.99730   0.00000  Uiso   1.00
H494   H     0.34454   0.39242   0.01214   0.00000  Uiso   1.00
H495   H     0.68326   0.37340   0.93047   0.00000  Uiso   1.00
H496   H     0.37480   0.04046   0.02657   0.00000  Uiso   1.00
H497   H     0.25751   0.49288   0.05785   0.00000  Uiso   1.00
O498   O     0.79472   0.39663   0.98439   0.00000  Uiso   1.00
O499   O     0.39001   0.95984   0.11048   0.00000  Uiso   1.00
O500   O     0.23614   0.55339   0.15152   0.00000  Uiso   1.00
N501   N     0.72132   0.37041   0.05400   0.00000  Uiso   1.00
N502   N     0.43294   0.05913   0.14385   0.00000  Uiso   1.00
N503   N     0.32327   0.48209   0.17310   0.00000  Uiso   1.00
N504   N     0.68355   0.36927   0.97096   0.00000  Uiso   1.00
N505   N     0.39516   0.05799   0.06081   0.00000  Uiso   1.00
N506   N     0.28550   0.48095   0.09006   0.00000  Uiso   1.00
C507   C     0.99585   0.80401   0.63095   0.00000  Uiso   1.00
C508   C     0.04876   0.82204   0.58945   0.00000  Uiso   1.00
C509   C     0.11428   0.83783   0.60082   0.00000  Uiso   1.00
C510   C     0.15488   0.85288   0.55721   0.00000  Uiso   1.00
C511   C     0.24071   0.88095   0.50084   0.00000  Uiso   1.00
C512   C     0.96929   0.73624   0.61421   0.00000  Uiso   1.00
C513   C     0.96799   0.67990   0.64640   0.00000  Uiso   1.00
C514   C     0.94167   0.62273   0.62363   0.00000  Uiso   1.00
C515   C     0.90407   0.51762   0.60571   0.00000  Uiso   1.00
C516   C     0.93907   0.85282   0.62227   0.00000  Uiso   1.00
C517   C     0.91235   0.89448   0.66123   0.00000  Uiso   1.00
C518   C     0.86059   0.93544   0.64525   0.00000  Uiso   1.00
C519   C     0.77608   0.01133   0.63985   0.00000  Uiso   1.00
C520   C     0.95143   0.80267   0.53330   0.00000  Uiso   1.00
C521   C     0.02462   0.82131   0.53641   0.00000  Uiso   1.00
C522   C     0.06513   0.83635   0.49277   0.00000  Uiso   1.00
C523   C     0.13071   0.85215   0.50407   0.00000  Uiso   1.00
C524   C     0.94516   0.73552   0.56117   0.00000  Uiso   1.00
C525   C     0.91883   0.67842   0.53835   0.00000  Uiso   1.00
C526   C     0.91750   0.62200   0.57049   0.00000  Uiso   1.00
C527   C     0.91494   0.85209   0.56923   0.00000  Uiso   1.00
C528   C     0.86321   0.89300   0.55319   0.00000  Uiso   1.00
C529   C     0.83642   0.93471   0.59212   0.00000  Uiso   1.00
H530   H     0.01464   0.80457   0.67225   0.00000  Uiso   1.00
H531   H     0.13294   0.83838   0.64187   0.00000  Uiso   1.00
H532   H     0.98666   0.68048   0.68744   0.00000  Uiso   1.00
H533   H     0.93104   0.89503   0.70228   0.00000  Uiso   1.00
H534   H     0.25347   0.87551   0.58480   0.00000  Uiso   1.00
H535   H     0.94500   0.54258   0.68090   0.00000  Uiso   1.00
H536   H     0.82772   0.99499   0.71218   0.00000  Uiso   1.00
H537   H     0.93264   0.80210   0.49200   0.00000  Uiso   1.00
H538   H     0.04644   0.83578   0.45173   0.00000  Uiso   1.00
H539   H     0.90016   0.67787   0.49730   0.00000  Uiso   1.00
H540   H     0.84454   0.89242   0.51214   0.00000  Uiso   1.00
H541   H     0.18326   0.87340   0.43047   0.00000  Uiso   1.00
H542   H     0.87480   0.54046   0.52657   0.00000  Uiso   1.00
H543   H     0.75751   0.99288   0.55785   0.00000  Uiso   1.00
O544   O     0.29472   0.89663   0.48439   0.00000  Uiso   1.00
O545   O     0.89001   0.45984   0.61048   0.00000  Uiso   1.00
O546   O     0.73614   0.05339   0.65152   0.00000  Uiso   1.00
N547   N     0.22132   0.87041   0.55400   0.00000  Uiso   1.00
N548   N     0.93294   0.55913   0.64385   0.00000  Uiso   1.00
N549   N     0.82327   0.98209   0.67310   0.00000  Uiso   1.00
N550   N     0.18355   0.86927   0.47096   0.00000  Uiso   1.00
N551   N     0.89516   0.55799   0.56081   0.00000  Uiso   1.00
N552   N     0.78550   0.98095   0.59006   0.00000  Uiso   1.00
C553   C     0.19599   0.49585   0.88095   0.00000  Uiso   1.00
C554   C     0.17796   0.54876   0.83945   0.00000  Uiso   1.00
C555   C     0.16217   0.61428   0.85082   0.00000  Uiso   1.00
C556   C     0.14712   0.65488   0.80721   0.00000  Uiso   1.00
C557   C     0.11905   0.74071   0.75084   0.00000  Uiso   1.00
C558   C     0.26376   0.46929   0.86421   0.00000  Uiso   1.00
C559   C     0.32010   0.46799   0.89640   0.00000  Uiso   1.00
C560   C     0.37727   0.44167   0.87363   0.00000  Uiso   1.00
C561   C     0.48238   0.40407   0.85571   0.00000  Uiso   1.00
C562   C     0.14718   0.43907   0.87227   0.00000  Uiso   1.00
C563   C     0.10552   0.41235   0.91123   0.00000  Uiso   1.00
C564   C     0.06456   0.36059   0.89525   0.00000  Uiso   1.00
C565   C     0.98867   0.27608   0.88985   0.00000  Uiso   1.00
C566   C     0.19733   0.45143   0.78330   0.00000  Uiso   1.00
C567   C     0.17869   0.52462   0.78641   0.00000  Uiso   1.00
C568   C     0.16365   0.56513   0.74277   0.00000  Uiso   1.00
C569   C     0.14785   0.63071   0.75407   0.00000  Uiso   1.00
C570   C     0.26448   0.44516   0.81117   0.00000  Uiso   1.00
C571   C     0.32158   0.41883   0.78835   0.00000  Uiso   1.00
C572   C     0.37800   0.41750   0.82049   0.00000  Uiso   1.00
C573   C     0.14791   0.41494   0.81923   0.00000  Uiso   1.00
C574   C     0.10700   0.36321   0.80319   0.00000  Uiso   1.00
C575   C     0.06529   0.33642   0.84212   0.00000  Uiso   1.00
H576   H     0.19543   0.51464   0.92225   0.00000  Uiso   1.00
H577   H     0.16162   0.63294   0.89187   0.00000  Uiso   1.00
H578   H     0.31952   0.48666   0.93744   0.00000  Uiso   1.00
H579   H     0.10497   0.43104   0.95228   0.00000  Uiso   1.00
H580   H     0.12449   0.75347   0.83480   0.00000  Uiso   1.00
H581   H     0.45742   0.44500   0.93090   0.00000  Uiso   1.00
H582   H     0.00501   0.32772   0.96218   0.00000  Uiso   1.00
H583   H     0.19790   0.43264   0.74200   0.00000  Uiso   1.00
H584   H     0.16422   0.54644   0.70173   0.00000  Uiso   1.00
H585   H     0.32213   0.40016   0.74730   0.00000  Uiso   1.00
H586   H     0.10758   0.34454   0.76214   0.00000  Uiso   1.00
H587   H     0.12660   0.68326   0.68047   0.00000  Uiso   1.00
H588   H     0.45954   0.37480   0.77657   0.00000  Uiso   1.00
H589   H     0.00712   0.25751   0.80785   0.00000  Uiso   1.00
O590   O     0.10337   0.79472   0.73439   0.00000  Uiso   1.00
O591   O     0.54016   0.39001   0.86048   0.00000  Uiso   1.00
O592   O     0.94661   0.23614   0.90152   0.00000  Uiso   1.00
N593   N     0.12959   0.72132   0.80400   0.00000  Uiso   1.00
N594   N     0.44087   0.43294   0.89385   0.00000  Uiso   1.00
N595   N     0.01791   0.32327   0.92310   0.00000  Uiso   1.00
N596   N     0.13073   0.68355   0.72096   0.00000  Uiso   1.00
N597   N     0.44201   0.39516   0.81081   0.00000  Uiso   1.00
N598   N     0.01905   0.28550   0.84006   0.00000  Uiso   1.00
C599   C     0.69599   0.99585   0.38095   0.00000  Uiso   1.00
C600   C     0.67796   0.04876   0.33945   0.00000  Uiso   1.00
C601   C     0.66217   0.11428   0.35082   0.00000  Uiso   1.00
C602   C     0.64712   0.15488   0.30721   0.00000  Uiso   1.00
C603   C     0.61905   0.24071   0.25084   0.00000  Uiso   1.00
C604   C     0.76376   0.96929   0.36421   0.00000  Uiso   1.00
C605   C     0.82010   0.96799   0.39640   0.00000  Uiso   1.00
C606   C     0.87727   0.94167   0.37363   0.00000  Uiso   1.00
C607   C     0.98238   0.90407   0.35571   0.00000  Uiso   1.00
C608   C     0.64718   0.93907   0.37227   0.00000  Uiso   1.00
C609   C     0.60552   0.91235   0.41123   0.00000  Uiso   1.00
C610   C     0.56456   0.86059   0.39525   0.00000  Uiso   1.00
C611   C     0.48867   0.77608   0.38985   0.00000  Uiso   1.00
C612   C     0.69733   0.95143   0.28330   0.00000  Uiso   1.00
C613   C     0.67869   0.02462   0.28641   0.00000  Uiso   1.00
C614   C     0.66365   0.06513   0.24277   0.00000  Uiso   1.00
C615   C     0.64785   0.13071   0.25407   0.00000  Uiso   1.00
C616   C     0.76448   0.94516   0.31117   0.00000  Uiso   1.00
C617   C     0.82158   0.91883   0.28835   0.00000  Uiso   1.00
C618   C     0.87800   0.91750   0.32049   0.00000  Uiso   1.00
C619   C     0.64791   0.91494   0.31923   0.00000  Uiso   1.00
C620   C     0.60700   0.86321   0.30319   0.00000  Uiso   1.00
C621   C     0.56529   0.83642   0.34212   0.00000  Uiso   1.00
H622   H     0.69543   0.01464   0.42225   0.00000  Uiso   1.00
H623   H     0.66162   0.13294   0.39187   0.00000  Uiso   1.00
H624   H     0.81952   0.98666   0.43744   0.00000  Uiso   1.00
H625   H     0.60497   0.93104   0.45228   0.00000  Uiso   1.00
H626   H     0.62449   0.25347   0.33480   0.00000  Uiso   1.00
H627   H     0.95742   0.94500   0.43090   0.00000  Uiso   1.00
H628   H     0.50501   0.82772   0.46218   0.00000  Uiso   1.00
H629   H     0.69790   0.93264   0.24200   0.00000  Uiso   1.00
H630   H     0.66422   0.04644   0.20173   0.00000  Uiso   1.00
H631   H     0.82213   0.90016   0.24730   0.00000  Uiso   1.00
H632   H     0.60758   0.84454   0.26214   0.00000  Uiso   1.00
H633   H     0.62660   0.18326   0.18047   0.00000  Uiso   1.00
H634   H     0.95954   0.87480   0.27657   0.00000  Uiso   1.00
H635   H     0.50712   0.75751   0.30785   0.00000  Uiso   1.00
O636   O     0.60337   0.29472   0.23439   0.00000  Uiso   1.00
O637   O     0.04016   0.89001   0.36048   0.00000  Uiso   1.00
O638   O     0.44661   0.73614   0.40152   0.00000  Uiso   1.00
N639   N     0.62959   0.22132   0.30400   0.00000  Uiso   1.00
N640   N     0.94087   0.93294   0.39385   0.00000  Uiso   1.00
N641   N     0.51791   0.82327   0.42310   0.00000  Uiso   1.00
N642   N     0.63073   0.18355   0.22096   0.00000  Uiso   1.00
N643   N     0.94201   0.89516   0.31081   0.00000  Uiso   1.00
N644   N     0.51905   0.78550   0.34006   0.00000  Uiso   1.00
C645   C     0.30401   0.00415   0.38095   0.00000  Uiso   1.00
C646   C     0.32204   0.95124   0.33945   0.00000  Uiso   1.00
C647   C     0.33783   0.88572   0.35082   0.00000  Uiso   1.00
C648   C     0.35288   0.84512   0.30721   0.00000  Uiso   1.00
C649   C     0.38095   0.75929   0.25084   0.00000  Uiso   1.00
C650   C     0.23624   0.03071   0.36421   0.00000  Uiso   1.00
C651   C     0.17990   0.03201   0.39640   0.00000  Uiso   1.00
C652   C     0.12273   0.05833   0.37363   0.00000  Uiso   1.00
C653   C     0.01762   0.09593   0.35571   0.00000  Uiso   1.00
C654   C     0.35282   0.06093   0.37227   0.00000  Uiso   1.00
C655   C     0.39448   0.08765   0.41123   0.00000  Uiso   1.00
C656   C     0.43544   0.13941   0.39525   0.00000  Uiso   1.00
C657   C     0.51133   0.22392   0.38985   0.00000  Uiso   1.00
C658   C     0.30267   0.04857   0.28330   0.00000  Uiso   1.00
C659   C     0.32131   0.97538   0.28641   0.00000  Uiso   1.00
C660   C     0.33635   0.93487   0.24277   0.00000  Uiso   1.00
C661   C     0.35215   0.86929   0.25407   0.00000  Uiso   1.00
C662   C     0.23552   0.05484   0.31117   0.00000  Uiso   1.00
C663   C     0.17842   0.08117   0.28835   0.00000  Uiso   1.00
C664   C     0.12200   0.08250   0.32049   0.00000  Uiso   1.00
C665   C     0.35209   0.08506   0.31923   0.00000  Uiso   1.00
C666   C     0.39300   0.13679   0.30319   0.00000  Uiso   1.00
C667   C     0.43471   0.16358   0.34212   0.00000  Uiso   1.00
H668   H     0.30457   0.98536   0.42225   0.00000  Uiso   1.00
H669   H     0.33838   0.86706   0.39187   0.00000  Uiso   1.00
H670   H     0.18048   0.01334   0.43744   0.00000  Uiso   1.00
H671   H     0.39503   0.06896   0.45228   0.00000  Uiso   1.00
H672   H     0.37551   0.74653   0.33480   0.00000  Uiso   1.00
H673   H     0.04258   0.05500   0.43090   0.00000  Uiso   1.00
H674   H     0.49499   0.17228   0.46218   0.00000  Uiso   1.00
H675   H     0.30210   0.06736   0.24200   0.00000  Uiso   1.00
H676   H     0.33578   0.95356   0.20173   0.00000  Uiso   1.00
H677   H     0.17787   0.09984   0.24730   0.00000  Uiso   1.00
H678   H     0.39242   0.15546   0.26214   0.00000  Uiso   1.00
H679   H     0.37340   0.81674   0.18047   0.00000  Uiso   1.00
H680   H     0.04046   0.12520   0.27657   0.00000  Uiso   1.00
H681   H     0.49288   0.24249   0.30785   0.00000  Uiso   1.00
O682   O     0.39663   0.70528   0.23439   0.00000  Uiso   1.00
O683   O     0.95984   0.10999   0.36048   0.00000  Uiso   1.00
O684   O     0.55339   0.26386   0.40152   0.00000  Uiso   1.00
N685   N     0.37041   0.77868   0.30400   0.00000  Uiso   1.00
N686   N     0.05913   0.06706   0.39385   0.00000  Uiso   1.00
N687   N     0.48209   0.17673   0.42310   0.00000  Uiso   1.00
N688   N     0.36927   0.81645   0.22096   0.00000  Uiso   1.00
N689   N     0.05799   0.10484   0.31081   0.00000  Uiso   1.00
N690   N     0.48095   0.21450   0.34006   0.00000  Uiso   1.00
C691   C     0.80401   0.50415   0.88095   0.00000  Uiso   1.00
C692   C     0.82204   0.45124   0.83945   0.00000  Uiso   1.00
C693   C     0.83783   0.38572   0.85082   0.00000  Uiso   1.00
C694   C     0.85288   0.34512   0.80721   0.00000  Uiso   1.00
C695   C     0.88095   0.25929   0.75084   0.00000  Uiso   1.00
C696   C     0.73624   0.53071   0.86421   0.00000  Uiso   1.00
C697   C     0.67990   0.53201   0.89640   0.00000  Uiso   1.00
C698   C     0.62273   0.55833   0.87363   0.00000  Uiso   1.00
C699   C     0.51762   0.59593   0.85571   0.00000  Uiso   1.00
C700   C     0.85282   0.56093   0.87227   0.00000  Uiso   1.00
C701   C     0.89448   0.58765   0.91123   0.00000  Uiso   1.00
C702   C     0.93544   0.63941   0.89525   0.00000  Uiso   1.00
C703   C     0.01133   0.72392   0.88985   0.00000  Uiso   1.00
C704   C     0.80267   0.54857   0.78330   0.00000  Uiso   1.00
C705   C     0.82131   0.47538   0.78641   0.00000  Uiso   1.00
C706   C     0.83635   0.43487   0.74277   0.00000  Uiso   1.00
C707   C     0.85215   0.36929   0.75407   0.00000  Uiso   1.00
C708   C     0.73552   0.55484   0.81117   0.00000  Uiso   1.00
C709   C     0.67842   0.58117   0.78835   0.00000  Uiso   1.00
C710   C     0.62200   0.58250   0.82049   0.00000  Uiso   1.00
C711   C     0.85209   0.58506   0.81923   0.00000  Uiso   1.00
C712   C     0.89300   0.63679   0.80319   0.00000  Uiso   1.00
C713   C     0.93471   0.66358   0.84212   0.00000  Uiso   1.00
H714   H     0.80457   0.48536   0.92225   0.00000  Uiso   1.00
H715   H     0.83838   0.36706   0.89187   0.00000  Uiso   1.00
H716   H     0.68048   0.51334   0.93744   0.00000  Uiso   1.00
H717   H     0.89503   0.56896   0.95228   0.00000  Uiso   1.00
H718   H     0.87551   0.24653   0.83480   0.00000  Uiso   1.00
H719   H     0.54258   0.55500   0.93090   0.00000  Uiso   1.00
H720   H     0.99499   0.67228   0.96218   0.00000  Uiso   1.00
H721   H     0.80210   0.56736   0.74200   0.00000  Uiso   1.00
H722   H     0.83578   0.45356   0.70173   0.00000  Uiso   1.00
H723   H     0.67787   0.59984   0.74730   0.00000  Uiso   1.00
H724   H     0.89242   0.65546   0.76214   0.00000  Uiso   1.00
H725   H     0.87340   0.31674   0.68047   0.00000  Uiso   1.00
H726   H     0.54046   0.62520   0.77657   0.00000  Uiso   1.00
H727   H     0.99288   0.74249   0.80785   0.00000  Uiso   1.00
O728   O     0.89663   0.20528   0.73439   0.00000  Uiso   1.00
O729   O     0.45984   0.60999   0.86048   0.00000  Uiso   1.00
O730   O     0.05339   0.76386   0.90152   0.00000  Uiso   1.00
N731   N     0.87041   0.27868   0.80400   0.00000  Uiso   1.00
N732   N     0.55913   0.56706   0.89385   0.00000  Uiso   1.00
N733   N     0.98209   0.67673   0.92310   0.00000  Uiso   1.00
N734   N     0.86927   0.31645   0.72096   0.00000  Uiso   1.00
N735   N     0.55799   0.60484   0.81081   0.00000  Uiso   1.00
N736   N     0.98095   0.71450   0.84006   0.00000  Uiso   1.00
