data_job_03313
_audit_creation_date              2018-12-19
_audit_creation_method            'Materials Studio'
_symmetry_space_group_name_H-M    'P1'
_symmetry_Int_Tables_number       1
_symmetry_cell_setting            triclinic
loop_
_symmetry_equiv_pos_as_xyz
  x,y,z
_cell_length_a                    17.5170
_cell_length_b                    17.5170
_cell_length_c                    38.7439
_cell_angle_alpha                 90.0000
_cell_angle_beta                  90.0000
_cell_angle_gamma                 90.0000
loop_
_atom_site_label
_atom_site_type_symbol
_atom_site_fract_x
_atom_site_fract_y
_atom_site_fract_z
_atom_site_U_iso_or_equiv
_atom_site_adp_type
_atom_site_occupancy
C1     C     0.36141   0.84957   0.39108   0.00000  Uiso   1.00
C2     C     0.39554   0.81629   0.42401   0.00000  Uiso   1.00
C3     C     0.44663   0.85301   0.44577   0.00000  Uiso   1.00
C4     C     0.47118   0.81286   0.47461   0.00000  Uiso   1.00
C5     C     0.52812   0.77246   0.52470   0.00000  Uiso   1.00
C6     C     0.38129   0.79358   0.36231   0.00000  Uiso   1.00
C7     C     0.42039   0.81123   0.33219   0.00000  Uiso   1.00
C8     C     0.43293   0.75196   0.30908   0.00000  Uiso   1.00
C9     C     0.46769   0.67632   0.26337   0.00000  Uiso   1.00
C10    C     0.27502   0.84520   0.39548   0.00000  Uiso   1.00
C11    C     0.22475   0.90624   0.39325   0.00000  Uiso   1.00
C12    C     0.14781   0.89043   0.39806   0.00000  Uiso   1.00
C13    C     0.01756   0.89494   0.40385   0.00000  Uiso   1.00
C14    C     0.31415   0.71294   0.40358   0.00000  Uiso   1.00
C15    C     0.36987   0.74208   0.43080   0.00000  Uiso   1.00
C16    C     0.39435   0.70186   0.45961   0.00000  Uiso   1.00
C17    C     0.44547   0.73852   0.48141   0.00000  Uiso   1.00
C18    C     0.35562   0.71938   0.36910   0.00000  Uiso   1.00
C19    C     0.36810   0.66007   0.34603   0.00000  Uiso   1.00
C20    C     0.40722   0.67762   0.31589   0.00000  Uiso   1.00
C21    C     0.24934   0.77099   0.40228   0.00000  Uiso   1.00
C22    C     0.17247   0.75509   0.40709   0.00000  Uiso   1.00
C23    C     0.12210   0.81609   0.40486   0.00000  Uiso   1.00
H24    H     0.38140   0.90734   0.38579   0.00000  Uiso   1.00
H25    H     0.46649   0.91044   0.44051   0.00000  Uiso   1.00
H26    H     0.44024   0.86866   0.32694   0.00000  Uiso   1.00
H27    H     0.24464   0.96366   0.38799   0.00000  Uiso   1.00
H28    H     0.54954   0.88114   0.50416   0.00000  Uiso   1.00
H29    H     0.49417   0.79305   0.26470   0.00000  Uiso   1.00
H30    H     0.08169   0.99338   0.39343   0.00000  Uiso   1.00
H31    H     0.29416   0.65517   0.40887   0.00000  Uiso   1.00
H32    H     0.37447   0.64443   0.46486   0.00000  Uiso   1.00
H33    H     0.34823   0.60265   0.35129   0.00000  Uiso   1.00
H34    H     0.15262   0.69765   0.41234   0.00000  Uiso   1.00
H35    H     0.47486   0.66524   0.52393   0.00000  Uiso   1.00
H36    H     0.41948   0.57715   0.28446   0.00000  Uiso   1.00
H37    H     0.00701   0.77748   0.41320   0.00000  Uiso   1.00
O38    O     0.56662   0.77067   0.55045   0.00000  Uiso   1.00
O39    O     0.49396   0.65510   0.23628   0.00000  Uiso   1.00
O40    O     0.95281   0.91793   0.40518   0.00000  Uiso   1.00
N41    N     0.52093   0.83181   0.50113   0.00000  Uiso   1.00
N42    N     0.46917   0.74945   0.27725   0.00000  Uiso   1.00
N43    N     0.08354   0.93674   0.39760   0.00000  Uiso   1.00
N44    N     0.48074   0.71563   0.51177   0.00000  Uiso   1.00
N45    N     0.42898   0.63327   0.28789   0.00000  Uiso   1.00
N46    N     0.04335   0.82056   0.40823   0.00000  Uiso   1.00
C47    C     0.63859   0.15043   0.39108   0.00000  Uiso   1.00
C48    C     0.60446   0.18371   0.42401   0.00000  Uiso   1.00
C49    C     0.55337   0.14699   0.44577   0.00000  Uiso   1.00
C50    C     0.52882   0.18714   0.47461   0.00000  Uiso   1.00
C51    C     0.47188   0.22754   0.52470   0.00000  Uiso   1.00
C52    C     0.61871   0.20642   0.36231   0.00000  Uiso   1.00
C53    C     0.57961   0.18877   0.33219   0.00000  Uiso   1.00
C54    C     0.56707   0.24804   0.30908   0.00000  Uiso   1.00
C55    C     0.53231   0.32368   0.26337   0.00000  Uiso   1.00
C56    C     0.72498   0.15480   0.39548   0.00000  Uiso   1.00
C57    C     0.77525   0.09376   0.39325   0.00000  Uiso   1.00
C58    C     0.85219   0.10957   0.39806   0.00000  Uiso   1.00
C59    C     0.98244   0.10506   0.40385   0.00000  Uiso   1.00
C60    C     0.68585   0.28706   0.40358   0.00000  Uiso   1.00
C61    C     0.63013   0.25792   0.43080   0.00000  Uiso   1.00
C62    C     0.60565   0.29814   0.45961   0.00000  Uiso   1.00
C63    C     0.55453   0.26148   0.48141   0.00000  Uiso   1.00
C64    C     0.64438   0.28062   0.36910   0.00000  Uiso   1.00
C65    C     0.63190   0.33993   0.34603   0.00000  Uiso   1.00
C66    C     0.59278   0.32238   0.31589   0.00000  Uiso   1.00
C67    C     0.75066   0.22901   0.40228   0.00000  Uiso   1.00
C68    C     0.82753   0.24491   0.40709   0.00000  Uiso   1.00
C69    C     0.87790   0.18391   0.40486   0.00000  Uiso   1.00
H70    H     0.61860   0.09266   0.38579   0.00000  Uiso   1.00
H71    H     0.53351   0.08956   0.44051   0.00000  Uiso   1.00
H72    H     0.55976   0.13134   0.32694   0.00000  Uiso   1.00
H73    H     0.75536   0.03634   0.38799   0.00000  Uiso   1.00
H74    H     0.45046   0.11886   0.50416   0.00000  Uiso   1.00
H75    H     0.50583   0.20695   0.26470   0.00000  Uiso   1.00
H76    H     0.91831   0.00662   0.39343   0.00000  Uiso   1.00
H77    H     0.70584   0.34483   0.40887   0.00000  Uiso   1.00
H78    H     0.62553   0.35557   0.46486   0.00000  Uiso   1.00
H79    H     0.65177   0.39735   0.35129   0.00000  Uiso   1.00
H80    H     0.84738   0.30235   0.41234   0.00000  Uiso   1.00
H81    H     0.52514   0.33476   0.52393   0.00000  Uiso   1.00
H82    H     0.58052   0.42285   0.28446   0.00000  Uiso   1.00
H83    H     0.99299   0.22252   0.41320   0.00000  Uiso   1.00
O84    O     0.43338   0.22933   0.55045   0.00000  Uiso   1.00
O85    O     0.50604   0.34490   0.23628   0.00000  Uiso   1.00
O86    O     0.04719   0.08207   0.40518   0.00000  Uiso   1.00
N87    N     0.47907   0.16819   0.50113   0.00000  Uiso   1.00
N88    N     0.53083   0.25055   0.27725   0.00000  Uiso   1.00
N89    N     0.91646   0.06326   0.39760   0.00000  Uiso   1.00
N90    N     0.51926   0.28437   0.51177   0.00000  Uiso   1.00
N91    N     0.57102   0.36673   0.28789   0.00000  Uiso   1.00
N92    N     0.95665   0.17944   0.40823   0.00000  Uiso   1.00
C93    C     0.65043   0.86141   0.39108   0.00000  Uiso   1.00
C94    C     0.68371   0.89554   0.42401   0.00000  Uiso   1.00
C95    C     0.64699   0.94663   0.44577   0.00000  Uiso   1.00
C96    C     0.68714   0.97118   0.47461   0.00000  Uiso   1.00
C97    C     0.72754   0.02812   0.52470   0.00000  Uiso   1.00
C98    C     0.70642   0.88129   0.36231   0.00000  Uiso   1.00
C99    C     0.68877   0.92039   0.33219   0.00000  Uiso   1.00
C100   C     0.74804   0.93293   0.30908   0.00000  Uiso   1.00
C101   C     0.82368   0.96769   0.26337   0.00000  Uiso   1.00
C102   C     0.65480   0.77502   0.39548   0.00000  Uiso   1.00
C103   C     0.59376   0.72475   0.39325   0.00000  Uiso   1.00
C104   C     0.60957   0.64781   0.39806   0.00000  Uiso   1.00
C105   C     0.60506   0.51756   0.40385   0.00000  Uiso   1.00
C106   C     0.78706   0.81415   0.40358   0.00000  Uiso   1.00
C107   C     0.75792   0.86987   0.43080   0.00000  Uiso   1.00
C108   C     0.79814   0.89435   0.45961   0.00000  Uiso   1.00
C109   C     0.76148   0.94547   0.48141   0.00000  Uiso   1.00
C110   C     0.78062   0.85562   0.36910   0.00000  Uiso   1.00
C111   C     0.83993   0.86810   0.34603   0.00000  Uiso   1.00
C112   C     0.82238   0.90722   0.31589   0.00000  Uiso   1.00
C113   C     0.72901   0.74934   0.40228   0.00000  Uiso   1.00
C114   C     0.74491   0.67247   0.40709   0.00000  Uiso   1.00
C115   C     0.68391   0.62210   0.40486   0.00000  Uiso   1.00
H116   H     0.59266   0.88140   0.38579   0.00000  Uiso   1.00
H117   H     0.58956   0.96649   0.44051   0.00000  Uiso   1.00
H118   H     0.63134   0.94024   0.32694   0.00000  Uiso   1.00
H119   H     0.53634   0.74464   0.38799   0.00000  Uiso   1.00
H120   H     0.61886   0.04954   0.50416   0.00000  Uiso   1.00
H121   H     0.70695   0.99417   0.26470   0.00000  Uiso   1.00
H122   H     0.50662   0.58169   0.39343   0.00000  Uiso   1.00
H123   H     0.84483   0.79416   0.40887   0.00000  Uiso   1.00
H124   H     0.85557   0.87447   0.46486   0.00000  Uiso   1.00
H125   H     0.89735   0.84823   0.35129   0.00000  Uiso   1.00
H126   H     0.80235   0.65262   0.41234   0.00000  Uiso   1.00
H127   H     0.83476   0.97486   0.52393   0.00000  Uiso   1.00
H128   H     0.92285   0.91948   0.28446   0.00000  Uiso   1.00
H129   H     0.72252   0.50701   0.41320   0.00000  Uiso   1.00
O130   O     0.72933   0.06662   0.55045   0.00000  Uiso   1.00
O131   O     0.84490   0.99396   0.23628   0.00000  Uiso   1.00
O132   O     0.58207   0.45281   0.40518   0.00000  Uiso   1.00
N133   N     0.66819   0.02093   0.50113   0.00000  Uiso   1.00
N134   N     0.75055   0.96917   0.27725   0.00000  Uiso   1.00
N135   N     0.56326   0.58354   0.39760   0.00000  Uiso   1.00
N136   N     0.78437   0.98074   0.51177   0.00000  Uiso   1.00
N137   N     0.86673   0.92898   0.28789   0.00000  Uiso   1.00
N138   N     0.67944   0.54335   0.40823   0.00000  Uiso   1.00
C139   C     0.34957   0.13859   0.39108   0.00000  Uiso   1.00
C140   C     0.31629   0.10446   0.42401   0.00000  Uiso   1.00
C141   C     0.35301   0.05337   0.44577   0.00000  Uiso   1.00
C142   C     0.31286   0.02882   0.47461   0.00000  Uiso   1.00
C143   C     0.27246   0.97188   0.52470   0.00000  Uiso   1.00
C144   C     0.29358   0.11871   0.36231   0.00000  Uiso   1.00
C145   C     0.31123   0.07961   0.33219   0.00000  Uiso   1.00
C146   C     0.25196   0.06707   0.30908   0.00000  Uiso   1.00
C147   C     0.17632   0.03231   0.26337   0.00000  Uiso   1.00
C148   C     0.34520   0.22498   0.39548   0.00000  Uiso   1.00
C149   C     0.40624   0.27525   0.39325   0.00000  Uiso   1.00
C150   C     0.39043   0.35219   0.39806   0.00000  Uiso   1.00
C151   C     0.39494   0.48244   0.40385   0.00000  Uiso   1.00
C152   C     0.21294   0.18585   0.40358   0.00000  Uiso   1.00
C153   C     0.24208   0.13013   0.43080   0.00000  Uiso   1.00
C154   C     0.20186   0.10565   0.45961   0.00000  Uiso   1.00
C155   C     0.23852   0.05453   0.48141   0.00000  Uiso   1.00
C156   C     0.21938   0.14438   0.36910   0.00000  Uiso   1.00
C157   C     0.16007   0.13190   0.34603   0.00000  Uiso   1.00
C158   C     0.17762   0.09278   0.31589   0.00000  Uiso   1.00
C159   C     0.27099   0.25066   0.40228   0.00000  Uiso   1.00
C160   C     0.25509   0.32753   0.40709   0.00000  Uiso   1.00
C161   C     0.31609   0.37790   0.40486   0.00000  Uiso   1.00
H162   H     0.40734   0.11860   0.38579   0.00000  Uiso   1.00
H163   H     0.41044   0.03351   0.44051   0.00000  Uiso   1.00
H164   H     0.36866   0.05976   0.32694   0.00000  Uiso   1.00
H165   H     0.46366   0.25536   0.38799   0.00000  Uiso   1.00
H166   H     0.38114   0.95046   0.50416   0.00000  Uiso   1.00
H167   H     0.29305   0.00583   0.26470   0.00000  Uiso   1.00
H168   H     0.49338   0.41831   0.39343   0.00000  Uiso   1.00
H169   H     0.15517   0.20584   0.40887   0.00000  Uiso   1.00
H170   H     0.14443   0.12553   0.46486   0.00000  Uiso   1.00
H171   H     0.10265   0.15177   0.35129   0.00000  Uiso   1.00
H172   H     0.19765   0.34738   0.41234   0.00000  Uiso   1.00
H173   H     0.16524   0.02514   0.52393   0.00000  Uiso   1.00
H174   H     0.07715   0.08052   0.28446   0.00000  Uiso   1.00
H175   H     0.27748   0.49299   0.41320   0.00000  Uiso   1.00
O176   O     0.27067   0.93338   0.55045   0.00000  Uiso   1.00
O177   O     0.15510   0.00604   0.23628   0.00000  Uiso   1.00
O178   O     0.41793   0.54719   0.40518   0.00000  Uiso   1.00
N179   N     0.33181   0.97907   0.50113   0.00000  Uiso   1.00
N180   N     0.24945   0.03083   0.27725   0.00000  Uiso   1.00
N181   N     0.43674   0.41646   0.39760   0.00000  Uiso   1.00
N182   N     0.21563   0.01926   0.51177   0.00000  Uiso   1.00
N183   N     0.13327   0.07102   0.28789   0.00000  Uiso   1.00
N184   N     0.32056   0.45665   0.40823   0.00000  Uiso   1.00
C185   C     0.13859   0.34957   0.10892   0.00000  Uiso   1.00
C186   C     0.10446   0.31629   0.07599   0.00000  Uiso   1.00
C187   C     0.05337   0.35301   0.05423   0.00000  Uiso   1.00
C188   C     0.02882   0.31286   0.02539   0.00000  Uiso   1.00
C189   C     0.97188   0.27246   0.97530   0.00000  Uiso   1.00
C190   C     0.11871   0.29358   0.13769   0.00000  Uiso   1.00
C191   C     0.07961   0.31123   0.16781   0.00000  Uiso   1.00
C192   C     0.06707   0.25196   0.19092   0.00000  Uiso   1.00
C193   C     0.03231   0.17632   0.23663   0.00000  Uiso   1.00
C194   C     0.22498   0.34520   0.10452   0.00000  Uiso   1.00
C195   C     0.27525   0.40624   0.10675   0.00000  Uiso   1.00
C196   C     0.35219   0.39043   0.10194   0.00000  Uiso   1.00
C197   C     0.48244   0.39494   0.09615   0.00000  Uiso   1.00
C198   C     0.18585   0.21294   0.09642   0.00000  Uiso   1.00
C199   C     0.13013   0.24208   0.06920   0.00000  Uiso   1.00
C200   C     0.10565   0.20186   0.04039   0.00000  Uiso   1.00
C201   C     0.05453   0.23852   0.01859   0.00000  Uiso   1.00
C202   C     0.14438   0.21938   0.13090   0.00000  Uiso   1.00
C203   C     0.13190   0.16007   0.15397   0.00000  Uiso   1.00
C204   C     0.09278   0.17762   0.18411   0.00000  Uiso   1.00
C205   C     0.25066   0.27099   0.09772   0.00000  Uiso   1.00
C206   C     0.32753   0.25509   0.09291   0.00000  Uiso   1.00
C207   C     0.37790   0.31609   0.09514   0.00000  Uiso   1.00
H208   H     0.11860   0.40734   0.11421   0.00000  Uiso   1.00
H209   H     0.03351   0.41044   0.05949   0.00000  Uiso   1.00
H210   H     0.05976   0.36866   0.17306   0.00000  Uiso   1.00
H211   H     0.25536   0.46366   0.11201   0.00000  Uiso   1.00
H212   H     0.95046   0.38114   0.99584   0.00000  Uiso   1.00
H213   H     0.00583   0.29305   0.23530   0.00000  Uiso   1.00
H214   H     0.41831   0.49338   0.10657   0.00000  Uiso   1.00
H215   H     0.20584   0.15517   0.09113   0.00000  Uiso   1.00
H216   H     0.12553   0.14443   0.03514   0.00000  Uiso   1.00
H217   H     0.15177   0.10265   0.14871   0.00000  Uiso   1.00
H218   H     0.34738   0.19765   0.08766   0.00000  Uiso   1.00
H219   H     0.02514   0.16524   0.97607   0.00000  Uiso   1.00
H220   H     0.08052   0.07715   0.21554   0.00000  Uiso   1.00
H221   H     0.49299   0.27748   0.08680   0.00000  Uiso   1.00
O222   O     0.93338   0.27067   0.94955   0.00000  Uiso   1.00
O223   O     0.00604   0.15510   0.26372   0.00000  Uiso   1.00
O224   O     0.54719   0.41793   0.09482   0.00000  Uiso   1.00
N225   N     0.97907   0.33181   0.99887   0.00000  Uiso   1.00
N226   N     0.03083   0.24945   0.22275   0.00000  Uiso   1.00
N227   N     0.41646   0.43674   0.10240   0.00000  Uiso   1.00
N228   N     0.01926   0.21563   0.98823   0.00000  Uiso   1.00
N229   N     0.07102   0.13327   0.21211   0.00000  Uiso   1.00
N230   N     0.45665   0.32056   0.09177   0.00000  Uiso   1.00
C231   C     0.86141   0.65043   0.10892   0.00000  Uiso   1.00
C232   C     0.89554   0.68371   0.07599   0.00000  Uiso   1.00
C233   C     0.94663   0.64699   0.05423   0.00000  Uiso   1.00
C234   C     0.97118   0.68714   0.02539   0.00000  Uiso   1.00
C235   C     0.02812   0.72754   0.97530   0.00000  Uiso   1.00
C236   C     0.88129   0.70642   0.13769   0.00000  Uiso   1.00
C237   C     0.92039   0.68877   0.16781   0.00000  Uiso   1.00
C238   C     0.93293   0.74804   0.19092   0.00000  Uiso   1.00
C239   C     0.96769   0.82368   0.23663   0.00000  Uiso   1.00
C240   C     0.77502   0.65480   0.10452   0.00000  Uiso   1.00
C241   C     0.72475   0.59376   0.10675   0.00000  Uiso   1.00
C242   C     0.64781   0.60957   0.10194   0.00000  Uiso   1.00
C243   C     0.51756   0.60506   0.09615   0.00000  Uiso   1.00
C244   C     0.81415   0.78706   0.09642   0.00000  Uiso   1.00
C245   C     0.86987   0.75792   0.06920   0.00000  Uiso   1.00
C246   C     0.89435   0.79814   0.04039   0.00000  Uiso   1.00
C247   C     0.94547   0.76148   0.01859   0.00000  Uiso   1.00
C248   C     0.85562   0.78062   0.13090   0.00000  Uiso   1.00
C249   C     0.86810   0.83993   0.15397   0.00000  Uiso   1.00
C250   C     0.90722   0.82238   0.18411   0.00000  Uiso   1.00
C251   C     0.74934   0.72901   0.09772   0.00000  Uiso   1.00
C252   C     0.67247   0.74491   0.09291   0.00000  Uiso   1.00
C253   C     0.62210   0.68391   0.09514   0.00000  Uiso   1.00
H254   H     0.88140   0.59266   0.11421   0.00000  Uiso   1.00
H255   H     0.96649   0.58956   0.05949   0.00000  Uiso   1.00
H256   H     0.94024   0.63134   0.17306   0.00000  Uiso   1.00
H257   H     0.74464   0.53634   0.11201   0.00000  Uiso   1.00
H258   H     0.04954   0.61886   0.99584   0.00000  Uiso   1.00
H259   H     0.99417   0.70695   0.23530   0.00000  Uiso   1.00
H260   H     0.58169   0.50662   0.10657   0.00000  Uiso   1.00
H261   H     0.79416   0.84483   0.09113   0.00000  Uiso   1.00
H262   H     0.87447   0.85557   0.03514   0.00000  Uiso   1.00
H263   H     0.84823   0.89735   0.14871   0.00000  Uiso   1.00
H264   H     0.65262   0.80235   0.08766   0.00000  Uiso   1.00
H265   H     0.97486   0.83476   0.97607   0.00000  Uiso   1.00
H266   H     0.91948   0.92285   0.21554   0.00000  Uiso   1.00
H267   H     0.50701   0.72252   0.08680   0.00000  Uiso   1.00
O268   O     0.06662   0.72933   0.94955   0.00000  Uiso   1.00
O269   O     0.99396   0.84490   0.26372   0.00000  Uiso   1.00
O270   O     0.45281   0.58207   0.09482   0.00000  Uiso   1.00
N271   N     0.02093   0.66819   0.99887   0.00000  Uiso   1.00
N272   N     0.96917   0.75055   0.22275   0.00000  Uiso   1.00
N273   N     0.58354   0.56326   0.10240   0.00000  Uiso   1.00
N274   N     0.98074   0.78437   0.98823   0.00000  Uiso   1.00
N275   N     0.92898   0.86673   0.21211   0.00000  Uiso   1.00
N276   N     0.54335   0.67944   0.09177   0.00000  Uiso   1.00
C277   C     0.84957   0.36141   0.10892   0.00000  Uiso   1.00
C278   C     0.81629   0.39554   0.07599   0.00000  Uiso   1.00
C279   C     0.85301   0.44663   0.05423   0.00000  Uiso   1.00
C280   C     0.81286   0.47118   0.02539   0.00000  Uiso   1.00
C281   C     0.77246   0.52812   0.97530   0.00000  Uiso   1.00
C282   C     0.79358   0.38129   0.13769   0.00000  Uiso   1.00
C283   C     0.81123   0.42039   0.16781   0.00000  Uiso   1.00
C284   C     0.75196   0.43293   0.19092   0.00000  Uiso   1.00
C285   C     0.67632   0.46769   0.23663   0.00000  Uiso   1.00
C286   C     0.84520   0.27502   0.10452   0.00000  Uiso   1.00
C287   C     0.90624   0.22475   0.10675   0.00000  Uiso   1.00
C288   C     0.89043   0.14781   0.10194   0.00000  Uiso   1.00
C289   C     0.89494   0.01756   0.09615   0.00000  Uiso   1.00
C290   C     0.71294   0.31415   0.09642   0.00000  Uiso   1.00
C291   C     0.74208   0.36987   0.06920   0.00000  Uiso   1.00
C292   C     0.70186   0.39435   0.04039   0.00000  Uiso   1.00
C293   C     0.73852   0.44547   0.01859   0.00000  Uiso   1.00
C294   C     0.71938   0.35562   0.13090   0.00000  Uiso   1.00
C295   C     0.66007   0.36810   0.15397   0.00000  Uiso   1.00
C296   C     0.67762   0.40722   0.18411   0.00000  Uiso   1.00
C297   C     0.77099   0.24934   0.09772   0.00000  Uiso   1.00
C298   C     0.75509   0.17247   0.09291   0.00000  Uiso   1.00
C299   C     0.81609   0.12210   0.09514   0.00000  Uiso   1.00
H300   H     0.90734   0.38140   0.11421   0.00000  Uiso   1.00
H301   H     0.91044   0.46649   0.05949   0.00000  Uiso   1.00
H302   H     0.86866   0.44024   0.17306   0.00000  Uiso   1.00
H303   H     0.96366   0.24464   0.11201   0.00000  Uiso   1.00
H304   H     0.88114   0.54954   0.99584   0.00000  Uiso   1.00
H305   H     0.79305   0.49417   0.23530   0.00000  Uiso   1.00
H306   H     0.99338   0.08169   0.10657   0.00000  Uiso   1.00
H307   H     0.65517   0.29416   0.09113   0.00000  Uiso   1.00
H308   H     0.64443   0.37447   0.03514   0.00000  Uiso   1.00
H309   H     0.60265   0.34823   0.14871   0.00000  Uiso   1.00
H310   H     0.69765   0.15262   0.08766   0.00000  Uiso   1.00
H311   H     0.66524   0.47486   0.97607   0.00000  Uiso   1.00
H312   H     0.57715   0.41948   0.21554   0.00000  Uiso   1.00
H313   H     0.77748   0.00701   0.08680   0.00000  Uiso   1.00
O314   O     0.77067   0.56662   0.94955   0.00000  Uiso   1.00
O315   O     0.65510   0.49396   0.26372   0.00000  Uiso   1.00
O316   O     0.91793   0.95281   0.09482   0.00000  Uiso   1.00
N317   N     0.83181   0.52093   0.99887   0.00000  Uiso   1.00
N318   N     0.74945   0.46917   0.22275   0.00000  Uiso   1.00
N319   N     0.93674   0.08354   0.10240   0.00000  Uiso   1.00
N320   N     0.71563   0.48074   0.98823   0.00000  Uiso   1.00
N321   N     0.63327   0.42898   0.21211   0.00000  Uiso   1.00
N322   N     0.82056   0.04335   0.09177   0.00000  Uiso   1.00
C323   C     0.15043   0.63859   0.10892   0.00000  Uiso   1.00
C324   C     0.18371   0.60446   0.07599   0.00000  Uiso   1.00
C325   C     0.14699   0.55337   0.05423   0.00000  Uiso   1.00
C326   C     0.18714   0.52882   0.02539   0.00000  Uiso   1.00
C327   C     0.22754   0.47188   0.97530   0.00000  Uiso   1.00
C328   C     0.20642   0.61871   0.13769   0.00000  Uiso   1.00
C329   C     0.18877   0.57961   0.16781   0.00000  Uiso   1.00
C330   C     0.24804   0.56707   0.19092   0.00000  Uiso   1.00
C331   C     0.32368   0.53231   0.23663   0.00000  Uiso   1.00
C332   C     0.15480   0.72498   0.10452   0.00000  Uiso   1.00
C333   C     0.09376   0.77525   0.10675   0.00000  Uiso   1.00
C334   C     0.10957   0.85219   0.10194   0.00000  Uiso   1.00
C335   C     0.10506   0.98244   0.09615   0.00000  Uiso   1.00
C336   C     0.28706   0.68585   0.09642   0.00000  Uiso   1.00
C337   C     0.25792   0.63013   0.06920   0.00000  Uiso   1.00
C338   C     0.29814   0.60565   0.04039   0.00000  Uiso   1.00
C339   C     0.26148   0.55453   0.01859   0.00000  Uiso   1.00
C340   C     0.28062   0.64438   0.13090   0.00000  Uiso   1.00
C341   C     0.33993   0.63190   0.15397   0.00000  Uiso   1.00
C342   C     0.32238   0.59278   0.18411   0.00000  Uiso   1.00
C343   C     0.22901   0.75066   0.09772   0.00000  Uiso   1.00
C344   C     0.24491   0.82753   0.09291   0.00000  Uiso   1.00
C345   C     0.18391   0.87790   0.09514   0.00000  Uiso   1.00
H346   H     0.09266   0.61860   0.11421   0.00000  Uiso   1.00
H347   H     0.08956   0.53351   0.05949   0.00000  Uiso   1.00
H348   H     0.13134   0.55976   0.17306   0.00000  Uiso   1.00
H349   H     0.03634   0.75536   0.11201   0.00000  Uiso   1.00
H350   H     0.11886   0.45046   0.99584   0.00000  Uiso   1.00
H351   H     0.20695   0.50583   0.23530   0.00000  Uiso   1.00
H352   H     0.00662   0.91831   0.10657   0.00000  Uiso   1.00
H353   H     0.34483   0.70584   0.09113   0.00000  Uiso   1.00
H354   H     0.35557   0.62553   0.03514   0.00000  Uiso   1.00
H355   H     0.39735   0.65177   0.14871   0.00000  Uiso   1.00
H356   H     0.30235   0.84738   0.08766   0.00000  Uiso   1.00
H357   H     0.33476   0.52514   0.97607   0.00000  Uiso   1.00
H358   H     0.42285   0.58052   0.21554   0.00000  Uiso   1.00
H359   H     0.22252   0.99299   0.08680   0.00000  Uiso   1.00
O360   O     0.22933   0.43338   0.94955   0.00000  Uiso   1.00
O361   O     0.34490   0.50604   0.26372   0.00000  Uiso   1.00
O362   O     0.08207   0.04719   0.09482   0.00000  Uiso   1.00
N363   N     0.16819   0.47907   0.99887   0.00000  Uiso   1.00
N364   N     0.25055   0.53083   0.22275   0.00000  Uiso   1.00
N365   N     0.06326   0.91646   0.10240   0.00000  Uiso   1.00
N366   N     0.28437   0.51926   0.98823   0.00000  Uiso   1.00
N367   N     0.36673   0.57102   0.21211   0.00000  Uiso   1.00
N368   N     0.17944   0.95665   0.09177   0.00000  Uiso   1.00
C369   C     0.13859   0.65043   0.60892   0.00000  Uiso   1.00
C370   C     0.10446   0.68371   0.57599   0.00000  Uiso   1.00
C371   C     0.05337   0.64699   0.55423   0.00000  Uiso   1.00
C372   C     0.02882   0.68714   0.52539   0.00000  Uiso   1.00
C373   C     0.97188   0.72754   0.47530   0.00000  Uiso   1.00
C374   C     0.11871   0.70642   0.63769   0.00000  Uiso   1.00
C375   C     0.07961   0.68877   0.66781   0.00000  Uiso   1.00
C376   C     0.06707   0.74804   0.69092   0.00000  Uiso   1.00
C377   C     0.03231   0.82368   0.73663   0.00000  Uiso   1.00
C378   C     0.22498   0.65480   0.60452   0.00000  Uiso   1.00
C379   C     0.27525   0.59376   0.60675   0.00000  Uiso   1.00
C380   C     0.35219   0.60957   0.60194   0.00000  Uiso   1.00
C381   C     0.48244   0.60506   0.59615   0.00000  Uiso   1.00
C382   C     0.18585   0.78706   0.59642   0.00000  Uiso   1.00
C383   C     0.13013   0.75792   0.56920   0.00000  Uiso   1.00
C384   C     0.10565   0.79814   0.54039   0.00000  Uiso   1.00
C385   C     0.05453   0.76148   0.51859   0.00000  Uiso   1.00
C386   C     0.14438   0.78062   0.63090   0.00000  Uiso   1.00
C387   C     0.13190   0.83993   0.65397   0.00000  Uiso   1.00
C388   C     0.09278   0.82238   0.68411   0.00000  Uiso   1.00
C389   C     0.25066   0.72901   0.59772   0.00000  Uiso   1.00
C390   C     0.32753   0.74491   0.59291   0.00000  Uiso   1.00
C391   C     0.37790   0.68391   0.59514   0.00000  Uiso   1.00
H392   H     0.11860   0.59266   0.61421   0.00000  Uiso   1.00
H393   H     0.03351   0.58956   0.55949   0.00000  Uiso   1.00
H394   H     0.05976   0.63134   0.67306   0.00000  Uiso   1.00
H395   H     0.25536   0.53634   0.61201   0.00000  Uiso   1.00
H396   H     0.95046   0.61886   0.49584   0.00000  Uiso   1.00
H397   H     0.00583   0.70695   0.73530   0.00000  Uiso   1.00
H398   H     0.41831   0.50662   0.60657   0.00000  Uiso   1.00
H399   H     0.20584   0.84483   0.59113   0.00000  Uiso   1.00
H400   H     0.12553   0.85557   0.53514   0.00000  Uiso   1.00
H401   H     0.15177   0.89735   0.64871   0.00000  Uiso   1.00
H402   H     0.34738   0.80235   0.58766   0.00000  Uiso   1.00
H403   H     0.02514   0.83476   0.47607   0.00000  Uiso   1.00
H404   H     0.08052   0.92285   0.71554   0.00000  Uiso   1.00
H405   H     0.49299   0.72252   0.58680   0.00000  Uiso   1.00
O406   O     0.93338   0.72933   0.44955   0.00000  Uiso   1.00
O407   O     0.00604   0.84490   0.76372   0.00000  Uiso   1.00
O408   O     0.54719   0.58207   0.59482   0.00000  Uiso   1.00
N409   N     0.97907   0.66819   0.49887   0.00000  Uiso   1.00
N410   N     0.03083   0.75055   0.72275   0.00000  Uiso   1.00
N411   N     0.41646   0.56326   0.60240   0.00000  Uiso   1.00
N412   N     0.01926   0.78437   0.48823   0.00000  Uiso   1.00
N413   N     0.07102   0.86673   0.71211   0.00000  Uiso   1.00
N414   N     0.45665   0.67944   0.59177   0.00000  Uiso   1.00
C415   C     0.86141   0.34957   0.60892   0.00000  Uiso   1.00
C416   C     0.89554   0.31629   0.57599   0.00000  Uiso   1.00
C417   C     0.94663   0.35301   0.55423   0.00000  Uiso   1.00
C418   C     0.97118   0.31286   0.52539   0.00000  Uiso   1.00
C419   C     0.02812   0.27246   0.47530   0.00000  Uiso   1.00
C420   C     0.88129   0.29358   0.63769   0.00000  Uiso   1.00
C421   C     0.92039   0.31123   0.66781   0.00000  Uiso   1.00
C422   C     0.93293   0.25196   0.69092   0.00000  Uiso   1.00
C423   C     0.96769   0.17632   0.73663   0.00000  Uiso   1.00
C424   C     0.77502   0.34520   0.60452   0.00000  Uiso   1.00
C425   C     0.72475   0.40624   0.60675   0.00000  Uiso   1.00
C426   C     0.64781   0.39043   0.60194   0.00000  Uiso   1.00
C427   C     0.51756   0.39494   0.59615   0.00000  Uiso   1.00
C428   C     0.81415   0.21294   0.59642   0.00000  Uiso   1.00
C429   C     0.86987   0.24208   0.56920   0.00000  Uiso   1.00
C430   C     0.89435   0.20186   0.54039   0.00000  Uiso   1.00
C431   C     0.94547   0.23852   0.51859   0.00000  Uiso   1.00
C432   C     0.85562   0.21938   0.63090   0.00000  Uiso   1.00
C433   C     0.86810   0.16007   0.65397   0.00000  Uiso   1.00
C434   C     0.90722   0.17762   0.68411   0.00000  Uiso   1.00
C435   C     0.74934   0.27099   0.59772   0.00000  Uiso   1.00
C436   C     0.67247   0.25509   0.59291   0.00000  Uiso   1.00
C437   C     0.62210   0.31609   0.59514   0.00000  Uiso   1.00
H438   H     0.88140   0.40734   0.61421   0.00000  Uiso   1.00
H439   H     0.96649   0.41044   0.55949   0.00000  Uiso   1.00
H440   H     0.94024   0.36866   0.67306   0.00000  Uiso   1.00
H441   H     0.74464   0.46366   0.61201   0.00000  Uiso   1.00
H442   H     0.04954   0.38114   0.49584   0.00000  Uiso   1.00
H443   H     0.99417   0.29305   0.73530   0.00000  Uiso   1.00
H444   H     0.58169   0.49338   0.60657   0.00000  Uiso   1.00
H445   H     0.79416   0.15517   0.59113   0.00000  Uiso   1.00
H446   H     0.87447   0.14443   0.53514   0.00000  Uiso   1.00
H447   H     0.84823   0.10265   0.64871   0.00000  Uiso   1.00
H448   H     0.65262   0.19765   0.58766   0.00000  Uiso   1.00
H449   H     0.97486   0.16524   0.47607   0.00000  Uiso   1.00
H450   H     0.91948   0.07715   0.71554   0.00000  Uiso   1.00
H451   H     0.50701   0.27748   0.58680   0.00000  Uiso   1.00
O452   O     0.06662   0.27067   0.44955   0.00000  Uiso   1.00
O453   O     0.99396   0.15510   0.76372   0.00000  Uiso   1.00
O454   O     0.45281   0.41793   0.59482   0.00000  Uiso   1.00
N455   N     0.02093   0.33181   0.49887   0.00000  Uiso   1.00
N456   N     0.96917   0.24945   0.72275   0.00000  Uiso   1.00
N457   N     0.58354   0.43674   0.60240   0.00000  Uiso   1.00
N458   N     0.98074   0.21563   0.48823   0.00000  Uiso   1.00
N459   N     0.92898   0.13327   0.71211   0.00000  Uiso   1.00
N460   N     0.54335   0.32056   0.59177   0.00000  Uiso   1.00
C461   C     0.84957   0.63859   0.60892   0.00000  Uiso   1.00
C462   C     0.81629   0.60446   0.57599   0.00000  Uiso   1.00
C463   C     0.85301   0.55337   0.55423   0.00000  Uiso   1.00
C464   C     0.81286   0.52882   0.52539   0.00000  Uiso   1.00
C465   C     0.77246   0.47188   0.47530   0.00000  Uiso   1.00
C466   C     0.79358   0.61871   0.63769   0.00000  Uiso   1.00
C467   C     0.81123   0.57961   0.66781   0.00000  Uiso   1.00
C468   C     0.75196   0.56707   0.69092   0.00000  Uiso   1.00
C469   C     0.67632   0.53231   0.73663   0.00000  Uiso   1.00
C470   C     0.84520   0.72498   0.60452   0.00000  Uiso   1.00
C471   C     0.90624   0.77525   0.60675   0.00000  Uiso   1.00
C472   C     0.89043   0.85219   0.60194   0.00000  Uiso   1.00
C473   C     0.89494   0.98244   0.59615   0.00000  Uiso   1.00
C474   C     0.71294   0.68585   0.59642   0.00000  Uiso   1.00
C475   C     0.74208   0.63013   0.56920   0.00000  Uiso   1.00
C476   C     0.70186   0.60565   0.54039   0.00000  Uiso   1.00
C477   C     0.73852   0.55453   0.51859   0.00000  Uiso   1.00
C478   C     0.71938   0.64438   0.63090   0.00000  Uiso   1.00
C479   C     0.66007   0.63190   0.65397   0.00000  Uiso   1.00
C480   C     0.67762   0.59278   0.68411   0.00000  Uiso   1.00
C481   C     0.77099   0.75066   0.59772   0.00000  Uiso   1.00
C482   C     0.75509   0.82753   0.59291   0.00000  Uiso   1.00
C483   C     0.81609   0.87790   0.59514   0.00000  Uiso   1.00
H484   H     0.90734   0.61860   0.61421   0.00000  Uiso   1.00
H485   H     0.91044   0.53351   0.55949   0.00000  Uiso   1.00
H486   H     0.86866   0.55976   0.67306   0.00000  Uiso   1.00
H487   H     0.96366   0.75536   0.61201   0.00000  Uiso   1.00
H488   H     0.88114   0.45046   0.49584   0.00000  Uiso   1.00
H489   H     0.79305   0.50583   0.73530   0.00000  Uiso   1.00
H490   H     0.99338   0.91831   0.60657   0.00000  Uiso   1.00
H491   H     0.65517   0.70584   0.59113   0.00000  Uiso   1.00
H492   H     0.64443   0.62553   0.53514   0.00000  Uiso   1.00
H493   H     0.60265   0.65177   0.64871   0.00000  Uiso   1.00
H494   H     0.69765   0.84738   0.58766   0.00000  Uiso   1.00
H495   H     0.66524   0.52514   0.47607   0.00000  Uiso   1.00
H496   H     0.57715   0.58052   0.71554   0.00000  Uiso   1.00
H497   H     0.77748   0.99299   0.58680   0.00000  Uiso   1.00
O498   O     0.77067   0.43338   0.44955   0.00000  Uiso   1.00
O499   O     0.65510   0.50604   0.76372   0.00000  Uiso   1.00
O500   O     0.91793   0.04719   0.59482   0.00000  Uiso   1.00
N501   N     0.83181   0.47907   0.49887   0.00000  Uiso   1.00
N502   N     0.74945   0.53083   0.72275   0.00000  Uiso   1.00
N503   N     0.93674   0.91646   0.60240   0.00000  Uiso   1.00
N504   N     0.71563   0.51926   0.48823   0.00000  Uiso   1.00
N505   N     0.63327   0.57102   0.71211   0.00000  Uiso   1.00
N506   N     0.82056   0.95665   0.59177   0.00000  Uiso   1.00
C507   C     0.15043   0.36141   0.60892   0.00000  Uiso   1.00
C508   C     0.18371   0.39554   0.57599   0.00000  Uiso   1.00
C509   C     0.14699   0.44663   0.55423   0.00000  Uiso   1.00
C510   C     0.18714   0.47118   0.52539   0.00000  Uiso   1.00
C511   C     0.22754   0.52812   0.47530   0.00000  Uiso   1.00
C512   C     0.20642   0.38129   0.63769   0.00000  Uiso   1.00
C513   C     0.18877   0.42039   0.66781   0.00000  Uiso   1.00
C514   C     0.24804   0.43293   0.69092   0.00000  Uiso   1.00
C515   C     0.32368   0.46769   0.73663   0.00000  Uiso   1.00
C516   C     0.15480   0.27502   0.60452   0.00000  Uiso   1.00
C517   C     0.09376   0.22475   0.60675   0.00000  Uiso   1.00
C518   C     0.10957   0.14781   0.60194   0.00000  Uiso   1.00
C519   C     0.10506   0.01756   0.59615   0.00000  Uiso   1.00
C520   C     0.28706   0.31415   0.59642   0.00000  Uiso   1.00
C521   C     0.25792   0.36987   0.56920   0.00000  Uiso   1.00
C522   C     0.29814   0.39435   0.54039   0.00000  Uiso   1.00
C523   C     0.26148   0.44547   0.51859   0.00000  Uiso   1.00
C524   C     0.28062   0.35562   0.63090   0.00000  Uiso   1.00
C525   C     0.33993   0.36810   0.65397   0.00000  Uiso   1.00
C526   C     0.32238   0.40722   0.68411   0.00000  Uiso   1.00
C527   C     0.22901   0.24934   0.59772   0.00000  Uiso   1.00
C528   C     0.24491   0.17247   0.59291   0.00000  Uiso   1.00
C529   C     0.18391   0.12210   0.59514   0.00000  Uiso   1.00
H530   H     0.09266   0.38140   0.61421   0.00000  Uiso   1.00
H531   H     0.08956   0.46649   0.55949   0.00000  Uiso   1.00
H532   H     0.13134   0.44024   0.67306   0.00000  Uiso   1.00
H533   H     0.03634   0.24464   0.61201   0.00000  Uiso   1.00
H534   H     0.11886   0.54954   0.49584   0.00000  Uiso   1.00
H535   H     0.20695   0.49417   0.73530   0.00000  Uiso   1.00
H536   H     0.00662   0.08169   0.60657   0.00000  Uiso   1.00
H537   H     0.34483   0.29416   0.59113   0.00000  Uiso   1.00
H538   H     0.35557   0.37447   0.53514   0.00000  Uiso   1.00
H539   H     0.39735   0.34823   0.64871   0.00000  Uiso   1.00
H540   H     0.30235   0.15262   0.58766   0.00000  Uiso   1.00
H541   H     0.33476   0.47486   0.47607   0.00000  Uiso   1.00
H542   H     0.42285   0.41948   0.71554   0.00000  Uiso   1.00
H543   H     0.22252   0.00701   0.58680   0.00000  Uiso   1.00
O544   O     0.22933   0.56662   0.44955   0.00000  Uiso   1.00
O545   O     0.34490   0.49396   0.76372   0.00000  Uiso   1.00
O546   O     0.08207   0.95281   0.59482   0.00000  Uiso   1.00
N547   N     0.16819   0.52093   0.49887   0.00000  Uiso   1.00
N548   N     0.25055   0.46917   0.72275   0.00000  Uiso   1.00
N549   N     0.06326   0.08354   0.60240   0.00000  Uiso   1.00
N550   N     0.28437   0.48074   0.48823   0.00000  Uiso   1.00
N551   N     0.36673   0.42898   0.71211   0.00000  Uiso   1.00
N552   N     0.17944   0.04335   0.59177   0.00000  Uiso   1.00
C553   C     0.36141   0.15043   0.89108   0.00000  Uiso   1.00
C554   C     0.39554   0.18371   0.92401   0.00000  Uiso   1.00
C555   C     0.44663   0.14699   0.94577   0.00000  Uiso   1.00
C556   C     0.47118   0.18714   0.97461   0.00000  Uiso   1.00
C557   C     0.52812   0.22754   0.02470   0.00000  Uiso   1.00
C558   C     0.38129   0.20642   0.86231   0.00000  Uiso   1.00
C559   C     0.42039   0.18877   0.83219   0.00000  Uiso   1.00
C560   C     0.43293   0.24804   0.80908   0.00000  Uiso   1.00
C561   C     0.46769   0.32368   0.76337   0.00000  Uiso   1.00
C562   C     0.27502   0.15480   0.89548   0.00000  Uiso   1.00
C563   C     0.22475   0.09376   0.89325   0.00000  Uiso   1.00
C564   C     0.14781   0.10957   0.89806   0.00000  Uiso   1.00
C565   C     0.01756   0.10506   0.90385   0.00000  Uiso   1.00
C566   C     0.31415   0.28706   0.90358   0.00000  Uiso   1.00
C567   C     0.36987   0.25792   0.93080   0.00000  Uiso   1.00
C568   C     0.39435   0.29814   0.95961   0.00000  Uiso   1.00
C569   C     0.44547   0.26148   0.98141   0.00000  Uiso   1.00
C570   C     0.35562   0.28062   0.86910   0.00000  Uiso   1.00
C571   C     0.36810   0.33993   0.84603   0.00000  Uiso   1.00
C572   C     0.40722   0.32238   0.81589   0.00000  Uiso   1.00
C573   C     0.24934   0.22901   0.90228   0.00000  Uiso   1.00
C574   C     0.17247   0.24491   0.90709   0.00000  Uiso   1.00
C575   C     0.12210   0.18391   0.90486   0.00000  Uiso   1.00
H576   H     0.38140   0.09266   0.88579   0.00000  Uiso   1.00
H577   H     0.46649   0.08956   0.94051   0.00000  Uiso   1.00
H578   H     0.44024   0.13134   0.82694   0.00000  Uiso   1.00
H579   H     0.24464   0.03634   0.88799   0.00000  Uiso   1.00
H580   H     0.54954   0.11886   0.00416   0.00000  Uiso   1.00
H581   H     0.49417   0.20695   0.76470   0.00000  Uiso   1.00
H582   H     0.08169   0.00662   0.89343   0.00000  Uiso   1.00
H583   H     0.29416   0.34483   0.90887   0.00000  Uiso   1.00
H584   H     0.37447   0.35557   0.96486   0.00000  Uiso   1.00
H585   H     0.34823   0.39735   0.85129   0.00000  Uiso   1.00
H586   H     0.15262   0.30235   0.91234   0.00000  Uiso   1.00
H587   H     0.47486   0.33476   0.02393   0.00000  Uiso   1.00
H588   H     0.41948   0.42285   0.78446   0.00000  Uiso   1.00
H589   H     0.00701   0.22252   0.91320   0.00000  Uiso   1.00
O590   O     0.56662   0.22933   0.05045   0.00000  Uiso   1.00
O591   O     0.49396   0.34490   0.73628   0.00000  Uiso   1.00
O592   O     0.95281   0.08207   0.90518   0.00000  Uiso   1.00
N593   N     0.52093   0.16819   0.00113   0.00000  Uiso   1.00
N594   N     0.46917   0.25055   0.77725   0.00000  Uiso   1.00
N595   N     0.08354   0.06326   0.89760   0.00000  Uiso   1.00
N596   N     0.48074   0.28437   0.01177   0.00000  Uiso   1.00
N597   N     0.42898   0.36673   0.78789   0.00000  Uiso   1.00
N598   N     0.04335   0.17944   0.90823   0.00000  Uiso   1.00
C599   C     0.63859   0.84957   0.89108   0.00000  Uiso   1.00
C600   C     0.60446   0.81629   0.92401   0.00000  Uiso   1.00
C601   C     0.55337   0.85301   0.94577   0.00000  Uiso   1.00
C602   C     0.52882   0.81286   0.97461   0.00000  Uiso   1.00
C603   C     0.47188   0.77246   0.02470   0.00000  Uiso   1.00
C604   C     0.61871   0.79358   0.86231   0.00000  Uiso   1.00
C605   C     0.57961   0.81123   0.83219   0.00000  Uiso   1.00
C606   C     0.56707   0.75196   0.80908   0.00000  Uiso   1.00
C607   C     0.53231   0.67632   0.76337   0.00000  Uiso   1.00
C608   C     0.72498   0.84520   0.89548   0.00000  Uiso   1.00
C609   C     0.77525   0.90624   0.89325   0.00000  Uiso   1.00
C610   C     0.85219   0.89043   0.89806   0.00000  Uiso   1.00
C611   C     0.98244   0.89494   0.90385   0.00000  Uiso   1.00
C612   C     0.68585   0.71294   0.90358   0.00000  Uiso   1.00
C613   C     0.63013   0.74208   0.93080   0.00000  Uiso   1.00
C614   C     0.60565   0.70186   0.95961   0.00000  Uiso   1.00
C615   C     0.55453   0.73852   0.98141   0.00000  Uiso   1.00
C616   C     0.64438   0.71938   0.86910   0.00000  Uiso   1.00
C617   C     0.63190   0.66007   0.84603   0.00000  Uiso   1.00
C618   C     0.59278   0.67762   0.81589   0.00000  Uiso   1.00
C619   C     0.75066   0.77099   0.90228   0.00000  Uiso   1.00
C620   C     0.82753   0.75509   0.90709   0.00000  Uiso   1.00
C621   C     0.87790   0.81609   0.90486   0.00000  Uiso   1.00
H622   H     0.61860   0.90734   0.88579   0.00000  Uiso   1.00
H623   H     0.53351   0.91044   0.94051   0.00000  Uiso   1.00
H624   H     0.55976   0.86866   0.82694   0.00000  Uiso   1.00
H625   H     0.75536   0.96366   0.88799   0.00000  Uiso   1.00
H626   H     0.45046   0.88114   0.00416   0.00000  Uiso   1.00
H627   H     0.50583   0.79305   0.76470   0.00000  Uiso   1.00
H628   H     0.91831   0.99338   0.89343   0.00000  Uiso   1.00
H629   H     0.70584   0.65517   0.90887   0.00000  Uiso   1.00
H630   H     0.62553   0.64443   0.96486   0.00000  Uiso   1.00
H631   H     0.65177   0.60265   0.85129   0.00000  Uiso   1.00
H632   H     0.84738   0.69765   0.91234   0.00000  Uiso   1.00
H633   H     0.52514   0.66524   0.02393   0.00000  Uiso   1.00
H634   H     0.58052   0.57715   0.78446   0.00000  Uiso   1.00
H635   H     0.99299   0.77748   0.91320   0.00000  Uiso   1.00
O636   O     0.43338   0.77067   0.05045   0.00000  Uiso   1.00
O637   O     0.50604   0.65510   0.73628   0.00000  Uiso   1.00
O638   O     0.04719   0.91793   0.90518   0.00000  Uiso   1.00
N639   N     0.47907   0.83181   0.00113   0.00000  Uiso   1.00
N640   N     0.53083   0.74945   0.77725   0.00000  Uiso   1.00
N641   N     0.91646   0.93674   0.89760   0.00000  Uiso   1.00
N642   N     0.51926   0.71563   0.01177   0.00000  Uiso   1.00
N643   N     0.57102   0.63327   0.78789   0.00000  Uiso   1.00
N644   N     0.95665   0.82056   0.90823   0.00000  Uiso   1.00
C645   C     0.65043   0.13859   0.89108   0.00000  Uiso   1.00
C646   C     0.68371   0.10446   0.92401   0.00000  Uiso   1.00
C647   C     0.64699   0.05337   0.94577   0.00000  Uiso   1.00
C648   C     0.68714   0.02882   0.97461   0.00000  Uiso   1.00
C649   C     0.72754   0.97188   0.02470   0.00000  Uiso   1.00
C650   C     0.70642   0.11871   0.86231   0.00000  Uiso   1.00
C651   C     0.68877   0.07961   0.83219   0.00000  Uiso   1.00
C652   C     0.74804   0.06707   0.80908   0.00000  Uiso   1.00
C653   C     0.82368   0.03231   0.76337   0.00000  Uiso   1.00
C654   C     0.65480   0.22498   0.89548   0.00000  Uiso   1.00
C655   C     0.59376   0.27525   0.89325   0.00000  Uiso   1.00
C656   C     0.60957   0.35219   0.89806   0.00000  Uiso   1.00
C657   C     0.60506   0.48244   0.90385   0.00000  Uiso   1.00
C658   C     0.78706   0.18585   0.90358   0.00000  Uiso   1.00
C659   C     0.75792   0.13013   0.93080   0.00000  Uiso   1.00
C660   C     0.79814   0.10565   0.95961   0.00000  Uiso   1.00
C661   C     0.76148   0.05453   0.98141   0.00000  Uiso   1.00
C662   C     0.78062   0.14438   0.86910   0.00000  Uiso   1.00
C663   C     0.83993   0.13190   0.84603   0.00000  Uiso   1.00
C664   C     0.82238   0.09278   0.81589   0.00000  Uiso   1.00
C665   C     0.72901   0.25066   0.90228   0.00000  Uiso   1.00
C666   C     0.74491   0.32753   0.90709   0.00000  Uiso   1.00
C667   C     0.68391   0.37790   0.90486   0.00000  Uiso   1.00
H668   H     0.59266   0.11860   0.88579   0.00000  Uiso   1.00
H669   H     0.58956   0.03351   0.94051   0.00000  Uiso   1.00
H670   H     0.63134   0.05976   0.82694   0.00000  Uiso   1.00
H671   H     0.53634   0.25536   0.88799   0.00000  Uiso   1.00
H672   H     0.61886   0.95046   0.00416   0.00000  Uiso   1.00
H673   H     0.70695   0.00583   0.76470   0.00000  Uiso   1.00
H674   H     0.50662   0.41831   0.89343   0.00000  Uiso   1.00
H675   H     0.84483   0.20584   0.90887   0.00000  Uiso   1.00
H676   H     0.85557   0.12553   0.96486   0.00000  Uiso   1.00
H677   H     0.89735   0.15177   0.85129   0.00000  Uiso   1.00
H678   H     0.80235   0.34738   0.91234   0.00000  Uiso   1.00
H679   H     0.83476   0.02514   0.02393   0.00000  Uiso   1.00
H680   H     0.92285   0.08052   0.78446   0.00000  Uiso   1.00
H681   H     0.72252   0.49299   0.91320   0.00000  Uiso   1.00
O682   O     0.72933   0.93338   0.05045   0.00000  Uiso   1.00
O683   O     0.84490   0.00604   0.73628   0.00000  Uiso   1.00
O684   O     0.58207   0.54719   0.90518   0.00000  Uiso   1.00
N685   N     0.66819   0.97907   0.00113   0.00000  Uiso   1.00
N686   N     0.75055   0.03083   0.77725   0.00000  Uiso   1.00
N687   N     0.56326   0.41646   0.89760   0.00000  Uiso   1.00
N688   N     0.78437   0.01926   0.01177   0.00000  Uiso   1.00
N689   N     0.86673   0.07102   0.78789   0.00000  Uiso   1.00
N690   N     0.67944   0.45665   0.90823   0.00000  Uiso   1.00
C691   C     0.34957   0.86141   0.89108   0.00000  Uiso   1.00
C692   C     0.31629   0.89554   0.92401   0.00000  Uiso   1.00
C693   C     0.35301   0.94663   0.94577   0.00000  Uiso   1.00
C694   C     0.31286   0.97118   0.97461   0.00000  Uiso   1.00
C695   C     0.27246   0.02812   0.02470   0.00000  Uiso   1.00
C696   C     0.29358   0.88129   0.86231   0.00000  Uiso   1.00
C697   C     0.31123   0.92039   0.83219   0.00000  Uiso   1.00
C698   C     0.25196   0.93293   0.80908   0.00000  Uiso   1.00
C699   C     0.17632   0.96769   0.76337   0.00000  Uiso   1.00
C700   C     0.34520   0.77502   0.89548   0.00000  Uiso   1.00
C701   C     0.40624   0.72475   0.89325   0.00000  Uiso   1.00
C702   C     0.39043   0.64781   0.89806   0.00000  Uiso   1.00
C703   C     0.39494   0.51756   0.90385   0.00000  Uiso   1.00
C704   C     0.21294   0.81415   0.90358   0.00000  Uiso   1.00
C705   C     0.24208   0.86987   0.93080   0.00000  Uiso   1.00
C706   C     0.20186   0.89435   0.95961   0.00000  Uiso   1.00
C707   C     0.23852   0.94547   0.98141   0.00000  Uiso   1.00
C708   C     0.21938   0.85562   0.86910   0.00000  Uiso   1.00
C709   C     0.16007   0.86810   0.84603   0.00000  Uiso   1.00
C710   C     0.17762   0.90722   0.81589   0.00000  Uiso   1.00
C711   C     0.27099   0.74934   0.90228   0.00000  Uiso   1.00
C712   C     0.25509   0.67247   0.90709   0.00000  Uiso   1.00
C713   C     0.31609   0.62210   0.90486   0.00000  Uiso   1.00
H714   H     0.40734   0.88140   0.88579   0.00000  Uiso   1.00
H715   H     0.41044   0.96649   0.94051   0.00000  Uiso   1.00
H716   H     0.36866   0.94024   0.82694   0.00000  Uiso   1.00
H717   H     0.46366   0.74464   0.88799   0.00000  Uiso   1.00
H718   H     0.38114   0.04954   0.00416   0.00000  Uiso   1.00
H719   H     0.29305   0.99417   0.76470   0.00000  Uiso   1.00
H720   H     0.49338   0.58169   0.89343   0.00000  Uiso   1.00
H721   H     0.15517   0.79416   0.90887   0.00000  Uiso   1.00
H722   H     0.14443   0.87447   0.96486   0.00000  Uiso   1.00
H723   H     0.10265   0.84823   0.85129   0.00000  Uiso   1.00
H724   H     0.19765   0.65262   0.91234   0.00000  Uiso   1.00
H725   H     0.16524   0.97486   0.02393   0.00000  Uiso   1.00
H726   H     0.07715   0.91948   0.78446   0.00000  Uiso   1.00
H727   H     0.27748   0.50701   0.91320   0.00000  Uiso   1.00
O728   O     0.27067   0.06662   0.05045   0.00000  Uiso   1.00
O729   O     0.15510   0.99396   0.73628   0.00000  Uiso   1.00
O730   O     0.41793   0.45281   0.90518   0.00000  Uiso   1.00
N731   N     0.33181   0.02093   0.00113   0.00000  Uiso   1.00
N732   N     0.24945   0.96917   0.77725   0.00000  Uiso   1.00
N733   N     0.43674   0.58354   0.89760   0.00000  Uiso   1.00
N734   N     0.21563   0.98074   0.01177   0.00000  Uiso   1.00
N735   N     0.13327   0.92898   0.78789   0.00000  Uiso   1.00
N736   N     0.32056   0.54335   0.90823   0.00000  Uiso   1.00
