data_job_03072
_audit_creation_date              2018-12-19
_audit_creation_method            'Materials Studio'
_symmetry_space_group_name_H-M    'P1'
_symmetry_Int_Tables_number       1
_symmetry_cell_setting            triclinic
loop_
_symmetry_equiv_pos_as_xyz
  x,y,z
_cell_length_a                    19.7516
_cell_length_b                    19.7516
_cell_length_c                    26.1340
_cell_angle_alpha                 90.0000
_cell_angle_beta                  90.0000
_cell_angle_gamma                 90.0000
loop_
_atom_site_label
_atom_site_type_symbol
_atom_site_fract_x
_atom_site_fract_y
_atom_site_fract_z
_atom_site_U_iso_or_equiv
_atom_site_adp_type
_atom_site_occupancy
C1     C     0.48113   0.25151   0.37184   0.00000  Uiso   1.00
C2     C     0.45735   0.32459   0.37741   0.00000  Uiso   1.00
C3     C     0.44794   0.37019   0.33764   0.00000  Uiso   1.00
C4     C     0.42595   0.43469   0.35066   0.00000  Uiso   1.00
C5     C     0.39090   0.54541   0.35155   0.00000  Uiso   1.00
C6     C     0.54394   0.24494   0.40541   0.00000  Uiso   1.00
C7     C     0.60733   0.22356   0.38918   0.00000  Uiso   1.00
C8     C     0.65823   0.22100   0.42577   0.00000  Uiso   1.00
C9     C     0.75760   0.20802   0.47015   0.00000  Uiso   1.00
C10    C     0.42680   0.20793   0.39702   0.00000  Uiso   1.00
C11    C     0.39172   0.15542   0.37374   0.00000  Uiso   1.00
C12    C     0.34400   0.12170   0.40328   0.00000  Uiso   1.00
C13    C     0.26150   0.05125   0.43462   0.00000  Uiso   1.00
C14    C     0.45879   0.28498   0.46569   0.00000  Uiso   1.00
C15    C     0.44522   0.34277   0.42839   0.00000  Uiso   1.00
C16    C     0.42323   0.40722   0.44147   0.00000  Uiso   1.00
C17    C     0.41379   0.45290   0.40173   0.00000  Uiso   1.00
C18    C     0.53181   0.26312   0.45638   0.00000  Uiso   1.00
C19    C     0.58262   0.26059   0.49301   0.00000  Uiso   1.00
C20    C     0.64607   0.23922   0.47684   0.00000  Uiso   1.00
C21    C     0.41467   0.22611   0.44799   0.00000  Uiso   1.00
C22    C     0.36700   0.19246   0.47758   0.00000  Uiso   1.00
C23    C     0.33185   0.13991   0.45435   0.00000  Uiso   1.00
H24    H     0.49058   0.23736   0.33215   0.00000  Uiso   1.00
H25    H     0.45735   0.35610   0.29819   0.00000  Uiso   1.00
H26    H     0.61670   0.20949   0.34973   0.00000  Uiso   1.00
H27    H     0.40112   0.14137   0.33429   0.00000  Uiso   1.00
H28    H     0.41517   0.49577   0.28302   0.00000  Uiso   1.00
H29    H     0.75118   0.18662   0.39169   0.00000  Uiso   1.00
H30    H     0.29659   0.04297   0.35914   0.00000  Uiso   1.00
H31    H     0.44935   0.29913   0.50538   0.00000  Uiso   1.00
H32    H     0.41384   0.42127   0.48092   0.00000  Uiso   1.00
H33    H     0.57321   0.27466   0.53246   0.00000  Uiso   1.00
H34    H     0.35763   0.20654   0.51702   0.00000  Uiso   1.00
H35    H     0.37987   0.54867   0.43133   0.00000  Uiso   1.00
H36    H     0.71588   0.23951   0.54000   0.00000  Uiso   1.00
H37    H     0.26129   0.09586   0.50745   0.00000  Uiso   1.00
O38    O     0.37493   0.60146   0.33796   0.00000  Uiso   1.00
O39    O     0.81576   0.19585   0.48053   0.00000  Uiso   1.00
O40    O     0.21934   0.00738   0.43783   0.00000  Uiso   1.00
N41    N     0.41172   0.49146   0.32128   0.00000  Uiso   1.00
N42    N     0.72588   0.20242   0.42288   0.00000  Uiso   1.00
N43    N     0.30088   0.06811   0.39245   0.00000  Uiso   1.00
N44    N     0.39272   0.51992   0.40109   0.00000  Uiso   1.00
N45    N     0.70688   0.23089   0.50268   0.00000  Uiso   1.00
N46    N     0.28188   0.09657   0.47226   0.00000  Uiso   1.00
C47    C     0.98113   0.75151   0.87184   0.00000  Uiso   1.00
C48    C     0.95735   0.82459   0.87741   0.00000  Uiso   1.00
C49    C     0.94794   0.87019   0.83764   0.00000  Uiso   1.00
C50    C     0.92595   0.93469   0.85066   0.00000  Uiso   1.00
C51    C     0.89090   0.04541   0.85155   0.00000  Uiso   1.00
C52    C     0.04394   0.74494   0.90541   0.00000  Uiso   1.00
C53    C     0.10733   0.72356   0.88918   0.00000  Uiso   1.00
C54    C     0.15823   0.72100   0.92577   0.00000  Uiso   1.00
C55    C     0.25760   0.70802   0.97015   0.00000  Uiso   1.00
C56    C     0.92680   0.70793   0.89702   0.00000  Uiso   1.00
C57    C     0.89172   0.65542   0.87374   0.00000  Uiso   1.00
C58    C     0.84400   0.62170   0.90328   0.00000  Uiso   1.00
C59    C     0.76150   0.55125   0.93462   0.00000  Uiso   1.00
C60    C     0.95879   0.78498   0.96569   0.00000  Uiso   1.00
C61    C     0.94522   0.84277   0.92839   0.00000  Uiso   1.00
C62    C     0.92323   0.90722   0.94147   0.00000  Uiso   1.00
C63    C     0.91379   0.95290   0.90173   0.00000  Uiso   1.00
C64    C     0.03181   0.76312   0.95638   0.00000  Uiso   1.00
C65    C     0.08262   0.76059   0.99301   0.00000  Uiso   1.00
C66    C     0.14607   0.73922   0.97684   0.00000  Uiso   1.00
C67    C     0.91467   0.72611   0.94799   0.00000  Uiso   1.00
C68    C     0.86700   0.69246   0.97758   0.00000  Uiso   1.00
C69    C     0.83185   0.63991   0.95435   0.00000  Uiso   1.00
H70    H     0.99058   0.73736   0.83215   0.00000  Uiso   1.00
H71    H     0.95735   0.85610   0.79819   0.00000  Uiso   1.00
H72    H     0.11670   0.70949   0.84973   0.00000  Uiso   1.00
H73    H     0.90112   0.64137   0.83429   0.00000  Uiso   1.00
H74    H     0.91517   0.99577   0.78302   0.00000  Uiso   1.00
H75    H     0.25118   0.68662   0.89169   0.00000  Uiso   1.00
H76    H     0.79659   0.54297   0.85914   0.00000  Uiso   1.00
H77    H     0.94935   0.79913   0.00538   0.00000  Uiso   1.00
H78    H     0.91384   0.92127   0.98092   0.00000  Uiso   1.00
H79    H     0.07321   0.77466   0.03246   0.00000  Uiso   1.00
H80    H     0.85763   0.70654   0.01702   0.00000  Uiso   1.00
H81    H     0.87987   0.04867   0.93133   0.00000  Uiso   1.00
H82    H     0.21588   0.73951   0.04000   0.00000  Uiso   1.00
H83    H     0.76129   0.59586   0.00745   0.00000  Uiso   1.00
O84    O     0.87493   0.10146   0.83796   0.00000  Uiso   1.00
O85    O     0.31576   0.69585   0.98053   0.00000  Uiso   1.00
O86    O     0.71934   0.50738   0.93783   0.00000  Uiso   1.00
N87    N     0.91172   0.99146   0.82128   0.00000  Uiso   1.00
N88    N     0.22588   0.70242   0.92288   0.00000  Uiso   1.00
N89    N     0.80088   0.56811   0.89245   0.00000  Uiso   1.00
N90    N     0.89272   0.01992   0.90109   0.00000  Uiso   1.00
N91    N     0.20688   0.73089   0.00268   0.00000  Uiso   1.00
N92    N     0.78188   0.59657   0.97226   0.00000  Uiso   1.00
C93    C     0.01887   0.24849   0.87184   0.00000  Uiso   1.00
C94    C     0.04265   0.17541   0.87741   0.00000  Uiso   1.00
C95    C     0.05206   0.12981   0.83764   0.00000  Uiso   1.00
C96    C     0.07405   0.06531   0.85066   0.00000  Uiso   1.00
C97    C     0.10910   0.95459   0.85155   0.00000  Uiso   1.00
C98    C     0.95606   0.25506   0.90541   0.00000  Uiso   1.00
C99    C     0.89267   0.27644   0.88918   0.00000  Uiso   1.00
C100   C     0.84177   0.27900   0.92577   0.00000  Uiso   1.00
C101   C     0.74240   0.29198   0.97015   0.00000  Uiso   1.00
C102   C     0.07320   0.29207   0.89702   0.00000  Uiso   1.00
C103   C     0.10828   0.34458   0.87374   0.00000  Uiso   1.00
C104   C     0.15600   0.37830   0.90328   0.00000  Uiso   1.00
C105   C     0.23850   0.44875   0.93462   0.00000  Uiso   1.00
C106   C     0.04121   0.21502   0.96569   0.00000  Uiso   1.00
C107   C     0.05478   0.15723   0.92839   0.00000  Uiso   1.00
C108   C     0.07677   0.09278   0.94147   0.00000  Uiso   1.00
C109   C     0.08621   0.04710   0.90173   0.00000  Uiso   1.00
C110   C     0.96819   0.23688   0.95638   0.00000  Uiso   1.00
C111   C     0.91738   0.23941   0.99301   0.00000  Uiso   1.00
C112   C     0.85393   0.26078   0.97684   0.00000  Uiso   1.00
C113   C     0.08533   0.27389   0.94799   0.00000  Uiso   1.00
C114   C     0.13300   0.30754   0.97758   0.00000  Uiso   1.00
C115   C     0.16815   0.36009   0.95435   0.00000  Uiso   1.00
H116   H     0.00942   0.26264   0.83215   0.00000  Uiso   1.00
H117   H     0.04265   0.14390   0.79819   0.00000  Uiso   1.00
H118   H     0.88330   0.29051   0.84973   0.00000  Uiso   1.00
H119   H     0.09888   0.35863   0.83429   0.00000  Uiso   1.00
H120   H     0.08483   0.00423   0.78302   0.00000  Uiso   1.00
H121   H     0.74882   0.31338   0.89169   0.00000  Uiso   1.00
H122   H     0.20341   0.45703   0.85914   0.00000  Uiso   1.00
H123   H     0.05065   0.20087   0.00538   0.00000  Uiso   1.00
H124   H     0.08616   0.07873   0.98092   0.00000  Uiso   1.00
H125   H     0.92679   0.22534   0.03246   0.00000  Uiso   1.00
H126   H     0.14237   0.29346   0.01702   0.00000  Uiso   1.00
H127   H     0.12013   0.95133   0.93133   0.00000  Uiso   1.00
H128   H     0.78412   0.26049   0.04000   0.00000  Uiso   1.00
H129   H     0.23871   0.40414   0.00745   0.00000  Uiso   1.00
O130   O     0.12507   0.89854   0.83796   0.00000  Uiso   1.00
O131   O     0.68424   0.30415   0.98053   0.00000  Uiso   1.00
O132   O     0.28066   0.49262   0.93783   0.00000  Uiso   1.00
N133   N     0.08828   0.00854   0.82128   0.00000  Uiso   1.00
N134   N     0.77412   0.29758   0.92288   0.00000  Uiso   1.00
N135   N     0.19912   0.43189   0.89245   0.00000  Uiso   1.00
N136   N     0.10728   0.98008   0.90109   0.00000  Uiso   1.00
N137   N     0.79312   0.26911   0.00268   0.00000  Uiso   1.00
N138   N     0.21812   0.40343   0.97226   0.00000  Uiso   1.00
C139   C     0.51887   0.74849   0.37184   0.00000  Uiso   1.00
C140   C     0.54265   0.67541   0.37741   0.00000  Uiso   1.00
C141   C     0.55206   0.62981   0.33764   0.00000  Uiso   1.00
C142   C     0.57405   0.56531   0.35066   0.00000  Uiso   1.00
C143   C     0.60910   0.45459   0.35155   0.00000  Uiso   1.00
C144   C     0.45606   0.75506   0.40541   0.00000  Uiso   1.00
C145   C     0.39267   0.77644   0.38918   0.00000  Uiso   1.00
C146   C     0.34177   0.77900   0.42577   0.00000  Uiso   1.00
C147   C     0.24240   0.79198   0.47015   0.00000  Uiso   1.00
C148   C     0.57320   0.79207   0.39702   0.00000  Uiso   1.00
C149   C     0.60828   0.84458   0.37374   0.00000  Uiso   1.00
C150   C     0.65600   0.87830   0.40328   0.00000  Uiso   1.00
C151   C     0.73850   0.94875   0.43462   0.00000  Uiso   1.00
C152   C     0.54121   0.71502   0.46569   0.00000  Uiso   1.00
C153   C     0.55478   0.65723   0.42839   0.00000  Uiso   1.00
C154   C     0.57677   0.59278   0.44147   0.00000  Uiso   1.00
C155   C     0.58621   0.54710   0.40173   0.00000  Uiso   1.00
C156   C     0.46819   0.73688   0.45638   0.00000  Uiso   1.00
C157   C     0.41738   0.73941   0.49301   0.00000  Uiso   1.00
C158   C     0.35393   0.76078   0.47684   0.00000  Uiso   1.00
C159   C     0.58533   0.77389   0.44799   0.00000  Uiso   1.00
C160   C     0.63300   0.80754   0.47758   0.00000  Uiso   1.00
C161   C     0.66815   0.86009   0.45435   0.00000  Uiso   1.00
H162   H     0.50942   0.76264   0.33215   0.00000  Uiso   1.00
H163   H     0.54265   0.64390   0.29819   0.00000  Uiso   1.00
H164   H     0.38330   0.79051   0.34973   0.00000  Uiso   1.00
H165   H     0.59888   0.85863   0.33429   0.00000  Uiso   1.00
H166   H     0.58483   0.50423   0.28302   0.00000  Uiso   1.00
H167   H     0.24882   0.81338   0.39169   0.00000  Uiso   1.00
H168   H     0.70341   0.95703   0.35914   0.00000  Uiso   1.00
H169   H     0.55065   0.70087   0.50538   0.00000  Uiso   1.00
H170   H     0.58616   0.57873   0.48092   0.00000  Uiso   1.00
H171   H     0.42679   0.72534   0.53246   0.00000  Uiso   1.00
H172   H     0.64237   0.79346   0.51702   0.00000  Uiso   1.00
H173   H     0.62013   0.45133   0.43133   0.00000  Uiso   1.00
H174   H     0.28412   0.76049   0.54000   0.00000  Uiso   1.00
H175   H     0.73871   0.90414   0.50745   0.00000  Uiso   1.00
O176   O     0.62507   0.39854   0.33796   0.00000  Uiso   1.00
O177   O     0.18424   0.80415   0.48053   0.00000  Uiso   1.00
O178   O     0.78066   0.99262   0.43783   0.00000  Uiso   1.00
N179   N     0.58828   0.50854   0.32128   0.00000  Uiso   1.00
N180   N     0.27412   0.79758   0.42288   0.00000  Uiso   1.00
N181   N     0.69912   0.93189   0.39245   0.00000  Uiso   1.00
N182   N     0.60728   0.48008   0.40109   0.00000  Uiso   1.00
N183   N     0.29312   0.76911   0.50268   0.00000  Uiso   1.00
N184   N     0.71812   0.90343   0.47226   0.00000  Uiso   1.00
C185   C     0.74849   0.98113   0.62184   0.00000  Uiso   1.00
C186   C     0.67541   0.95735   0.62741   0.00000  Uiso   1.00
C187   C     0.62981   0.94794   0.58764   0.00000  Uiso   1.00
C188   C     0.56531   0.92595   0.60066   0.00000  Uiso   1.00
C189   C     0.45459   0.89090   0.60155   0.00000  Uiso   1.00
C190   C     0.75506   0.04394   0.65541   0.00000  Uiso   1.00
C191   C     0.77644   0.10733   0.63918   0.00000  Uiso   1.00
C192   C     0.77900   0.15823   0.67577   0.00000  Uiso   1.00
C193   C     0.79198   0.25760   0.72015   0.00000  Uiso   1.00
C194   C     0.79207   0.92680   0.64702   0.00000  Uiso   1.00
C195   C     0.84458   0.89172   0.62374   0.00000  Uiso   1.00
C196   C     0.87830   0.84400   0.65328   0.00000  Uiso   1.00
C197   C     0.94875   0.76150   0.68462   0.00000  Uiso   1.00
C198   C     0.71502   0.95879   0.71569   0.00000  Uiso   1.00
C199   C     0.65723   0.94522   0.67839   0.00000  Uiso   1.00
C200   C     0.59278   0.92323   0.69147   0.00000  Uiso   1.00
C201   C     0.54710   0.91379   0.65173   0.00000  Uiso   1.00
C202   C     0.73688   0.03181   0.70638   0.00000  Uiso   1.00
C203   C     0.73941   0.08262   0.74301   0.00000  Uiso   1.00
C204   C     0.76078   0.14607   0.72684   0.00000  Uiso   1.00
C205   C     0.77389   0.91467   0.69799   0.00000  Uiso   1.00
C206   C     0.80754   0.86700   0.72758   0.00000  Uiso   1.00
C207   C     0.86009   0.83185   0.70435   0.00000  Uiso   1.00
H208   H     0.76264   0.99058   0.58215   0.00000  Uiso   1.00
H209   H     0.64390   0.95735   0.54819   0.00000  Uiso   1.00
H210   H     0.79051   0.11670   0.59973   0.00000  Uiso   1.00
H211   H     0.85863   0.90112   0.58429   0.00000  Uiso   1.00
H212   H     0.50423   0.91517   0.53302   0.00000  Uiso   1.00
H213   H     0.81338   0.25118   0.64169   0.00000  Uiso   1.00
H214   H     0.95703   0.79659   0.60914   0.00000  Uiso   1.00
H215   H     0.70087   0.94935   0.75538   0.00000  Uiso   1.00
H216   H     0.57873   0.91384   0.73092   0.00000  Uiso   1.00
H217   H     0.72534   0.07321   0.78246   0.00000  Uiso   1.00
H218   H     0.79346   0.85763   0.76702   0.00000  Uiso   1.00
H219   H     0.45133   0.87987   0.68133   0.00000  Uiso   1.00
H220   H     0.76049   0.21588   0.79000   0.00000  Uiso   1.00
H221   H     0.90414   0.76129   0.75745   0.00000  Uiso   1.00
O222   O     0.39854   0.87493   0.58796   0.00000  Uiso   1.00
O223   O     0.80415   0.31576   0.73053   0.00000  Uiso   1.00
O224   O     0.99262   0.71934   0.68783   0.00000  Uiso   1.00
N225   N     0.50854   0.91172   0.57128   0.00000  Uiso   1.00
N226   N     0.79758   0.22588   0.67288   0.00000  Uiso   1.00
N227   N     0.93189   0.80088   0.64245   0.00000  Uiso   1.00
N228   N     0.48008   0.89272   0.65109   0.00000  Uiso   1.00
N229   N     0.76911   0.20688   0.75268   0.00000  Uiso   1.00
N230   N     0.90343   0.78188   0.72226   0.00000  Uiso   1.00
C231   C     0.24849   0.48113   0.12184   0.00000  Uiso   1.00
C232   C     0.17541   0.45735   0.12741   0.00000  Uiso   1.00
C233   C     0.12981   0.44794   0.08764   0.00000  Uiso   1.00
C234   C     0.06531   0.42595   0.10066   0.00000  Uiso   1.00
C235   C     0.95459   0.39090   0.10155   0.00000  Uiso   1.00
C236   C     0.25506   0.54394   0.15541   0.00000  Uiso   1.00
C237   C     0.27644   0.60733   0.13918   0.00000  Uiso   1.00
C238   C     0.27900   0.65823   0.17577   0.00000  Uiso   1.00
C239   C     0.29198   0.75760   0.22015   0.00000  Uiso   1.00
C240   C     0.29207   0.42680   0.14702   0.00000  Uiso   1.00
C241   C     0.34458   0.39172   0.12374   0.00000  Uiso   1.00
C242   C     0.37830   0.34400   0.15328   0.00000  Uiso   1.00
C243   C     0.44875   0.26150   0.18462   0.00000  Uiso   1.00
C244   C     0.21502   0.45879   0.21569   0.00000  Uiso   1.00
C245   C     0.15723   0.44522   0.17839   0.00000  Uiso   1.00
C246   C     0.09278   0.42323   0.19147   0.00000  Uiso   1.00
C247   C     0.04710   0.41379   0.15173   0.00000  Uiso   1.00
C248   C     0.23688   0.53181   0.20638   0.00000  Uiso   1.00
C249   C     0.23941   0.58262   0.24301   0.00000  Uiso   1.00
C250   C     0.26078   0.64607   0.22684   0.00000  Uiso   1.00
C251   C     0.27389   0.41467   0.19799   0.00000  Uiso   1.00
C252   C     0.30754   0.36700   0.22758   0.00000  Uiso   1.00
C253   C     0.36009   0.33185   0.20435   0.00000  Uiso   1.00
H254   H     0.26264   0.49058   0.08215   0.00000  Uiso   1.00
H255   H     0.14390   0.45735   0.04819   0.00000  Uiso   1.00
H256   H     0.29051   0.61670   0.09973   0.00000  Uiso   1.00
H257   H     0.35863   0.40112   0.08429   0.00000  Uiso   1.00
H258   H     0.00423   0.41517   0.03302   0.00000  Uiso   1.00
H259   H     0.31338   0.75118   0.14169   0.00000  Uiso   1.00
H260   H     0.45703   0.29659   0.10914   0.00000  Uiso   1.00
H261   H     0.20087   0.44935   0.25538   0.00000  Uiso   1.00
H262   H     0.07873   0.41384   0.23092   0.00000  Uiso   1.00
H263   H     0.22534   0.57321   0.28246   0.00000  Uiso   1.00
H264   H     0.29346   0.35763   0.26702   0.00000  Uiso   1.00
H265   H     0.95133   0.37987   0.18133   0.00000  Uiso   1.00
H266   H     0.26049   0.71588   0.29000   0.00000  Uiso   1.00
H267   H     0.40414   0.26129   0.25745   0.00000  Uiso   1.00
O268   O     0.89854   0.37493   0.08796   0.00000  Uiso   1.00
O269   O     0.30415   0.81576   0.23053   0.00000  Uiso   1.00
O270   O     0.49262   0.21934   0.18783   0.00000  Uiso   1.00
N271   N     0.00854   0.41172   0.07128   0.00000  Uiso   1.00
N272   N     0.29758   0.72588   0.17288   0.00000  Uiso   1.00
N273   N     0.43189   0.30088   0.14245   0.00000  Uiso   1.00
N274   N     0.98008   0.39272   0.15109   0.00000  Uiso   1.00
N275   N     0.26911   0.70688   0.25268   0.00000  Uiso   1.00
N276   N     0.40343   0.28188   0.22226   0.00000  Uiso   1.00
C277   C     0.75151   0.51887   0.12184   0.00000  Uiso   1.00
C278   C     0.82459   0.54265   0.12741   0.00000  Uiso   1.00
C279   C     0.87019   0.55206   0.08764   0.00000  Uiso   1.00
C280   C     0.93469   0.57405   0.10066   0.00000  Uiso   1.00
C281   C     0.04541   0.60910   0.10155   0.00000  Uiso   1.00
C282   C     0.74494   0.45606   0.15541   0.00000  Uiso   1.00
C283   C     0.72356   0.39267   0.13918   0.00000  Uiso   1.00
C284   C     0.72100   0.34177   0.17577   0.00000  Uiso   1.00
C285   C     0.70802   0.24240   0.22015   0.00000  Uiso   1.00
C286   C     0.70793   0.57320   0.14702   0.00000  Uiso   1.00
C287   C     0.65542   0.60828   0.12374   0.00000  Uiso   1.00
C288   C     0.62170   0.65600   0.15328   0.00000  Uiso   1.00
C289   C     0.55125   0.73850   0.18462   0.00000  Uiso   1.00
C290   C     0.78498   0.54121   0.21569   0.00000  Uiso   1.00
C291   C     0.84277   0.55478   0.17839   0.00000  Uiso   1.00
C292   C     0.90722   0.57677   0.19147   0.00000  Uiso   1.00
C293   C     0.95290   0.58621   0.15173   0.00000  Uiso   1.00
C294   C     0.76312   0.46819   0.20638   0.00000  Uiso   1.00
C295   C     0.76059   0.41738   0.24301   0.00000  Uiso   1.00
C296   C     0.73922   0.35393   0.22684   0.00000  Uiso   1.00
C297   C     0.72611   0.58533   0.19799   0.00000  Uiso   1.00
C298   C     0.69246   0.63300   0.22758   0.00000  Uiso   1.00
C299   C     0.63991   0.66815   0.20435   0.00000  Uiso   1.00
H300   H     0.73736   0.50942   0.08215   0.00000  Uiso   1.00
H301   H     0.85610   0.54265   0.04819   0.00000  Uiso   1.00
H302   H     0.70949   0.38330   0.09973   0.00000  Uiso   1.00
H303   H     0.64137   0.59888   0.08429   0.00000  Uiso   1.00
H304   H     0.99577   0.58483   0.03302   0.00000  Uiso   1.00
H305   H     0.68662   0.24882   0.14169   0.00000  Uiso   1.00
H306   H     0.54297   0.70341   0.10914   0.00000  Uiso   1.00
H307   H     0.79913   0.55065   0.25538   0.00000  Uiso   1.00
H308   H     0.92127   0.58616   0.23092   0.00000  Uiso   1.00
H309   H     0.77466   0.42679   0.28246   0.00000  Uiso   1.00
H310   H     0.70654   0.64237   0.26702   0.00000  Uiso   1.00
H311   H     0.04867   0.62013   0.18133   0.00000  Uiso   1.00
H312   H     0.73951   0.28412   0.29000   0.00000  Uiso   1.00
H313   H     0.59586   0.73871   0.25745   0.00000  Uiso   1.00
O314   O     0.10146   0.62507   0.08796   0.00000  Uiso   1.00
O315   O     0.69585   0.18424   0.23053   0.00000  Uiso   1.00
O316   O     0.50738   0.78066   0.18783   0.00000  Uiso   1.00
N317   N     0.99146   0.58828   0.07128   0.00000  Uiso   1.00
N318   N     0.70242   0.27412   0.17288   0.00000  Uiso   1.00
N319   N     0.56811   0.69912   0.14245   0.00000  Uiso   1.00
N320   N     0.01992   0.60728   0.15109   0.00000  Uiso   1.00
N321   N     0.73089   0.29312   0.25268   0.00000  Uiso   1.00
N322   N     0.59657   0.71812   0.22226   0.00000  Uiso   1.00
C323   C     0.25151   0.01887   0.62184   0.00000  Uiso   1.00
C324   C     0.32459   0.04265   0.62741   0.00000  Uiso   1.00
C325   C     0.37019   0.05206   0.58764   0.00000  Uiso   1.00
C326   C     0.43469   0.07405   0.60066   0.00000  Uiso   1.00
C327   C     0.54541   0.10910   0.60155   0.00000  Uiso   1.00
C328   C     0.24494   0.95606   0.65541   0.00000  Uiso   1.00
C329   C     0.22356   0.89267   0.63918   0.00000  Uiso   1.00
C330   C     0.22100   0.84177   0.67577   0.00000  Uiso   1.00
C331   C     0.20802   0.74240   0.72015   0.00000  Uiso   1.00
C332   C     0.20793   0.07320   0.64702   0.00000  Uiso   1.00
C333   C     0.15542   0.10828   0.62374   0.00000  Uiso   1.00
C334   C     0.12170   0.15600   0.65328   0.00000  Uiso   1.00
C335   C     0.05125   0.23850   0.68462   0.00000  Uiso   1.00
C336   C     0.28498   0.04121   0.71569   0.00000  Uiso   1.00
C337   C     0.34277   0.05478   0.67839   0.00000  Uiso   1.00
C338   C     0.40722   0.07677   0.69147   0.00000  Uiso   1.00
C339   C     0.45290   0.08621   0.65173   0.00000  Uiso   1.00
C340   C     0.26312   0.96819   0.70638   0.00000  Uiso   1.00
C341   C     0.26059   0.91738   0.74301   0.00000  Uiso   1.00
C342   C     0.23922   0.85393   0.72684   0.00000  Uiso   1.00
C343   C     0.22611   0.08533   0.69799   0.00000  Uiso   1.00
C344   C     0.19246   0.13300   0.72758   0.00000  Uiso   1.00
C345   C     0.13991   0.16815   0.70435   0.00000  Uiso   1.00
H346   H     0.23736   0.00942   0.58215   0.00000  Uiso   1.00
H347   H     0.35610   0.04265   0.54819   0.00000  Uiso   1.00
H348   H     0.20949   0.88330   0.59973   0.00000  Uiso   1.00
H349   H     0.14137   0.09888   0.58429   0.00000  Uiso   1.00
H350   H     0.49577   0.08483   0.53302   0.00000  Uiso   1.00
H351   H     0.18662   0.74882   0.64169   0.00000  Uiso   1.00
H352   H     0.04297   0.20341   0.60914   0.00000  Uiso   1.00
H353   H     0.29913   0.05065   0.75538   0.00000  Uiso   1.00
H354   H     0.42127   0.08616   0.73092   0.00000  Uiso   1.00
H355   H     0.27466   0.92679   0.78246   0.00000  Uiso   1.00
H356   H     0.20654   0.14237   0.76702   0.00000  Uiso   1.00
H357   H     0.54867   0.12013   0.68133   0.00000  Uiso   1.00
H358   H     0.23951   0.78412   0.79000   0.00000  Uiso   1.00
H359   H     0.09586   0.23871   0.75745   0.00000  Uiso   1.00
O360   O     0.60146   0.12507   0.58796   0.00000  Uiso   1.00
O361   O     0.19585   0.68424   0.73053   0.00000  Uiso   1.00
O362   O     0.00738   0.28066   0.68783   0.00000  Uiso   1.00
N363   N     0.49146   0.08828   0.57128   0.00000  Uiso   1.00
N364   N     0.20242   0.77412   0.67288   0.00000  Uiso   1.00
N365   N     0.06811   0.19912   0.64245   0.00000  Uiso   1.00
N366   N     0.51992   0.10728   0.65109   0.00000  Uiso   1.00
N367   N     0.23089   0.79312   0.75268   0.00000  Uiso   1.00
N368   N     0.09657   0.21812   0.72226   0.00000  Uiso   1.00
C369   C     0.51887   0.24849   0.87816   0.00000  Uiso   1.00
C370   C     0.54265   0.17541   0.87259   0.00000  Uiso   1.00
C371   C     0.55206   0.12981   0.91236   0.00000  Uiso   1.00
C372   C     0.57405   0.06531   0.89934   0.00000  Uiso   1.00
C373   C     0.60910   0.95459   0.89845   0.00000  Uiso   1.00
C374   C     0.45606   0.25506   0.84459   0.00000  Uiso   1.00
C375   C     0.39267   0.27644   0.86082   0.00000  Uiso   1.00
C376   C     0.34177   0.27900   0.82423   0.00000  Uiso   1.00
C377   C     0.24240   0.29198   0.77985   0.00000  Uiso   1.00
C378   C     0.57320   0.29207   0.85298   0.00000  Uiso   1.00
C379   C     0.60828   0.34458   0.87626   0.00000  Uiso   1.00
C380   C     0.65600   0.37830   0.84672   0.00000  Uiso   1.00
C381   C     0.73850   0.44875   0.81538   0.00000  Uiso   1.00
C382   C     0.54121   0.21502   0.78431   0.00000  Uiso   1.00
C383   C     0.55478   0.15723   0.82161   0.00000  Uiso   1.00
C384   C     0.57677   0.09278   0.80853   0.00000  Uiso   1.00
C385   C     0.58621   0.04710   0.84827   0.00000  Uiso   1.00
C386   C     0.46819   0.23688   0.79362   0.00000  Uiso   1.00
C387   C     0.41738   0.23941   0.75699   0.00000  Uiso   1.00
C388   C     0.35393   0.26078   0.77316   0.00000  Uiso   1.00
C389   C     0.58533   0.27389   0.80201   0.00000  Uiso   1.00
C390   C     0.63300   0.30754   0.77242   0.00000  Uiso   1.00
C391   C     0.66815   0.36009   0.79565   0.00000  Uiso   1.00
H392   H     0.50942   0.26264   0.91785   0.00000  Uiso   1.00
H393   H     0.54265   0.14390   0.95181   0.00000  Uiso   1.00
H394   H     0.38330   0.29051   0.90027   0.00000  Uiso   1.00
H395   H     0.59888   0.35863   0.91571   0.00000  Uiso   1.00
H396   H     0.58483   0.00423   0.96698   0.00000  Uiso   1.00
H397   H     0.24882   0.31338   0.85831   0.00000  Uiso   1.00
H398   H     0.70341   0.45703   0.89086   0.00000  Uiso   1.00
H399   H     0.55065   0.20087   0.74462   0.00000  Uiso   1.00
H400   H     0.58616   0.07873   0.76908   0.00000  Uiso   1.00
H401   H     0.42679   0.22534   0.71754   0.00000  Uiso   1.00
H402   H     0.64237   0.29346   0.73298   0.00000  Uiso   1.00
H403   H     0.62013   0.95133   0.81867   0.00000  Uiso   1.00
H404   H     0.28412   0.26049   0.71000   0.00000  Uiso   1.00
H405   H     0.73871   0.40414   0.74255   0.00000  Uiso   1.00
O406   O     0.62507   0.89854   0.91204   0.00000  Uiso   1.00
O407   O     0.18424   0.30415   0.76947   0.00000  Uiso   1.00
O408   O     0.78066   0.49262   0.81217   0.00000  Uiso   1.00
N409   N     0.58828   0.00854   0.92872   0.00000  Uiso   1.00
N410   N     0.27412   0.29758   0.82712   0.00000  Uiso   1.00
N411   N     0.69912   0.43189   0.85755   0.00000  Uiso   1.00
N412   N     0.60728   0.98008   0.84891   0.00000  Uiso   1.00
N413   N     0.29312   0.26911   0.74732   0.00000  Uiso   1.00
N414   N     0.71812   0.40343   0.77774   0.00000  Uiso   1.00
C415   C     0.01887   0.74849   0.37816   0.00000  Uiso   1.00
C416   C     0.04265   0.67541   0.37259   0.00000  Uiso   1.00
C417   C     0.05206   0.62981   0.41236   0.00000  Uiso   1.00
C418   C     0.07405   0.56531   0.39934   0.00000  Uiso   1.00
C419   C     0.10910   0.45459   0.39845   0.00000  Uiso   1.00
C420   C     0.95606   0.75506   0.34459   0.00000  Uiso   1.00
C421   C     0.89267   0.77644   0.36082   0.00000  Uiso   1.00
C422   C     0.84177   0.77900   0.32423   0.00000  Uiso   1.00
C423   C     0.74240   0.79198   0.27985   0.00000  Uiso   1.00
C424   C     0.07320   0.79207   0.35298   0.00000  Uiso   1.00
C425   C     0.10828   0.84458   0.37626   0.00000  Uiso   1.00
C426   C     0.15600   0.87830   0.34672   0.00000  Uiso   1.00
C427   C     0.23850   0.94875   0.31538   0.00000  Uiso   1.00
C428   C     0.04121   0.71502   0.28431   0.00000  Uiso   1.00
C429   C     0.05478   0.65723   0.32161   0.00000  Uiso   1.00
C430   C     0.07677   0.59278   0.30853   0.00000  Uiso   1.00
C431   C     0.08621   0.54710   0.34827   0.00000  Uiso   1.00
C432   C     0.96819   0.73688   0.29362   0.00000  Uiso   1.00
C433   C     0.91738   0.73941   0.25699   0.00000  Uiso   1.00
C434   C     0.85393   0.76078   0.27316   0.00000  Uiso   1.00
C435   C     0.08533   0.77389   0.30201   0.00000  Uiso   1.00
C436   C     0.13300   0.80754   0.27242   0.00000  Uiso   1.00
C437   C     0.16815   0.86009   0.29565   0.00000  Uiso   1.00
H438   H     0.00942   0.76264   0.41785   0.00000  Uiso   1.00
H439   H     0.04265   0.64390   0.45181   0.00000  Uiso   1.00
H440   H     0.88330   0.79051   0.40027   0.00000  Uiso   1.00
H441   H     0.09888   0.85863   0.41571   0.00000  Uiso   1.00
H442   H     0.08483   0.50423   0.46698   0.00000  Uiso   1.00
H443   H     0.74882   0.81338   0.35831   0.00000  Uiso   1.00
H444   H     0.20341   0.95703   0.39086   0.00000  Uiso   1.00
H445   H     0.05065   0.70087   0.24462   0.00000  Uiso   1.00
H446   H     0.08616   0.57873   0.26908   0.00000  Uiso   1.00
H447   H     0.92679   0.72534   0.21754   0.00000  Uiso   1.00
H448   H     0.14237   0.79346   0.23298   0.00000  Uiso   1.00
H449   H     0.12013   0.45133   0.31867   0.00000  Uiso   1.00
H450   H     0.78412   0.76049   0.21000   0.00000  Uiso   1.00
H451   H     0.23871   0.90414   0.24255   0.00000  Uiso   1.00
O452   O     0.12507   0.39854   0.41204   0.00000  Uiso   1.00
O453   O     0.68424   0.80415   0.26947   0.00000  Uiso   1.00
O454   O     0.28066   0.99262   0.31217   0.00000  Uiso   1.00
N455   N     0.08828   0.50854   0.42872   0.00000  Uiso   1.00
N456   N     0.77412   0.79758   0.32712   0.00000  Uiso   1.00
N457   N     0.19912   0.93189   0.35755   0.00000  Uiso   1.00
N458   N     0.10728   0.48008   0.34891   0.00000  Uiso   1.00
N459   N     0.79312   0.76911   0.24732   0.00000  Uiso   1.00
N460   N     0.21812   0.90343   0.27774   0.00000  Uiso   1.00
C461   C     0.98113   0.25151   0.37816   0.00000  Uiso   1.00
C462   C     0.95735   0.32459   0.37259   0.00000  Uiso   1.00
C463   C     0.94794   0.37019   0.41236   0.00000  Uiso   1.00
C464   C     0.92595   0.43469   0.39934   0.00000  Uiso   1.00
C465   C     0.89090   0.54541   0.39845   0.00000  Uiso   1.00
C466   C     0.04394   0.24494   0.34459   0.00000  Uiso   1.00
C467   C     0.10733   0.22356   0.36082   0.00000  Uiso   1.00
C468   C     0.15823   0.22100   0.32423   0.00000  Uiso   1.00
C469   C     0.25760   0.20802   0.27985   0.00000  Uiso   1.00
C470   C     0.92680   0.20793   0.35298   0.00000  Uiso   1.00
C471   C     0.89172   0.15542   0.37626   0.00000  Uiso   1.00
C472   C     0.84400   0.12170   0.34672   0.00000  Uiso   1.00
C473   C     0.76150   0.05125   0.31538   0.00000  Uiso   1.00
C474   C     0.95879   0.28498   0.28431   0.00000  Uiso   1.00
C475   C     0.94522   0.34277   0.32161   0.00000  Uiso   1.00
C476   C     0.92323   0.40722   0.30853   0.00000  Uiso   1.00
C477   C     0.91379   0.45290   0.34827   0.00000  Uiso   1.00
C478   C     0.03181   0.26312   0.29362   0.00000  Uiso   1.00
C479   C     0.08262   0.26059   0.25699   0.00000  Uiso   1.00
C480   C     0.14607   0.23922   0.27316   0.00000  Uiso   1.00
C481   C     0.91467   0.22611   0.30201   0.00000  Uiso   1.00
C482   C     0.86700   0.19246   0.27242   0.00000  Uiso   1.00
C483   C     0.83185   0.13991   0.29565   0.00000  Uiso   1.00
H484   H     0.99058   0.23736   0.41785   0.00000  Uiso   1.00
H485   H     0.95735   0.35610   0.45181   0.00000  Uiso   1.00
H486   H     0.11670   0.20949   0.40027   0.00000  Uiso   1.00
H487   H     0.90112   0.14137   0.41571   0.00000  Uiso   1.00
H488   H     0.91517   0.49577   0.46698   0.00000  Uiso   1.00
H489   H     0.25118   0.18662   0.35831   0.00000  Uiso   1.00
H490   H     0.79659   0.04297   0.39086   0.00000  Uiso   1.00
H491   H     0.94935   0.29913   0.24462   0.00000  Uiso   1.00
H492   H     0.91384   0.42127   0.26908   0.00000  Uiso   1.00
H493   H     0.07321   0.27466   0.21754   0.00000  Uiso   1.00
H494   H     0.85763   0.20654   0.23298   0.00000  Uiso   1.00
H495   H     0.87987   0.54867   0.31867   0.00000  Uiso   1.00
H496   H     0.21588   0.23951   0.21000   0.00000  Uiso   1.00
H497   H     0.76129   0.09586   0.24255   0.00000  Uiso   1.00
O498   O     0.87493   0.60146   0.41204   0.00000  Uiso   1.00
O499   O     0.31576   0.19585   0.26947   0.00000  Uiso   1.00
O500   O     0.71934   0.00738   0.31217   0.00000  Uiso   1.00
N501   N     0.91172   0.49146   0.42872   0.00000  Uiso   1.00
N502   N     0.22588   0.20242   0.32712   0.00000  Uiso   1.00
N503   N     0.80088   0.06811   0.35755   0.00000  Uiso   1.00
N504   N     0.89272   0.51992   0.34891   0.00000  Uiso   1.00
N505   N     0.20688   0.23089   0.24732   0.00000  Uiso   1.00
N506   N     0.78188   0.09657   0.27774   0.00000  Uiso   1.00
C507   C     0.48113   0.75151   0.87816   0.00000  Uiso   1.00
C508   C     0.45735   0.82459   0.87259   0.00000  Uiso   1.00
C509   C     0.44794   0.87019   0.91236   0.00000  Uiso   1.00
C510   C     0.42595   0.93469   0.89934   0.00000  Uiso   1.00
C511   C     0.39090   0.04541   0.89845   0.00000  Uiso   1.00
C512   C     0.54394   0.74494   0.84459   0.00000  Uiso   1.00
C513   C     0.60733   0.72356   0.86082   0.00000  Uiso   1.00
C514   C     0.65823   0.72100   0.82423   0.00000  Uiso   1.00
C515   C     0.75760   0.70802   0.77985   0.00000  Uiso   1.00
C516   C     0.42680   0.70793   0.85298   0.00000  Uiso   1.00
C517   C     0.39172   0.65542   0.87626   0.00000  Uiso   1.00
C518   C     0.34400   0.62170   0.84672   0.00000  Uiso   1.00
C519   C     0.26150   0.55125   0.81538   0.00000  Uiso   1.00
C520   C     0.45879   0.78498   0.78431   0.00000  Uiso   1.00
C521   C     0.44522   0.84277   0.82161   0.00000  Uiso   1.00
C522   C     0.42323   0.90722   0.80853   0.00000  Uiso   1.00
C523   C     0.41379   0.95290   0.84827   0.00000  Uiso   1.00
C524   C     0.53181   0.76312   0.79362   0.00000  Uiso   1.00
C525   C     0.58262   0.76059   0.75699   0.00000  Uiso   1.00
C526   C     0.64607   0.73922   0.77316   0.00000  Uiso   1.00
C527   C     0.41467   0.72611   0.80201   0.00000  Uiso   1.00
C528   C     0.36700   0.69246   0.77242   0.00000  Uiso   1.00
C529   C     0.33185   0.63991   0.79565   0.00000  Uiso   1.00
H530   H     0.49058   0.73736   0.91785   0.00000  Uiso   1.00
H531   H     0.45735   0.85610   0.95181   0.00000  Uiso   1.00
H532   H     0.61670   0.70949   0.90027   0.00000  Uiso   1.00
H533   H     0.40112   0.64137   0.91571   0.00000  Uiso   1.00
H534   H     0.41517   0.99577   0.96698   0.00000  Uiso   1.00
H535   H     0.75118   0.68662   0.85831   0.00000  Uiso   1.00
H536   H     0.29659   0.54297   0.89086   0.00000  Uiso   1.00
H537   H     0.44935   0.79913   0.74462   0.00000  Uiso   1.00
H538   H     0.41384   0.92127   0.76908   0.00000  Uiso   1.00
H539   H     0.57321   0.77466   0.71754   0.00000  Uiso   1.00
H540   H     0.35763   0.70654   0.73298   0.00000  Uiso   1.00
H541   H     0.37987   0.04867   0.81867   0.00000  Uiso   1.00
H542   H     0.71588   0.73951   0.71000   0.00000  Uiso   1.00
H543   H     0.26129   0.59586   0.74255   0.00000  Uiso   1.00
O544   O     0.37493   0.10146   0.91204   0.00000  Uiso   1.00
O545   O     0.81576   0.69585   0.76947   0.00000  Uiso   1.00
O546   O     0.21934   0.50738   0.81217   0.00000  Uiso   1.00
N547   N     0.41172   0.99146   0.92872   0.00000  Uiso   1.00
N548   N     0.72588   0.70242   0.82712   0.00000  Uiso   1.00
N549   N     0.30088   0.56811   0.85755   0.00000  Uiso   1.00
N550   N     0.39272   0.01992   0.84891   0.00000  Uiso   1.00
N551   N     0.70688   0.73089   0.74732   0.00000  Uiso   1.00
N552   N     0.28188   0.59657   0.77774   0.00000  Uiso   1.00
C553   C     0.25151   0.51887   0.62816   0.00000  Uiso   1.00
C554   C     0.32459   0.54265   0.62259   0.00000  Uiso   1.00
C555   C     0.37019   0.55206   0.66236   0.00000  Uiso   1.00
C556   C     0.43469   0.57405   0.64934   0.00000  Uiso   1.00
C557   C     0.54541   0.60910   0.64845   0.00000  Uiso   1.00
C558   C     0.24494   0.45606   0.59459   0.00000  Uiso   1.00
C559   C     0.22356   0.39267   0.61082   0.00000  Uiso   1.00
C560   C     0.22100   0.34177   0.57423   0.00000  Uiso   1.00
C561   C     0.20802   0.24240   0.52985   0.00000  Uiso   1.00
C562   C     0.20793   0.57320   0.60298   0.00000  Uiso   1.00
C563   C     0.15542   0.60828   0.62626   0.00000  Uiso   1.00
C564   C     0.12170   0.65600   0.59672   0.00000  Uiso   1.00
C565   C     0.05125   0.73850   0.56538   0.00000  Uiso   1.00
C566   C     0.28498   0.54121   0.53431   0.00000  Uiso   1.00
C567   C     0.34277   0.55478   0.57161   0.00000  Uiso   1.00
C568   C     0.40722   0.57677   0.55853   0.00000  Uiso   1.00
C569   C     0.45290   0.58621   0.59827   0.00000  Uiso   1.00
C570   C     0.26312   0.46819   0.54362   0.00000  Uiso   1.00
C571   C     0.26059   0.41738   0.50699   0.00000  Uiso   1.00
C572   C     0.23922   0.35393   0.52316   0.00000  Uiso   1.00
C573   C     0.22611   0.58533   0.55201   0.00000  Uiso   1.00
C574   C     0.19246   0.63300   0.52242   0.00000  Uiso   1.00
C575   C     0.13991   0.66815   0.54565   0.00000  Uiso   1.00
H576   H     0.23736   0.50942   0.66785   0.00000  Uiso   1.00
H577   H     0.35610   0.54265   0.70181   0.00000  Uiso   1.00
H578   H     0.20949   0.38330   0.65027   0.00000  Uiso   1.00
H579   H     0.14137   0.59888   0.66571   0.00000  Uiso   1.00
H580   H     0.49577   0.58483   0.71698   0.00000  Uiso   1.00
H581   H     0.18662   0.24882   0.60831   0.00000  Uiso   1.00
H582   H     0.04297   0.70341   0.64086   0.00000  Uiso   1.00
H583   H     0.29913   0.55065   0.49462   0.00000  Uiso   1.00
H584   H     0.42127   0.58616   0.51908   0.00000  Uiso   1.00
H585   H     0.27466   0.42679   0.46754   0.00000  Uiso   1.00
H586   H     0.20654   0.64237   0.48298   0.00000  Uiso   1.00
H587   H     0.54867   0.62013   0.56867   0.00000  Uiso   1.00
H588   H     0.23951   0.28412   0.46000   0.00000  Uiso   1.00
H589   H     0.09586   0.73871   0.49255   0.00000  Uiso   1.00
O590   O     0.60146   0.62507   0.66204   0.00000  Uiso   1.00
O591   O     0.19585   0.18424   0.51947   0.00000  Uiso   1.00
O592   O     0.00738   0.78066   0.56217   0.00000  Uiso   1.00
N593   N     0.49146   0.58828   0.67872   0.00000  Uiso   1.00
N594   N     0.20242   0.27412   0.57712   0.00000  Uiso   1.00
N595   N     0.06811   0.69912   0.60755   0.00000  Uiso   1.00
N596   N     0.51992   0.60728   0.59891   0.00000  Uiso   1.00
N597   N     0.23089   0.29312   0.49732   0.00000  Uiso   1.00
N598   N     0.09657   0.71812   0.52774   0.00000  Uiso   1.00
C599   C     0.75151   0.01887   0.12816   0.00000  Uiso   1.00
C600   C     0.82459   0.04265   0.12259   0.00000  Uiso   1.00
C601   C     0.87019   0.05206   0.16236   0.00000  Uiso   1.00
C602   C     0.93469   0.07405   0.14934   0.00000  Uiso   1.00
C603   C     0.04541   0.10910   0.14845   0.00000  Uiso   1.00
C604   C     0.74494   0.95606   0.09459   0.00000  Uiso   1.00
C605   C     0.72356   0.89267   0.11082   0.00000  Uiso   1.00
C606   C     0.72100   0.84177   0.07423   0.00000  Uiso   1.00
C607   C     0.70802   0.74240   0.02985   0.00000  Uiso   1.00
C608   C     0.70793   0.07320   0.10298   0.00000  Uiso   1.00
C609   C     0.65542   0.10828   0.12626   0.00000  Uiso   1.00
C610   C     0.62170   0.15600   0.09672   0.00000  Uiso   1.00
C611   C     0.55125   0.23850   0.06538   0.00000  Uiso   1.00
C612   C     0.78498   0.04121   0.03431   0.00000  Uiso   1.00
C613   C     0.84277   0.05478   0.07161   0.00000  Uiso   1.00
C614   C     0.90722   0.07677   0.05853   0.00000  Uiso   1.00
C615   C     0.95290   0.08621   0.09827   0.00000  Uiso   1.00
C616   C     0.76312   0.96819   0.04362   0.00000  Uiso   1.00
C617   C     0.76059   0.91738   0.00699   0.00000  Uiso   1.00
C618   C     0.73922   0.85393   0.02316   0.00000  Uiso   1.00
C619   C     0.72611   0.08533   0.05201   0.00000  Uiso   1.00
C620   C     0.69246   0.13300   0.02242   0.00000  Uiso   1.00
C621   C     0.63991   0.16815   0.04565   0.00000  Uiso   1.00
H622   H     0.73736   0.00942   0.16785   0.00000  Uiso   1.00
H623   H     0.85610   0.04265   0.20181   0.00000  Uiso   1.00
H624   H     0.70949   0.88330   0.15027   0.00000  Uiso   1.00
H625   H     0.64137   0.09888   0.16571   0.00000  Uiso   1.00
H626   H     0.99577   0.08483   0.21698   0.00000  Uiso   1.00
H627   H     0.68662   0.74882   0.10831   0.00000  Uiso   1.00
H628   H     0.54297   0.20341   0.14086   0.00000  Uiso   1.00
H629   H     0.79913   0.05065   0.99462   0.00000  Uiso   1.00
H630   H     0.92127   0.08616   0.01908   0.00000  Uiso   1.00
H631   H     0.77466   0.92679   0.96754   0.00000  Uiso   1.00
H632   H     0.70654   0.14237   0.98298   0.00000  Uiso   1.00
H633   H     0.04867   0.12013   0.06867   0.00000  Uiso   1.00
H634   H     0.73951   0.78412   0.96000   0.00000  Uiso   1.00
H635   H     0.59586   0.23871   0.99255   0.00000  Uiso   1.00
O636   O     0.10146   0.12507   0.16204   0.00000  Uiso   1.00
O637   O     0.69585   0.68424   0.01947   0.00000  Uiso   1.00
O638   O     0.50738   0.28066   0.06217   0.00000  Uiso   1.00
N639   N     0.99146   0.08828   0.17872   0.00000  Uiso   1.00
N640   N     0.70242   0.77412   0.07712   0.00000  Uiso   1.00
N641   N     0.56811   0.19912   0.10755   0.00000  Uiso   1.00
N642   N     0.01992   0.10728   0.09891   0.00000  Uiso   1.00
N643   N     0.73089   0.79312   0.99732   0.00000  Uiso   1.00
N644   N     0.59657   0.21812   0.02774   0.00000  Uiso   1.00
C645   C     0.24849   0.98113   0.12816   0.00000  Uiso   1.00
C646   C     0.17541   0.95735   0.12259   0.00000  Uiso   1.00
C647   C     0.12981   0.94794   0.16236   0.00000  Uiso   1.00
C648   C     0.06531   0.92595   0.14934   0.00000  Uiso   1.00
C649   C     0.95459   0.89090   0.14845   0.00000  Uiso   1.00
C650   C     0.25506   0.04394   0.09459   0.00000  Uiso   1.00
C651   C     0.27644   0.10733   0.11082   0.00000  Uiso   1.00
C652   C     0.27900   0.15823   0.07423   0.00000  Uiso   1.00
C653   C     0.29198   0.25760   0.02985   0.00000  Uiso   1.00
C654   C     0.29207   0.92680   0.10298   0.00000  Uiso   1.00
C655   C     0.34458   0.89172   0.12626   0.00000  Uiso   1.00
C656   C     0.37830   0.84400   0.09672   0.00000  Uiso   1.00
C657   C     0.44875   0.76150   0.06538   0.00000  Uiso   1.00
C658   C     0.21502   0.95879   0.03431   0.00000  Uiso   1.00
C659   C     0.15723   0.94522   0.07161   0.00000  Uiso   1.00
C660   C     0.09278   0.92323   0.05853   0.00000  Uiso   1.00
C661   C     0.04710   0.91379   0.09827   0.00000  Uiso   1.00
C662   C     0.23688   0.03181   0.04362   0.00000  Uiso   1.00
C663   C     0.23941   0.08262   0.00699   0.00000  Uiso   1.00
C664   C     0.26078   0.14607   0.02316   0.00000  Uiso   1.00
C665   C     0.27389   0.91467   0.05201   0.00000  Uiso   1.00
C666   C     0.30754   0.86700   0.02242   0.00000  Uiso   1.00
C667   C     0.36009   0.83185   0.04565   0.00000  Uiso   1.00
H668   H     0.26264   0.99058   0.16785   0.00000  Uiso   1.00
H669   H     0.14390   0.95735   0.20181   0.00000  Uiso   1.00
H670   H     0.29051   0.11670   0.15027   0.00000  Uiso   1.00
H671   H     0.35863   0.90112   0.16571   0.00000  Uiso   1.00
H672   H     0.00423   0.91517   0.21698   0.00000  Uiso   1.00
H673   H     0.31338   0.25118   0.10831   0.00000  Uiso   1.00
H674   H     0.45703   0.79659   0.14086   0.00000  Uiso   1.00
H675   H     0.20087   0.94935   0.99462   0.00000  Uiso   1.00
H676   H     0.07873   0.91384   0.01908   0.00000  Uiso   1.00
H677   H     0.22534   0.07321   0.96754   0.00000  Uiso   1.00
H678   H     0.29346   0.85763   0.98298   0.00000  Uiso   1.00
H679   H     0.95133   0.87987   0.06867   0.00000  Uiso   1.00
H680   H     0.26049   0.21588   0.96000   0.00000  Uiso   1.00
H681   H     0.40414   0.76129   0.99255   0.00000  Uiso   1.00
O682   O     0.89854   0.87493   0.16204   0.00000  Uiso   1.00
O683   O     0.30415   0.31576   0.01947   0.00000  Uiso   1.00
O684   O     0.49262   0.71934   0.06217   0.00000  Uiso   1.00
N685   N     0.00854   0.91172   0.17872   0.00000  Uiso   1.00
N686   N     0.29758   0.22588   0.07712   0.00000  Uiso   1.00
N687   N     0.43189   0.80088   0.10755   0.00000  Uiso   1.00
N688   N     0.98008   0.89272   0.09891   0.00000  Uiso   1.00
N689   N     0.26911   0.20688   0.99732   0.00000  Uiso   1.00
N690   N     0.40343   0.78188   0.02774   0.00000  Uiso   1.00
C691   C     0.74849   0.48113   0.62816   0.00000  Uiso   1.00
C692   C     0.67541   0.45735   0.62259   0.00000  Uiso   1.00
C693   C     0.62981   0.44794   0.66236   0.00000  Uiso   1.00
C694   C     0.56531   0.42595   0.64934   0.00000  Uiso   1.00
C695   C     0.45459   0.39090   0.64845   0.00000  Uiso   1.00
C696   C     0.75506   0.54394   0.59459   0.00000  Uiso   1.00
C697   C     0.77644   0.60733   0.61082   0.00000  Uiso   1.00
C698   C     0.77900   0.65823   0.57423   0.00000  Uiso   1.00
C699   C     0.79198   0.75760   0.52985   0.00000  Uiso   1.00
C700   C     0.79207   0.42680   0.60298   0.00000  Uiso   1.00
C701   C     0.84458   0.39172   0.62626   0.00000  Uiso   1.00
C702   C     0.87830   0.34400   0.59672   0.00000  Uiso   1.00
C703   C     0.94875   0.26150   0.56538   0.00000  Uiso   1.00
C704   C     0.71502   0.45879   0.53431   0.00000  Uiso   1.00
C705   C     0.65723   0.44522   0.57161   0.00000  Uiso   1.00
C706   C     0.59278   0.42323   0.55853   0.00000  Uiso   1.00
C707   C     0.54710   0.41379   0.59827   0.00000  Uiso   1.00
C708   C     0.73688   0.53181   0.54362   0.00000  Uiso   1.00
C709   C     0.73941   0.58262   0.50699   0.00000  Uiso   1.00
C710   C     0.76078   0.64607   0.52316   0.00000  Uiso   1.00
C711   C     0.77389   0.41467   0.55201   0.00000  Uiso   1.00
C712   C     0.80754   0.36700   0.52242   0.00000  Uiso   1.00
C713   C     0.86009   0.33185   0.54565   0.00000  Uiso   1.00
H714   H     0.76264   0.49058   0.66785   0.00000  Uiso   1.00
H715   H     0.64390   0.45735   0.70181   0.00000  Uiso   1.00
H716   H     0.79051   0.61670   0.65027   0.00000  Uiso   1.00
H717   H     0.85863   0.40112   0.66571   0.00000  Uiso   1.00
H718   H     0.50423   0.41517   0.71698   0.00000  Uiso   1.00
H719   H     0.81338   0.75118   0.60831   0.00000  Uiso   1.00
H720   H     0.95703   0.29659   0.64086   0.00000  Uiso   1.00
H721   H     0.70087   0.44935   0.49462   0.00000  Uiso   1.00
H722   H     0.57873   0.41384   0.51908   0.00000  Uiso   1.00
H723   H     0.72534   0.57321   0.46754   0.00000  Uiso   1.00
H724   H     0.79346   0.35763   0.48298   0.00000  Uiso   1.00
H725   H     0.45133   0.37987   0.56867   0.00000  Uiso   1.00
H726   H     0.76049   0.71588   0.46000   0.00000  Uiso   1.00
H727   H     0.90414   0.26129   0.49255   0.00000  Uiso   1.00
O728   O     0.39854   0.37493   0.66204   0.00000  Uiso   1.00
O729   O     0.80415   0.81576   0.51947   0.00000  Uiso   1.00
O730   O     0.99262   0.21934   0.56217   0.00000  Uiso   1.00
N731   N     0.50854   0.41172   0.67872   0.00000  Uiso   1.00
N732   N     0.79758   0.72588   0.57712   0.00000  Uiso   1.00
N733   N     0.93189   0.30088   0.60755   0.00000  Uiso   1.00
N734   N     0.48008   0.39272   0.59891   0.00000  Uiso   1.00
N735   N     0.76911   0.70688   0.49732   0.00000  Uiso   1.00
N736   N     0.90343   0.28188   0.52774   0.00000  Uiso   1.00
