data_job_04097
_audit_creation_date              2018-12-19
_audit_creation_method            'Materials Studio'
_symmetry_space_group_name_H-M    'P1'
_symmetry_Int_Tables_number       1
_symmetry_cell_setting            triclinic
loop_
_symmetry_equiv_pos_as_xyz
  x,y,z
_cell_length_a                    13.6913
_cell_length_b                    45.3742
_cell_length_c                    23.1805
_cell_angle_alpha                 90.0000
_cell_angle_beta                  90.0000
_cell_angle_gamma                 90.0000
loop_
_atom_site_label
_atom_site_type_symbol
_atom_site_fract_x
_atom_site_fract_y
_atom_site_fract_z
_atom_site_U_iso_or_equiv
_atom_site_adp_type
_atom_site_occupancy
C1     C     0.45522   0.45808   0.52279   0.00000  Uiso   1.00
C2     C     0.39653   0.45284   0.46783   0.00000  Uiso   1.00
C3     C     0.38643   0.47260   0.42253   0.00000  Uiso   1.00
C4     C     0.32965   0.46367   0.37609   0.00000  Uiso   1.00
C5     C     0.24533   0.45976   0.29092   0.00000  Uiso   1.00
C6     C     0.38407   0.45365   0.57266   0.00000  Uiso   1.00
C7     C     0.36351   0.47410   0.61550   0.00000  Uiso   1.00
C8     C     0.29625   0.46584   0.65731   0.00000  Uiso   1.00
C9     C     0.19263   0.46319   0.73491   0.00000  Uiso   1.00
C10    C     0.52826   0.43278   0.52658   0.00000  Uiso   1.00
C11    C     0.62893   0.43567   0.53069   0.00000  Uiso   1.00
C12    C     0.68306   0.40984   0.53372   0.00000  Uiso   1.00
C13    C     0.80331   0.37477   0.53977   0.00000  Uiso   1.00
C14    C     0.37234   0.40706   0.52087   0.00000  Uiso   1.00
C15    C     0.35151   0.42513   0.46679   0.00000  Uiso   1.00
C16    C     0.29473   0.41616   0.42040   0.00000  Uiso   1.00
C17    C     0.28455   0.43591   0.37504   0.00000  Uiso   1.00
C18    C     0.33905   0.42595   0.57162   0.00000  Uiso   1.00
C19    C     0.27181   0.41766   0.61338   0.00000  Uiso   1.00
C20    C     0.25115   0.43808   0.65627   0.00000  Uiso   1.00
C21    C     0.48324   0.40507   0.52553   0.00000  Uiso   1.00
C22    C     0.53723   0.37923   0.52856   0.00000  Uiso   1.00
C23    C     0.63796   0.38208   0.53268   0.00000  Uiso   1.00
H24    H     0.49027   0.47965   0.52361   0.00000  Uiso   1.00
H25    H     0.42128   0.49405   0.42335   0.00000  Uiso   1.00
H26    H     0.39837   0.49554   0.61630   0.00000  Uiso   1.00
H27    H     0.66374   0.45712   0.53150   0.00000  Uiso   1.00
H28    H     0.32490   0.49779   0.31175   0.00000  Uiso   1.00
H29    H     0.27662   0.50094   0.71860   0.00000  Uiso   1.00
H30    H     0.83621   0.41992   0.53978   0.00000  Uiso   1.00
H31    H     0.33729   0.38549   0.52006   0.00000  Uiso   1.00
H32    H     0.25990   0.39472   0.41961   0.00000  Uiso   1.00
H33    H     0.23699   0.39621   0.61256   0.00000  Uiso   1.00
H34    H     0.50236   0.35779   0.52775   0.00000  Uiso   1.00
H35    H     0.19392   0.41718   0.30872   0.00000  Uiso   1.00
H36    H     0.14564   0.42032   0.71557   0.00000  Uiso   1.00
H37    H     0.70523   0.33930   0.53674   0.00000  Uiso   1.00
O38    O     0.21124   0.46526   0.24423   0.00000  Uiso   1.00
O39    O     0.14791   0.46938   0.77800   0.00000  Uiso   1.00
O40    O     0.88208   0.36308   0.54339   0.00000  Uiso   1.00
N41    N     0.30471   0.47755   0.32482   0.00000  Uiso   1.00
N42    N     0.25956   0.48049   0.70519   0.00000  Uiso   1.00
N43    N     0.78273   0.40474   0.53803   0.00000  Uiso   1.00
N44    N     0.23424   0.43417   0.32318   0.00000  Uiso   1.00
N45    N     0.18908   0.43711   0.70356   0.00000  Uiso   1.00
N46    N     0.71225   0.36136   0.53639   0.00000  Uiso   1.00
C47    C     0.45522   0.95808   0.02279   0.00000  Uiso   1.00
C48    C     0.39653   0.95284   0.96783   0.00000  Uiso   1.00
C49    C     0.38643   0.97260   0.92253   0.00000  Uiso   1.00
C50    C     0.32965   0.96367   0.87609   0.00000  Uiso   1.00
C51    C     0.24533   0.95976   0.79092   0.00000  Uiso   1.00
C52    C     0.38407   0.95365   0.07266   0.00000  Uiso   1.00
C53    C     0.36351   0.97410   0.11550   0.00000  Uiso   1.00
C54    C     0.29625   0.96584   0.15731   0.00000  Uiso   1.00
C55    C     0.19263   0.96319   0.23491   0.00000  Uiso   1.00
C56    C     0.52826   0.93278   0.02658   0.00000  Uiso   1.00
C57    C     0.62893   0.93567   0.03069   0.00000  Uiso   1.00
C58    C     0.68306   0.90984   0.03372   0.00000  Uiso   1.00
C59    C     0.80331   0.87477   0.03977   0.00000  Uiso   1.00
C60    C     0.37234   0.90706   0.02087   0.00000  Uiso   1.00
C61    C     0.35151   0.92513   0.96679   0.00000  Uiso   1.00
C62    C     0.29473   0.91616   0.92040   0.00000  Uiso   1.00
C63    C     0.28455   0.93591   0.87504   0.00000  Uiso   1.00
C64    C     0.33905   0.92595   0.07162   0.00000  Uiso   1.00
C65    C     0.27181   0.91766   0.11338   0.00000  Uiso   1.00
C66    C     0.25115   0.93808   0.15627   0.00000  Uiso   1.00
C67    C     0.48324   0.90507   0.02553   0.00000  Uiso   1.00
C68    C     0.53723   0.87923   0.02856   0.00000  Uiso   1.00
C69    C     0.63796   0.88208   0.03268   0.00000  Uiso   1.00
H70    H     0.49027   0.97965   0.02361   0.00000  Uiso   1.00
H71    H     0.42128   0.99405   0.92335   0.00000  Uiso   1.00
H72    H     0.39837   0.99554   0.11630   0.00000  Uiso   1.00
H73    H     0.66374   0.95712   0.03150   0.00000  Uiso   1.00
H74    H     0.32490   0.99779   0.81175   0.00000  Uiso   1.00
H75    H     0.27662   0.00094   0.21860   0.00000  Uiso   1.00
H76    H     0.83621   0.91992   0.03978   0.00000  Uiso   1.00
H77    H     0.33729   0.88549   0.02006   0.00000  Uiso   1.00
H78    H     0.25990   0.89472   0.91961   0.00000  Uiso   1.00
H79    H     0.23699   0.89621   0.11256   0.00000  Uiso   1.00
H80    H     0.50236   0.85779   0.02775   0.00000  Uiso   1.00
H81    H     0.19392   0.91718   0.80872   0.00000  Uiso   1.00
H82    H     0.14564   0.92032   0.21557   0.00000  Uiso   1.00
H83    H     0.70523   0.83930   0.03674   0.00000  Uiso   1.00
O84    O     0.21124   0.96526   0.74423   0.00000  Uiso   1.00
O85    O     0.14791   0.96938   0.27800   0.00000  Uiso   1.00
O86    O     0.88208   0.86308   0.04339   0.00000  Uiso   1.00
N87    N     0.30471   0.97755   0.82482   0.00000  Uiso   1.00
N88    N     0.25956   0.98049   0.20519   0.00000  Uiso   1.00
N89    N     0.78273   0.90474   0.03803   0.00000  Uiso   1.00
N90    N     0.23424   0.93417   0.82318   0.00000  Uiso   1.00
N91    N     0.18908   0.93711   0.20356   0.00000  Uiso   1.00
N92    N     0.71225   0.86136   0.03639   0.00000  Uiso   1.00
C93    C     0.95522   0.45808   0.02279   0.00000  Uiso   1.00
C94    C     0.89653   0.45284   0.96783   0.00000  Uiso   1.00
C95    C     0.88643   0.47260   0.92253   0.00000  Uiso   1.00
C96    C     0.82965   0.46367   0.87609   0.00000  Uiso   1.00
C97    C     0.74533   0.45976   0.79092   0.00000  Uiso   1.00
C98    C     0.88407   0.45365   0.07266   0.00000  Uiso   1.00
C99    C     0.86351   0.47410   0.11550   0.00000  Uiso   1.00
C100   C     0.79625   0.46584   0.15731   0.00000  Uiso   1.00
C101   C     0.69263   0.46319   0.23491   0.00000  Uiso   1.00
C102   C     0.02826   0.43278   0.02658   0.00000  Uiso   1.00
C103   C     0.12893   0.43567   0.03069   0.00000  Uiso   1.00
C104   C     0.18306   0.40984   0.03372   0.00000  Uiso   1.00
C105   C     0.30331   0.37477   0.03977   0.00000  Uiso   1.00
C106   C     0.87234   0.40706   0.02087   0.00000  Uiso   1.00
C107   C     0.85151   0.42513   0.96679   0.00000  Uiso   1.00
C108   C     0.79473   0.41616   0.92040   0.00000  Uiso   1.00
C109   C     0.78455   0.43591   0.87504   0.00000  Uiso   1.00
C110   C     0.83905   0.42595   0.07162   0.00000  Uiso   1.00
C111   C     0.77181   0.41766   0.11338   0.00000  Uiso   1.00
C112   C     0.75115   0.43808   0.15627   0.00000  Uiso   1.00
C113   C     0.98324   0.40507   0.02553   0.00000  Uiso   1.00
C114   C     0.03723   0.37923   0.02856   0.00000  Uiso   1.00
C115   C     0.13796   0.38208   0.03268   0.00000  Uiso   1.00
H116   H     0.99027   0.47965   0.02361   0.00000  Uiso   1.00
H117   H     0.92128   0.49405   0.92335   0.00000  Uiso   1.00
H118   H     0.89837   0.49554   0.11630   0.00000  Uiso   1.00
H119   H     0.16374   0.45712   0.03150   0.00000  Uiso   1.00
H120   H     0.82490   0.49779   0.81175   0.00000  Uiso   1.00
H121   H     0.77662   0.50094   0.21860   0.00000  Uiso   1.00
H122   H     0.33621   0.41992   0.03978   0.00000  Uiso   1.00
H123   H     0.83729   0.38549   0.02006   0.00000  Uiso   1.00
H124   H     0.75990   0.39472   0.91961   0.00000  Uiso   1.00
H125   H     0.73699   0.39621   0.11256   0.00000  Uiso   1.00
H126   H     0.00236   0.35779   0.02775   0.00000  Uiso   1.00
H127   H     0.69392   0.41718   0.80872   0.00000  Uiso   1.00
H128   H     0.64564   0.42032   0.21557   0.00000  Uiso   1.00
H129   H     0.20523   0.33930   0.03674   0.00000  Uiso   1.00
O130   O     0.71124   0.46526   0.74423   0.00000  Uiso   1.00
O131   O     0.64791   0.46938   0.27800   0.00000  Uiso   1.00
O132   O     0.38208   0.36308   0.04339   0.00000  Uiso   1.00
N133   N     0.80471   0.47755   0.82482   0.00000  Uiso   1.00
N134   N     0.75956   0.48049   0.20519   0.00000  Uiso   1.00
N135   N     0.28273   0.40474   0.03803   0.00000  Uiso   1.00
N136   N     0.73424   0.43417   0.82318   0.00000  Uiso   1.00
N137   N     0.68908   0.43711   0.20356   0.00000  Uiso   1.00
N138   N     0.21225   0.36136   0.03639   0.00000  Uiso   1.00
C139   C     0.95522   0.95808   0.52279   0.00000  Uiso   1.00
C140   C     0.89653   0.95284   0.46783   0.00000  Uiso   1.00
C141   C     0.88643   0.97260   0.42253   0.00000  Uiso   1.00
C142   C     0.82965   0.96367   0.37609   0.00000  Uiso   1.00
C143   C     0.74533   0.95976   0.29092   0.00000  Uiso   1.00
C144   C     0.88407   0.95365   0.57266   0.00000  Uiso   1.00
C145   C     0.86351   0.97410   0.61550   0.00000  Uiso   1.00
C146   C     0.79625   0.96584   0.65731   0.00000  Uiso   1.00
C147   C     0.69263   0.96319   0.73491   0.00000  Uiso   1.00
C148   C     0.02826   0.93278   0.52658   0.00000  Uiso   1.00
C149   C     0.12893   0.93567   0.53069   0.00000  Uiso   1.00
C150   C     0.18306   0.90984   0.53372   0.00000  Uiso   1.00
C151   C     0.30331   0.87477   0.53977   0.00000  Uiso   1.00
C152   C     0.87234   0.90706   0.52087   0.00000  Uiso   1.00
C153   C     0.85151   0.92513   0.46679   0.00000  Uiso   1.00
C154   C     0.79473   0.91616   0.42040   0.00000  Uiso   1.00
C155   C     0.78455   0.93591   0.37504   0.00000  Uiso   1.00
C156   C     0.83905   0.92595   0.57162   0.00000  Uiso   1.00
C157   C     0.77181   0.91766   0.61338   0.00000  Uiso   1.00
C158   C     0.75115   0.93808   0.65627   0.00000  Uiso   1.00
C159   C     0.98324   0.90507   0.52553   0.00000  Uiso   1.00
C160   C     0.03723   0.87923   0.52856   0.00000  Uiso   1.00
C161   C     0.13796   0.88208   0.53268   0.00000  Uiso   1.00
H162   H     0.99027   0.97965   0.52361   0.00000  Uiso   1.00
H163   H     0.92128   0.99405   0.42335   0.00000  Uiso   1.00
H164   H     0.89837   0.99554   0.61630   0.00000  Uiso   1.00
H165   H     0.16374   0.95712   0.53150   0.00000  Uiso   1.00
H166   H     0.82490   0.99779   0.31175   0.00000  Uiso   1.00
H167   H     0.77662   0.00094   0.71860   0.00000  Uiso   1.00
H168   H     0.33621   0.91992   0.53978   0.00000  Uiso   1.00
H169   H     0.83729   0.88549   0.52006   0.00000  Uiso   1.00
H170   H     0.75990   0.89472   0.41961   0.00000  Uiso   1.00
H171   H     0.73699   0.89621   0.61256   0.00000  Uiso   1.00
H172   H     0.00236   0.85779   0.52775   0.00000  Uiso   1.00
H173   H     0.69392   0.91718   0.30872   0.00000  Uiso   1.00
H174   H     0.64564   0.92032   0.71557   0.00000  Uiso   1.00
H175   H     0.20523   0.83930   0.53674   0.00000  Uiso   1.00
O176   O     0.71124   0.96526   0.24423   0.00000  Uiso   1.00
O177   O     0.64791   0.96938   0.77800   0.00000  Uiso   1.00
O178   O     0.38208   0.86308   0.54339   0.00000  Uiso   1.00
N179   N     0.80471   0.97755   0.32482   0.00000  Uiso   1.00
N180   N     0.75956   0.98049   0.70519   0.00000  Uiso   1.00
N181   N     0.28273   0.90474   0.53803   0.00000  Uiso   1.00
N182   N     0.73424   0.93417   0.32318   0.00000  Uiso   1.00
N183   N     0.68908   0.93711   0.70356   0.00000  Uiso   1.00
N184   N     0.21225   0.86136   0.53639   0.00000  Uiso   1.00
C185   C     0.54478   0.54192   0.52279   0.00000  Uiso   1.00
C186   C     0.60347   0.54716   0.46783   0.00000  Uiso   1.00
C187   C     0.61357   0.52740   0.42253   0.00000  Uiso   1.00
C188   C     0.67035   0.53633   0.37609   0.00000  Uiso   1.00
C189   C     0.75467   0.54024   0.29092   0.00000  Uiso   1.00
C190   C     0.61593   0.54635   0.57266   0.00000  Uiso   1.00
C191   C     0.63649   0.52590   0.61550   0.00000  Uiso   1.00
C192   C     0.70375   0.53416   0.65731   0.00000  Uiso   1.00
C193   C     0.80737   0.53681   0.73491   0.00000  Uiso   1.00
C194   C     0.47174   0.56722   0.52658   0.00000  Uiso   1.00
C195   C     0.37107   0.56433   0.53069   0.00000  Uiso   1.00
C196   C     0.31694   0.59016   0.53372   0.00000  Uiso   1.00
C197   C     0.19669   0.62523   0.53977   0.00000  Uiso   1.00
C198   C     0.62766   0.59294   0.52087   0.00000  Uiso   1.00
C199   C     0.64849   0.57487   0.46679   0.00000  Uiso   1.00
C200   C     0.70527   0.58384   0.42040   0.00000  Uiso   1.00
C201   C     0.71545   0.56409   0.37504   0.00000  Uiso   1.00
C202   C     0.66095   0.57405   0.57162   0.00000  Uiso   1.00
C203   C     0.72819   0.58234   0.61338   0.00000  Uiso   1.00
C204   C     0.74885   0.56192   0.65627   0.00000  Uiso   1.00
C205   C     0.51676   0.59493   0.52553   0.00000  Uiso   1.00
C206   C     0.46277   0.62077   0.52856   0.00000  Uiso   1.00
C207   C     0.36204   0.61792   0.53268   0.00000  Uiso   1.00
H208   H     0.50973   0.52035   0.52361   0.00000  Uiso   1.00
H209   H     0.57872   0.50595   0.42335   0.00000  Uiso   1.00
H210   H     0.60163   0.50446   0.61630   0.00000  Uiso   1.00
H211   H     0.33626   0.54288   0.53150   0.00000  Uiso   1.00
H212   H     0.67510   0.50221   0.31175   0.00000  Uiso   1.00
H213   H     0.72338   0.49906   0.71860   0.00000  Uiso   1.00
H214   H     0.16379   0.58008   0.53978   0.00000  Uiso   1.00
H215   H     0.66271   0.61451   0.52006   0.00000  Uiso   1.00
H216   H     0.74010   0.60528   0.41961   0.00000  Uiso   1.00
H217   H     0.76301   0.60379   0.61256   0.00000  Uiso   1.00
H218   H     0.49764   0.64221   0.52775   0.00000  Uiso   1.00
H219   H     0.80608   0.58282   0.30872   0.00000  Uiso   1.00
H220   H     0.85436   0.57968   0.71557   0.00000  Uiso   1.00
H221   H     0.29477   0.66070   0.53674   0.00000  Uiso   1.00
O222   O     0.78876   0.53474   0.24423   0.00000  Uiso   1.00
O223   O     0.85209   0.53062   0.77800   0.00000  Uiso   1.00
O224   O     0.11792   0.63692   0.54339   0.00000  Uiso   1.00
N225   N     0.69529   0.52245   0.32482   0.00000  Uiso   1.00
N226   N     0.74044   0.51951   0.70519   0.00000  Uiso   1.00
N227   N     0.21727   0.59526   0.53803   0.00000  Uiso   1.00
N228   N     0.76576   0.56583   0.32318   0.00000  Uiso   1.00
N229   N     0.81092   0.56289   0.70356   0.00000  Uiso   1.00
N230   N     0.28775   0.63864   0.53639   0.00000  Uiso   1.00
C231   C     0.54478   0.04192   0.02279   0.00000  Uiso   1.00
C232   C     0.60347   0.04716   0.96783   0.00000  Uiso   1.00
C233   C     0.61357   0.02740   0.92253   0.00000  Uiso   1.00
C234   C     0.67035   0.03633   0.87609   0.00000  Uiso   1.00
C235   C     0.75467   0.04024   0.79092   0.00000  Uiso   1.00
C236   C     0.61593   0.04635   0.07266   0.00000  Uiso   1.00
C237   C     0.63649   0.02590   0.11550   0.00000  Uiso   1.00
C238   C     0.70375   0.03416   0.15731   0.00000  Uiso   1.00
C239   C     0.80737   0.03681   0.23491   0.00000  Uiso   1.00
C240   C     0.47174   0.06722   0.02658   0.00000  Uiso   1.00
C241   C     0.37107   0.06433   0.03069   0.00000  Uiso   1.00
C242   C     0.31694   0.09016   0.03372   0.00000  Uiso   1.00
C243   C     0.19669   0.12523   0.03977   0.00000  Uiso   1.00
C244   C     0.62766   0.09294   0.02087   0.00000  Uiso   1.00
C245   C     0.64849   0.07487   0.96679   0.00000  Uiso   1.00
C246   C     0.70527   0.08384   0.92040   0.00000  Uiso   1.00
C247   C     0.71545   0.06409   0.87504   0.00000  Uiso   1.00
C248   C     0.66095   0.07405   0.07162   0.00000  Uiso   1.00
C249   C     0.72819   0.08234   0.11338   0.00000  Uiso   1.00
C250   C     0.74885   0.06192   0.15627   0.00000  Uiso   1.00
C251   C     0.51676   0.09493   0.02553   0.00000  Uiso   1.00
C252   C     0.46277   0.12077   0.02856   0.00000  Uiso   1.00
C253   C     0.36204   0.11792   0.03268   0.00000  Uiso   1.00
H254   H     0.50973   0.02035   0.02361   0.00000  Uiso   1.00
H255   H     0.57872   0.00595   0.92335   0.00000  Uiso   1.00
H256   H     0.60163   0.00446   0.11630   0.00000  Uiso   1.00
H257   H     0.33626   0.04288   0.03150   0.00000  Uiso   1.00
H258   H     0.67510   0.00221   0.81175   0.00000  Uiso   1.00
H259   H     0.72338   0.99906   0.21860   0.00000  Uiso   1.00
H260   H     0.16379   0.08008   0.03978   0.00000  Uiso   1.00
H261   H     0.66271   0.11451   0.02006   0.00000  Uiso   1.00
H262   H     0.74010   0.10528   0.91961   0.00000  Uiso   1.00
H263   H     0.76301   0.10379   0.11256   0.00000  Uiso   1.00
H264   H     0.49764   0.14221   0.02775   0.00000  Uiso   1.00
H265   H     0.80608   0.08282   0.80872   0.00000  Uiso   1.00
H266   H     0.85436   0.07968   0.21557   0.00000  Uiso   1.00
H267   H     0.29477   0.16070   0.03674   0.00000  Uiso   1.00
O268   O     0.78876   0.03474   0.74423   0.00000  Uiso   1.00
O269   O     0.85209   0.03062   0.27800   0.00000  Uiso   1.00
O270   O     0.11792   0.13692   0.04339   0.00000  Uiso   1.00
N271   N     0.69529   0.02245   0.82482   0.00000  Uiso   1.00
N272   N     0.74044   0.01951   0.20519   0.00000  Uiso   1.00
N273   N     0.21727   0.09526   0.03803   0.00000  Uiso   1.00
N274   N     0.76576   0.06583   0.82318   0.00000  Uiso   1.00
N275   N     0.81092   0.06289   0.20356   0.00000  Uiso   1.00
N276   N     0.28775   0.13864   0.03639   0.00000  Uiso   1.00
C277   C     0.04478   0.54192   0.02279   0.00000  Uiso   1.00
C278   C     0.10347   0.54716   0.96783   0.00000  Uiso   1.00
C279   C     0.11357   0.52740   0.92253   0.00000  Uiso   1.00
C280   C     0.17035   0.53633   0.87609   0.00000  Uiso   1.00
C281   C     0.25467   0.54024   0.79092   0.00000  Uiso   1.00
C282   C     0.11593   0.54635   0.07266   0.00000  Uiso   1.00
C283   C     0.13649   0.52590   0.11550   0.00000  Uiso   1.00
C284   C     0.20375   0.53416   0.15731   0.00000  Uiso   1.00
C285   C     0.30737   0.53681   0.23491   0.00000  Uiso   1.00
C286   C     0.97174   0.56722   0.02658   0.00000  Uiso   1.00
C287   C     0.87107   0.56433   0.03069   0.00000  Uiso   1.00
C288   C     0.81694   0.59016   0.03372   0.00000  Uiso   1.00
C289   C     0.69669   0.62523   0.03977   0.00000  Uiso   1.00
C290   C     0.12766   0.59294   0.02087   0.00000  Uiso   1.00
C291   C     0.14849   0.57487   0.96679   0.00000  Uiso   1.00
C292   C     0.20527   0.58384   0.92040   0.00000  Uiso   1.00
C293   C     0.21545   0.56409   0.87504   0.00000  Uiso   1.00
C294   C     0.16095   0.57405   0.07162   0.00000  Uiso   1.00
C295   C     0.22819   0.58234   0.11338   0.00000  Uiso   1.00
C296   C     0.24885   0.56192   0.15627   0.00000  Uiso   1.00
C297   C     0.01676   0.59493   0.02553   0.00000  Uiso   1.00
C298   C     0.96277   0.62077   0.02856   0.00000  Uiso   1.00
C299   C     0.86204   0.61792   0.03268   0.00000  Uiso   1.00
H300   H     0.00973   0.52035   0.02361   0.00000  Uiso   1.00
H301   H     0.07872   0.50595   0.92335   0.00000  Uiso   1.00
H302   H     0.10163   0.50446   0.11630   0.00000  Uiso   1.00
H303   H     0.83626   0.54288   0.03150   0.00000  Uiso   1.00
H304   H     0.17510   0.50221   0.81175   0.00000  Uiso   1.00
H305   H     0.22338   0.49906   0.21860   0.00000  Uiso   1.00
H306   H     0.66379   0.58008   0.03978   0.00000  Uiso   1.00
H307   H     0.16271   0.61451   0.02006   0.00000  Uiso   1.00
H308   H     0.24010   0.60528   0.91961   0.00000  Uiso   1.00
H309   H     0.26301   0.60379   0.11256   0.00000  Uiso   1.00
H310   H     0.99764   0.64221   0.02775   0.00000  Uiso   1.00
H311   H     0.30608   0.58282   0.80872   0.00000  Uiso   1.00
H312   H     0.35436   0.57968   0.21557   0.00000  Uiso   1.00
H313   H     0.79477   0.66070   0.03674   0.00000  Uiso   1.00
O314   O     0.28876   0.53474   0.74423   0.00000  Uiso   1.00
O315   O     0.35209   0.53062   0.27800   0.00000  Uiso   1.00
O316   O     0.61792   0.63692   0.04339   0.00000  Uiso   1.00
N317   N     0.19529   0.52245   0.82482   0.00000  Uiso   1.00
N318   N     0.24044   0.51951   0.20519   0.00000  Uiso   1.00
N319   N     0.71727   0.59526   0.03803   0.00000  Uiso   1.00
N320   N     0.26576   0.56583   0.82318   0.00000  Uiso   1.00
N321   N     0.31092   0.56289   0.20356   0.00000  Uiso   1.00
N322   N     0.78775   0.63864   0.03639   0.00000  Uiso   1.00
C323   C     0.04478   0.04192   0.52279   0.00000  Uiso   1.00
C324   C     0.10347   0.04716   0.46783   0.00000  Uiso   1.00
C325   C     0.11357   0.02740   0.42253   0.00000  Uiso   1.00
C326   C     0.17035   0.03633   0.37609   0.00000  Uiso   1.00
C327   C     0.25467   0.04024   0.29092   0.00000  Uiso   1.00
C328   C     0.11593   0.04635   0.57266   0.00000  Uiso   1.00
C329   C     0.13649   0.02590   0.61550   0.00000  Uiso   1.00
C330   C     0.20375   0.03416   0.65731   0.00000  Uiso   1.00
C331   C     0.30737   0.03681   0.73491   0.00000  Uiso   1.00
C332   C     0.97174   0.06722   0.52658   0.00000  Uiso   1.00
C333   C     0.87107   0.06433   0.53069   0.00000  Uiso   1.00
C334   C     0.81694   0.09016   0.53372   0.00000  Uiso   1.00
C335   C     0.69669   0.12523   0.53977   0.00000  Uiso   1.00
C336   C     0.12766   0.09294   0.52087   0.00000  Uiso   1.00
C337   C     0.14849   0.07487   0.46679   0.00000  Uiso   1.00
C338   C     0.20527   0.08384   0.42040   0.00000  Uiso   1.00
C339   C     0.21545   0.06409   0.37504   0.00000  Uiso   1.00
C340   C     0.16095   0.07405   0.57162   0.00000  Uiso   1.00
C341   C     0.22819   0.08234   0.61338   0.00000  Uiso   1.00
C342   C     0.24885   0.06192   0.65627   0.00000  Uiso   1.00
C343   C     0.01676   0.09493   0.52553   0.00000  Uiso   1.00
C344   C     0.96277   0.12077   0.52856   0.00000  Uiso   1.00
C345   C     0.86204   0.11792   0.53268   0.00000  Uiso   1.00
H346   H     0.00973   0.02035   0.52361   0.00000  Uiso   1.00
H347   H     0.07872   0.00595   0.42335   0.00000  Uiso   1.00
H348   H     0.10163   0.00446   0.61630   0.00000  Uiso   1.00
H349   H     0.83626   0.04288   0.53150   0.00000  Uiso   1.00
H350   H     0.17510   0.00221   0.31175   0.00000  Uiso   1.00
H351   H     0.22338   0.99906   0.71860   0.00000  Uiso   1.00
H352   H     0.66379   0.08008   0.53978   0.00000  Uiso   1.00
H353   H     0.16271   0.11451   0.52006   0.00000  Uiso   1.00
H354   H     0.24010   0.10528   0.41961   0.00000  Uiso   1.00
H355   H     0.26301   0.10379   0.61256   0.00000  Uiso   1.00
H356   H     0.99764   0.14221   0.52775   0.00000  Uiso   1.00
H357   H     0.30608   0.08282   0.30872   0.00000  Uiso   1.00
H358   H     0.35436   0.07968   0.71557   0.00000  Uiso   1.00
H359   H     0.79477   0.16070   0.53674   0.00000  Uiso   1.00
O360   O     0.28876   0.03474   0.24423   0.00000  Uiso   1.00
O361   O     0.35209   0.03062   0.77800   0.00000  Uiso   1.00
O362   O     0.61792   0.13692   0.54339   0.00000  Uiso   1.00
N363   N     0.19529   0.02245   0.32482   0.00000  Uiso   1.00
N364   N     0.24044   0.01951   0.70519   0.00000  Uiso   1.00
N365   N     0.71727   0.09526   0.53803   0.00000  Uiso   1.00
N366   N     0.26576   0.06583   0.32318   0.00000  Uiso   1.00
N367   N     0.31092   0.06289   0.70356   0.00000  Uiso   1.00
N368   N     0.78775   0.13864   0.53639   0.00000  Uiso   1.00
C369   C     0.70522   0.79192   0.77279   0.00000  Uiso   1.00
C370   C     0.64653   0.79716   0.71783   0.00000  Uiso   1.00
C371   C     0.63643   0.77740   0.67253   0.00000  Uiso   1.00
C372   C     0.57965   0.78633   0.62609   0.00000  Uiso   1.00
C373   C     0.49533   0.79024   0.54092   0.00000  Uiso   1.00
C374   C     0.63407   0.79635   0.82266   0.00000  Uiso   1.00
C375   C     0.61351   0.77590   0.86550   0.00000  Uiso   1.00
C376   C     0.54625   0.78416   0.90731   0.00000  Uiso   1.00
C377   C     0.44263   0.78681   0.98491   0.00000  Uiso   1.00
C378   C     0.77826   0.81722   0.77658   0.00000  Uiso   1.00
C379   C     0.87893   0.81433   0.78069   0.00000  Uiso   1.00
C380   C     0.93306   0.84016   0.78372   0.00000  Uiso   1.00
C381   C     0.05331   0.87523   0.78977   0.00000  Uiso   1.00
C382   C     0.62234   0.84294   0.77087   0.00000  Uiso   1.00
C383   C     0.60151   0.82487   0.71679   0.00000  Uiso   1.00
C384   C     0.54473   0.83384   0.67040   0.00000  Uiso   1.00
C385   C     0.53455   0.81409   0.62504   0.00000  Uiso   1.00
C386   C     0.58905   0.82405   0.82162   0.00000  Uiso   1.00
C387   C     0.52181   0.83234   0.86338   0.00000  Uiso   1.00
C388   C     0.50115   0.81192   0.90627   0.00000  Uiso   1.00
C389   C     0.73324   0.84493   0.77553   0.00000  Uiso   1.00
C390   C     0.78723   0.87077   0.77856   0.00000  Uiso   1.00
C391   C     0.88796   0.86792   0.78268   0.00000  Uiso   1.00
H392   H     0.74027   0.77035   0.77361   0.00000  Uiso   1.00
H393   H     0.67128   0.75595   0.67335   0.00000  Uiso   1.00
H394   H     0.64837   0.75446   0.86630   0.00000  Uiso   1.00
H395   H     0.91374   0.79288   0.78150   0.00000  Uiso   1.00
H396   H     0.57490   0.75221   0.56175   0.00000  Uiso   1.00
H397   H     0.52662   0.74906   0.96860   0.00000  Uiso   1.00
H398   H     0.08621   0.83008   0.78978   0.00000  Uiso   1.00
H399   H     0.58729   0.86451   0.77006   0.00000  Uiso   1.00
H400   H     0.50990   0.85528   0.66961   0.00000  Uiso   1.00
H401   H     0.48699   0.85379   0.86256   0.00000  Uiso   1.00
H402   H     0.75236   0.89221   0.77775   0.00000  Uiso   1.00
H403   H     0.44392   0.83282   0.55872   0.00000  Uiso   1.00
H404   H     0.39564   0.82968   0.96557   0.00000  Uiso   1.00
H405   H     0.95523   0.91070   0.78674   0.00000  Uiso   1.00
O406   O     0.46124   0.78474   0.49423   0.00000  Uiso   1.00
O407   O     0.39791   0.78062   0.02800   0.00000  Uiso   1.00
O408   O     0.13208   0.88692   0.79339   0.00000  Uiso   1.00
N409   N     0.55471   0.77245   0.57482   0.00000  Uiso   1.00
N410   N     0.50956   0.76951   0.95519   0.00000  Uiso   1.00
N411   N     0.03273   0.84526   0.78803   0.00000  Uiso   1.00
N412   N     0.48424   0.81583   0.57318   0.00000  Uiso   1.00
N413   N     0.43908   0.81289   0.95356   0.00000  Uiso   1.00
N414   N     0.96225   0.88864   0.78639   0.00000  Uiso   1.00
C415   C     0.70522   0.29192   0.27279   0.00000  Uiso   1.00
C416   C     0.64653   0.29716   0.21783   0.00000  Uiso   1.00
C417   C     0.63643   0.27740   0.17253   0.00000  Uiso   1.00
C418   C     0.57965   0.28633   0.12609   0.00000  Uiso   1.00
C419   C     0.49533   0.29024   0.04092   0.00000  Uiso   1.00
C420   C     0.63407   0.29635   0.32266   0.00000  Uiso   1.00
C421   C     0.61351   0.27590   0.36550   0.00000  Uiso   1.00
C422   C     0.54625   0.28416   0.40731   0.00000  Uiso   1.00
C423   C     0.44263   0.28681   0.48491   0.00000  Uiso   1.00
C424   C     0.77826   0.31722   0.27658   0.00000  Uiso   1.00
C425   C     0.87893   0.31433   0.28069   0.00000  Uiso   1.00
C426   C     0.93306   0.34016   0.28372   0.00000  Uiso   1.00
C427   C     0.05331   0.37523   0.28977   0.00000  Uiso   1.00
C428   C     0.62234   0.34294   0.27087   0.00000  Uiso   1.00
C429   C     0.60151   0.32487   0.21679   0.00000  Uiso   1.00
C430   C     0.54473   0.33384   0.17040   0.00000  Uiso   1.00
C431   C     0.53455   0.31409   0.12504   0.00000  Uiso   1.00
C432   C     0.58905   0.32405   0.32162   0.00000  Uiso   1.00
C433   C     0.52181   0.33234   0.36338   0.00000  Uiso   1.00
C434   C     0.50115   0.31192   0.40627   0.00000  Uiso   1.00
C435   C     0.73324   0.34493   0.27553   0.00000  Uiso   1.00
C436   C     0.78723   0.37077   0.27856   0.00000  Uiso   1.00
C437   C     0.88796   0.36792   0.28268   0.00000  Uiso   1.00
H438   H     0.74027   0.27035   0.27361   0.00000  Uiso   1.00
H439   H     0.67128   0.25595   0.17335   0.00000  Uiso   1.00
H440   H     0.64837   0.25446   0.36630   0.00000  Uiso   1.00
H441   H     0.91374   0.29288   0.28150   0.00000  Uiso   1.00
H442   H     0.57490   0.25221   0.06175   0.00000  Uiso   1.00
H443   H     0.52662   0.24906   0.46860   0.00000  Uiso   1.00
H444   H     0.08621   0.33008   0.28978   0.00000  Uiso   1.00
H445   H     0.58729   0.36451   0.27006   0.00000  Uiso   1.00
H446   H     0.50990   0.35528   0.16961   0.00000  Uiso   1.00
H447   H     0.48699   0.35379   0.36256   0.00000  Uiso   1.00
H448   H     0.75236   0.39221   0.27775   0.00000  Uiso   1.00
H449   H     0.44392   0.33282   0.05872   0.00000  Uiso   1.00
H450   H     0.39564   0.32968   0.46557   0.00000  Uiso   1.00
H451   H     0.95523   0.41070   0.28674   0.00000  Uiso   1.00
O452   O     0.46124   0.28474   0.99423   0.00000  Uiso   1.00
O453   O     0.39791   0.28062   0.52800   0.00000  Uiso   1.00
O454   O     0.13208   0.38692   0.29339   0.00000  Uiso   1.00
N455   N     0.55471   0.27245   0.07482   0.00000  Uiso   1.00
N456   N     0.50956   0.26951   0.45519   0.00000  Uiso   1.00
N457   N     0.03273   0.34526   0.28803   0.00000  Uiso   1.00
N458   N     0.48424   0.31583   0.07318   0.00000  Uiso   1.00
N459   N     0.43908   0.31289   0.45356   0.00000  Uiso   1.00
N460   N     0.96225   0.38864   0.28639   0.00000  Uiso   1.00
C461   C     0.20522   0.79192   0.27279   0.00000  Uiso   1.00
C462   C     0.14653   0.79716   0.21783   0.00000  Uiso   1.00
C463   C     0.13643   0.77740   0.17253   0.00000  Uiso   1.00
C464   C     0.07965   0.78633   0.12609   0.00000  Uiso   1.00
C465   C     0.99533   0.79024   0.04092   0.00000  Uiso   1.00
C466   C     0.13407   0.79635   0.32266   0.00000  Uiso   1.00
C467   C     0.11351   0.77590   0.36550   0.00000  Uiso   1.00
C468   C     0.04625   0.78416   0.40731   0.00000  Uiso   1.00
C469   C     0.94263   0.78681   0.48491   0.00000  Uiso   1.00
C470   C     0.27826   0.81722   0.27658   0.00000  Uiso   1.00
C471   C     0.37893   0.81433   0.28069   0.00000  Uiso   1.00
C472   C     0.43306   0.84016   0.28372   0.00000  Uiso   1.00
C473   C     0.55331   0.87523   0.28977   0.00000  Uiso   1.00
C474   C     0.12234   0.84294   0.27087   0.00000  Uiso   1.00
C475   C     0.10151   0.82487   0.21679   0.00000  Uiso   1.00
C476   C     0.04473   0.83384   0.17040   0.00000  Uiso   1.00
C477   C     0.03455   0.81409   0.12504   0.00000  Uiso   1.00
C478   C     0.08905   0.82405   0.32162   0.00000  Uiso   1.00
C479   C     0.02181   0.83234   0.36338   0.00000  Uiso   1.00
C480   C     0.00115   0.81192   0.40627   0.00000  Uiso   1.00
C481   C     0.23324   0.84493   0.27553   0.00000  Uiso   1.00
C482   C     0.28723   0.87077   0.27856   0.00000  Uiso   1.00
C483   C     0.38796   0.86792   0.28268   0.00000  Uiso   1.00
H484   H     0.24027   0.77035   0.27361   0.00000  Uiso   1.00
H485   H     0.17128   0.75595   0.17335   0.00000  Uiso   1.00
H486   H     0.14837   0.75446   0.36630   0.00000  Uiso   1.00
H487   H     0.41374   0.79288   0.28150   0.00000  Uiso   1.00
H488   H     0.07490   0.75221   0.06175   0.00000  Uiso   1.00
H489   H     0.02662   0.74906   0.46860   0.00000  Uiso   1.00
H490   H     0.58621   0.83008   0.28978   0.00000  Uiso   1.00
H491   H     0.08729   0.86451   0.27006   0.00000  Uiso   1.00
H492   H     0.00990   0.85528   0.16961   0.00000  Uiso   1.00
H493   H     0.98699   0.85379   0.36256   0.00000  Uiso   1.00
H494   H     0.25236   0.89221   0.27775   0.00000  Uiso   1.00
H495   H     0.94392   0.83282   0.05872   0.00000  Uiso   1.00
H496   H     0.89564   0.82968   0.46557   0.00000  Uiso   1.00
H497   H     0.45523   0.91070   0.28674   0.00000  Uiso   1.00
O498   O     0.96124   0.78474   0.99423   0.00000  Uiso   1.00
O499   O     0.89791   0.78062   0.52800   0.00000  Uiso   1.00
O500   O     0.63208   0.88692   0.29339   0.00000  Uiso   1.00
N501   N     0.05471   0.77245   0.07482   0.00000  Uiso   1.00
N502   N     0.00956   0.76951   0.45519   0.00000  Uiso   1.00
N503   N     0.53273   0.84526   0.28803   0.00000  Uiso   1.00
N504   N     0.98424   0.81583   0.07318   0.00000  Uiso   1.00
N505   N     0.93908   0.81289   0.45356   0.00000  Uiso   1.00
N506   N     0.46225   0.88864   0.28639   0.00000  Uiso   1.00
C507   C     0.20522   0.29192   0.77279   0.00000  Uiso   1.00
C508   C     0.14653   0.29716   0.71783   0.00000  Uiso   1.00
C509   C     0.13643   0.27740   0.67253   0.00000  Uiso   1.00
C510   C     0.07965   0.28633   0.62609   0.00000  Uiso   1.00
C511   C     0.99533   0.29024   0.54092   0.00000  Uiso   1.00
C512   C     0.13407   0.29635   0.82266   0.00000  Uiso   1.00
C513   C     0.11351   0.27590   0.86550   0.00000  Uiso   1.00
C514   C     0.04625   0.28416   0.90731   0.00000  Uiso   1.00
C515   C     0.94263   0.28681   0.98491   0.00000  Uiso   1.00
C516   C     0.27826   0.31722   0.77658   0.00000  Uiso   1.00
C517   C     0.37893   0.31433   0.78069   0.00000  Uiso   1.00
C518   C     0.43306   0.34016   0.78372   0.00000  Uiso   1.00
C519   C     0.55331   0.37523   0.78977   0.00000  Uiso   1.00
C520   C     0.12234   0.34294   0.77087   0.00000  Uiso   1.00
C521   C     0.10151   0.32487   0.71679   0.00000  Uiso   1.00
C522   C     0.04473   0.33384   0.67040   0.00000  Uiso   1.00
C523   C     0.03455   0.31409   0.62504   0.00000  Uiso   1.00
C524   C     0.08905   0.32405   0.82162   0.00000  Uiso   1.00
C525   C     0.02181   0.33234   0.86338   0.00000  Uiso   1.00
C526   C     0.00115   0.31192   0.90627   0.00000  Uiso   1.00
C527   C     0.23324   0.34493   0.77553   0.00000  Uiso   1.00
C528   C     0.28723   0.37077   0.77856   0.00000  Uiso   1.00
C529   C     0.38796   0.36792   0.78268   0.00000  Uiso   1.00
H530   H     0.24027   0.27035   0.77361   0.00000  Uiso   1.00
H531   H     0.17128   0.25595   0.67335   0.00000  Uiso   1.00
H532   H     0.14837   0.25446   0.86630   0.00000  Uiso   1.00
H533   H     0.41374   0.29288   0.78150   0.00000  Uiso   1.00
H534   H     0.07490   0.25221   0.56175   0.00000  Uiso   1.00
H535   H     0.02662   0.24906   0.96860   0.00000  Uiso   1.00
H536   H     0.58621   0.33008   0.78978   0.00000  Uiso   1.00
H537   H     0.08729   0.36451   0.77006   0.00000  Uiso   1.00
H538   H     0.00990   0.35528   0.66961   0.00000  Uiso   1.00
H539   H     0.98699   0.35379   0.86256   0.00000  Uiso   1.00
H540   H     0.25236   0.39221   0.77775   0.00000  Uiso   1.00
H541   H     0.94392   0.33282   0.55872   0.00000  Uiso   1.00
H542   H     0.89564   0.32968   0.96557   0.00000  Uiso   1.00
H543   H     0.45523   0.41070   0.78674   0.00000  Uiso   1.00
O544   O     0.96124   0.28474   0.49423   0.00000  Uiso   1.00
O545   O     0.89791   0.28062   0.02800   0.00000  Uiso   1.00
O546   O     0.63208   0.38692   0.79339   0.00000  Uiso   1.00
N547   N     0.05471   0.27245   0.57482   0.00000  Uiso   1.00
N548   N     0.00956   0.26951   0.95519   0.00000  Uiso   1.00
N549   N     0.53273   0.34526   0.78803   0.00000  Uiso   1.00
N550   N     0.98424   0.31583   0.57318   0.00000  Uiso   1.00
N551   N     0.93908   0.31289   0.95356   0.00000  Uiso   1.00
N552   N     0.46225   0.38864   0.78639   0.00000  Uiso   1.00
C553   C     0.79478   0.70808   0.77279   0.00000  Uiso   1.00
C554   C     0.85347   0.70284   0.71783   0.00000  Uiso   1.00
C555   C     0.86357   0.72260   0.67253   0.00000  Uiso   1.00
C556   C     0.92035   0.71367   0.62609   0.00000  Uiso   1.00
C557   C     0.00467   0.70976   0.54092   0.00000  Uiso   1.00
C558   C     0.86593   0.70365   0.82266   0.00000  Uiso   1.00
C559   C     0.88649   0.72410   0.86550   0.00000  Uiso   1.00
C560   C     0.95375   0.71584   0.90731   0.00000  Uiso   1.00
C561   C     0.05737   0.71319   0.98491   0.00000  Uiso   1.00
C562   C     0.72174   0.68278   0.77658   0.00000  Uiso   1.00
C563   C     0.62107   0.68567   0.78069   0.00000  Uiso   1.00
C564   C     0.56694   0.65984   0.78372   0.00000  Uiso   1.00
C565   C     0.44669   0.62477   0.78977   0.00000  Uiso   1.00
C566   C     0.87766   0.65706   0.77087   0.00000  Uiso   1.00
C567   C     0.89849   0.67513   0.71679   0.00000  Uiso   1.00
C568   C     0.95527   0.66616   0.67040   0.00000  Uiso   1.00
C569   C     0.96545   0.68591   0.62504   0.00000  Uiso   1.00
C570   C     0.91095   0.67595   0.82162   0.00000  Uiso   1.00
C571   C     0.97819   0.66766   0.86338   0.00000  Uiso   1.00
C572   C     0.99885   0.68808   0.90627   0.00000  Uiso   1.00
C573   C     0.76676   0.65507   0.77553   0.00000  Uiso   1.00
C574   C     0.71277   0.62923   0.77856   0.00000  Uiso   1.00
C575   C     0.61204   0.63208   0.78268   0.00000  Uiso   1.00
H576   H     0.75973   0.72965   0.77361   0.00000  Uiso   1.00
H577   H     0.82872   0.74405   0.67335   0.00000  Uiso   1.00
H578   H     0.85163   0.74554   0.86630   0.00000  Uiso   1.00
H579   H     0.58626   0.70712   0.78150   0.00000  Uiso   1.00
H580   H     0.92510   0.74779   0.56175   0.00000  Uiso   1.00
H581   H     0.97338   0.75094   0.96860   0.00000  Uiso   1.00
H582   H     0.41379   0.66992   0.78978   0.00000  Uiso   1.00
H583   H     0.91271   0.63549   0.77006   0.00000  Uiso   1.00
H584   H     0.99010   0.64472   0.66961   0.00000  Uiso   1.00
H585   H     0.01301   0.64621   0.86256   0.00000  Uiso   1.00
H586   H     0.74764   0.60779   0.77775   0.00000  Uiso   1.00
H587   H     0.05608   0.66718   0.55872   0.00000  Uiso   1.00
H588   H     0.10436   0.67032   0.96557   0.00000  Uiso   1.00
H589   H     0.54477   0.58930   0.78674   0.00000  Uiso   1.00
O590   O     0.03876   0.71526   0.49423   0.00000  Uiso   1.00
O591   O     0.10209   0.71938   0.02800   0.00000  Uiso   1.00
O592   O     0.36792   0.61308   0.79339   0.00000  Uiso   1.00
N593   N     0.94529   0.72755   0.57482   0.00000  Uiso   1.00
N594   N     0.99044   0.73049   0.95519   0.00000  Uiso   1.00
N595   N     0.46727   0.65474   0.78803   0.00000  Uiso   1.00
N596   N     0.01576   0.68417   0.57318   0.00000  Uiso   1.00
N597   N     0.06092   0.68711   0.95356   0.00000  Uiso   1.00
N598   N     0.53775   0.61136   0.78639   0.00000  Uiso   1.00
C599   C     0.79478   0.20808   0.27279   0.00000  Uiso   1.00
C600   C     0.85347   0.20284   0.21783   0.00000  Uiso   1.00
C601   C     0.86357   0.22260   0.17253   0.00000  Uiso   1.00
C602   C     0.92035   0.21367   0.12609   0.00000  Uiso   1.00
C603   C     0.00467   0.20976   0.04092   0.00000  Uiso   1.00
C604   C     0.86593   0.20365   0.32266   0.00000  Uiso   1.00
C605   C     0.88649   0.22410   0.36550   0.00000  Uiso   1.00
C606   C     0.95375   0.21584   0.40731   0.00000  Uiso   1.00
C607   C     0.05737   0.21319   0.48491   0.00000  Uiso   1.00
C608   C     0.72174   0.18278   0.27658   0.00000  Uiso   1.00
C609   C     0.62107   0.18567   0.28069   0.00000  Uiso   1.00
C610   C     0.56694   0.15984   0.28372   0.00000  Uiso   1.00
C611   C     0.44669   0.12477   0.28977   0.00000  Uiso   1.00
C612   C     0.87766   0.15706   0.27087   0.00000  Uiso   1.00
C613   C     0.89849   0.17513   0.21679   0.00000  Uiso   1.00
C614   C     0.95527   0.16616   0.17040   0.00000  Uiso   1.00
C615   C     0.96545   0.18591   0.12504   0.00000  Uiso   1.00
C616   C     0.91095   0.17595   0.32162   0.00000  Uiso   1.00
C617   C     0.97819   0.16766   0.36338   0.00000  Uiso   1.00
C618   C     0.99885   0.18808   0.40627   0.00000  Uiso   1.00
C619   C     0.76676   0.15507   0.27553   0.00000  Uiso   1.00
C620   C     0.71277   0.12923   0.27856   0.00000  Uiso   1.00
C621   C     0.61204   0.13208   0.28268   0.00000  Uiso   1.00
H622   H     0.75973   0.22965   0.27361   0.00000  Uiso   1.00
H623   H     0.82872   0.24405   0.17335   0.00000  Uiso   1.00
H624   H     0.85163   0.24554   0.36630   0.00000  Uiso   1.00
H625   H     0.58626   0.20712   0.28150   0.00000  Uiso   1.00
H626   H     0.92510   0.24779   0.06175   0.00000  Uiso   1.00
H627   H     0.97338   0.25094   0.46860   0.00000  Uiso   1.00
H628   H     0.41379   0.16992   0.28978   0.00000  Uiso   1.00
H629   H     0.91271   0.13549   0.27006   0.00000  Uiso   1.00
H630   H     0.99010   0.14472   0.16961   0.00000  Uiso   1.00
H631   H     0.01301   0.14621   0.36256   0.00000  Uiso   1.00
H632   H     0.74764   0.10779   0.27775   0.00000  Uiso   1.00
H633   H     0.05608   0.16718   0.05872   0.00000  Uiso   1.00
H634   H     0.10436   0.17032   0.46557   0.00000  Uiso   1.00
H635   H     0.54477   0.08930   0.28674   0.00000  Uiso   1.00
O636   O     0.03876   0.21526   0.99423   0.00000  Uiso   1.00
O637   O     0.10209   0.21938   0.52800   0.00000  Uiso   1.00
O638   O     0.36792   0.11308   0.29339   0.00000  Uiso   1.00
N639   N     0.94529   0.22755   0.07482   0.00000  Uiso   1.00
N640   N     0.99044   0.23049   0.45519   0.00000  Uiso   1.00
N641   N     0.46727   0.15474   0.28803   0.00000  Uiso   1.00
N642   N     0.01576   0.18417   0.07318   0.00000  Uiso   1.00
N643   N     0.06092   0.18711   0.45356   0.00000  Uiso   1.00
N644   N     0.53775   0.11136   0.28639   0.00000  Uiso   1.00
C645   C     0.29478   0.70808   0.27279   0.00000  Uiso   1.00
C646   C     0.35347   0.70284   0.21783   0.00000  Uiso   1.00
C647   C     0.36357   0.72260   0.17253   0.00000  Uiso   1.00
C648   C     0.42035   0.71367   0.12609   0.00000  Uiso   1.00
C649   C     0.50467   0.70976   0.04092   0.00000  Uiso   1.00
C650   C     0.36593   0.70365   0.32266   0.00000  Uiso   1.00
C651   C     0.38649   0.72410   0.36550   0.00000  Uiso   1.00
C652   C     0.45375   0.71584   0.40731   0.00000  Uiso   1.00
C653   C     0.55737   0.71319   0.48491   0.00000  Uiso   1.00
C654   C     0.22174   0.68278   0.27658   0.00000  Uiso   1.00
C655   C     0.12107   0.68567   0.28069   0.00000  Uiso   1.00
C656   C     0.06694   0.65984   0.28372   0.00000  Uiso   1.00
C657   C     0.94669   0.62477   0.28977   0.00000  Uiso   1.00
C658   C     0.37766   0.65706   0.27087   0.00000  Uiso   1.00
C659   C     0.39849   0.67513   0.21679   0.00000  Uiso   1.00
C660   C     0.45527   0.66616   0.17040   0.00000  Uiso   1.00
C661   C     0.46545   0.68591   0.12504   0.00000  Uiso   1.00
C662   C     0.41095   0.67595   0.32162   0.00000  Uiso   1.00
C663   C     0.47819   0.66766   0.36338   0.00000  Uiso   1.00
C664   C     0.49885   0.68808   0.40627   0.00000  Uiso   1.00
C665   C     0.26676   0.65507   0.27553   0.00000  Uiso   1.00
C666   C     0.21277   0.62923   0.27856   0.00000  Uiso   1.00
C667   C     0.11204   0.63208   0.28268   0.00000  Uiso   1.00
H668   H     0.25973   0.72965   0.27361   0.00000  Uiso   1.00
H669   H     0.32872   0.74405   0.17335   0.00000  Uiso   1.00
H670   H     0.35163   0.74554   0.36630   0.00000  Uiso   1.00
H671   H     0.08626   0.70712   0.28150   0.00000  Uiso   1.00
H672   H     0.42510   0.74779   0.06175   0.00000  Uiso   1.00
H673   H     0.47338   0.75094   0.46860   0.00000  Uiso   1.00
H674   H     0.91379   0.66992   0.28978   0.00000  Uiso   1.00
H675   H     0.41271   0.63549   0.27006   0.00000  Uiso   1.00
H676   H     0.49010   0.64472   0.16961   0.00000  Uiso   1.00
H677   H     0.51301   0.64621   0.36256   0.00000  Uiso   1.00
H678   H     0.24764   0.60779   0.27775   0.00000  Uiso   1.00
H679   H     0.55608   0.66718   0.05872   0.00000  Uiso   1.00
H680   H     0.60436   0.67032   0.46557   0.00000  Uiso   1.00
H681   H     0.04477   0.58930   0.28674   0.00000  Uiso   1.00
O682   O     0.53876   0.71526   0.99423   0.00000  Uiso   1.00
O683   O     0.60209   0.71938   0.52800   0.00000  Uiso   1.00
O684   O     0.86792   0.61308   0.29339   0.00000  Uiso   1.00
N685   N     0.44529   0.72755   0.07482   0.00000  Uiso   1.00
N686   N     0.49044   0.73049   0.45519   0.00000  Uiso   1.00
N687   N     0.96727   0.65474   0.28803   0.00000  Uiso   1.00
N688   N     0.51576   0.68417   0.07318   0.00000  Uiso   1.00
N689   N     0.56092   0.68711   0.45356   0.00000  Uiso   1.00
N690   N     0.03775   0.61136   0.28639   0.00000  Uiso   1.00
C691   C     0.29478   0.20808   0.77279   0.00000  Uiso   1.00
C692   C     0.35347   0.20284   0.71783   0.00000  Uiso   1.00
C693   C     0.36357   0.22260   0.67253   0.00000  Uiso   1.00
C694   C     0.42035   0.21367   0.62609   0.00000  Uiso   1.00
C695   C     0.50467   0.20976   0.54092   0.00000  Uiso   1.00
C696   C     0.36593   0.20365   0.82266   0.00000  Uiso   1.00
C697   C     0.38649   0.22410   0.86550   0.00000  Uiso   1.00
C698   C     0.45375   0.21584   0.90731   0.00000  Uiso   1.00
C699   C     0.55737   0.21319   0.98491   0.00000  Uiso   1.00
C700   C     0.22174   0.18278   0.77658   0.00000  Uiso   1.00
C701   C     0.12107   0.18567   0.78069   0.00000  Uiso   1.00
C702   C     0.06694   0.15984   0.78372   0.00000  Uiso   1.00
C703   C     0.94669   0.12477   0.78977   0.00000  Uiso   1.00
C704   C     0.37766   0.15706   0.77087   0.00000  Uiso   1.00
C705   C     0.39849   0.17513   0.71679   0.00000  Uiso   1.00
C706   C     0.45527   0.16616   0.67040   0.00000  Uiso   1.00
C707   C     0.46545   0.18591   0.62504   0.00000  Uiso   1.00
C708   C     0.41095   0.17595   0.82162   0.00000  Uiso   1.00
C709   C     0.47819   0.16766   0.86338   0.00000  Uiso   1.00
C710   C     0.49885   0.18808   0.90627   0.00000  Uiso   1.00
C711   C     0.26676   0.15507   0.77553   0.00000  Uiso   1.00
C712   C     0.21277   0.12923   0.77856   0.00000  Uiso   1.00
C713   C     0.11204   0.13208   0.78268   0.00000  Uiso   1.00
H714   H     0.25973   0.22965   0.77361   0.00000  Uiso   1.00
H715   H     0.32872   0.24405   0.67335   0.00000  Uiso   1.00
H716   H     0.35163   0.24554   0.86630   0.00000  Uiso   1.00
H717   H     0.08626   0.20712   0.78150   0.00000  Uiso   1.00
H718   H     0.42510   0.24779   0.56175   0.00000  Uiso   1.00
H719   H     0.47338   0.25094   0.96860   0.00000  Uiso   1.00
H720   H     0.91379   0.16992   0.78978   0.00000  Uiso   1.00
H721   H     0.41271   0.13549   0.77006   0.00000  Uiso   1.00
H722   H     0.49010   0.14472   0.66961   0.00000  Uiso   1.00
H723   H     0.51301   0.14621   0.86256   0.00000  Uiso   1.00
H724   H     0.24764   0.10779   0.77775   0.00000  Uiso   1.00
H725   H     0.55608   0.16718   0.55872   0.00000  Uiso   1.00
H726   H     0.60436   0.17032   0.96557   0.00000  Uiso   1.00
H727   H     0.04477   0.08930   0.78674   0.00000  Uiso   1.00
O728   O     0.53876   0.21526   0.49423   0.00000  Uiso   1.00
O729   O     0.60209   0.21938   0.02800   0.00000  Uiso   1.00
O730   O     0.86792   0.11308   0.79339   0.00000  Uiso   1.00
N731   N     0.44529   0.22755   0.57482   0.00000  Uiso   1.00
N732   N     0.49044   0.23049   0.95519   0.00000  Uiso   1.00
N733   N     0.96727   0.15474   0.78803   0.00000  Uiso   1.00
N734   N     0.51576   0.18417   0.57318   0.00000  Uiso   1.00
N735   N     0.56092   0.18711   0.95356   0.00000  Uiso   1.00
N736   N     0.03775   0.11136   0.78639   0.00000  Uiso   1.00
