data_job_03852
_audit_creation_date              2018-12-19
_audit_creation_method            'Materials Studio'
_symmetry_space_group_name_H-M    'P1'
_symmetry_Int_Tables_number       1
_symmetry_cell_setting            triclinic
loop_
_symmetry_equiv_pos_as_xyz
  x,y,z
_cell_length_a                    29.6288
_cell_length_b                    39.6040
_cell_length_c                    10.9880
_cell_angle_alpha                 90.0000
_cell_angle_beta                  90.0000
_cell_angle_gamma                 90.0000
loop_
_atom_site_label
_atom_site_type_symbol
_atom_site_fract_x
_atom_site_fract_y
_atom_site_fract_z
_atom_site_U_iso_or_equiv
_atom_site_adp_type
_atom_site_occupancy
C1     C     0.30042   0.33841   0.57909   0.00000  Uiso   1.00
C2     C     0.34205   0.33701   0.66050   0.00000  Uiso   1.00
C3     C     0.38183   0.31996   0.63453   0.00000  Uiso   1.00
C4     C     0.41599   0.32175   0.72078   0.00000  Uiso   1.00
C5     C     0.48146   0.31680   0.83076   0.00000  Uiso   1.00
C6     C     0.26132   0.32540   0.65621   0.00000  Uiso   1.00
C7     C     0.23321   0.29859   0.62661   0.00000  Uiso   1.00
C8     C     0.19941   0.29061   0.70925   0.00000  Uiso   1.00
C9     C     0.13952   0.26764   0.81251   0.00000  Uiso   1.00
C10    C     0.29097   0.37577   0.55719   0.00000  Uiso   1.00
C11    C     0.28778   0.39131   0.44432   0.00000  Uiso   1.00
C12    C     0.27893   0.42574   0.44359   0.00000  Uiso   1.00
C13    C     0.26508   0.48098   0.39311   0.00000  Uiso   1.00
C14    C     0.29035   0.37189   0.77847   0.00000  Uiso   1.00
C15    C     0.33658   0.35519   0.76881   0.00000  Uiso   1.00
C16    C     0.37069   0.35701   0.85513   0.00000  Uiso   1.00
C17    C     0.41051   0.33997   0.82928   0.00000  Uiso   1.00
C18    C     0.25585   0.34358   0.76451   0.00000  Uiso   1.00
C19    C     0.22208   0.33564   0.84720   0.00000  Uiso   1.00
C20    C     0.19393   0.30883   0.81774   0.00000  Uiso   1.00
C21    C     0.28551   0.39396   0.66549   0.00000  Uiso   1.00
C22    C     0.27665   0.42836   0.66493   0.00000  Uiso   1.00
C23    C     0.27345   0.44396   0.55209   0.00000  Uiso   1.00
H24    H     0.30467   0.32425   0.49477   0.00000  Uiso   1.00
H25    H     0.38605   0.30589   0.55071   0.00000  Uiso   1.00
H26    H     0.23745   0.28452   0.54279   0.00000  Uiso   1.00
H27    H     0.29202   0.37723   0.36054   0.00000  Uiso   1.00
H28    H     0.47385   0.29354   0.66051   0.00000  Uiso   1.00
H29    H     0.16052   0.24850   0.64378   0.00000  Uiso   1.00
H30    H     0.27558   0.44400   0.25947   0.00000  Uiso   1.00
H31    H     0.28609   0.38606   0.86279   0.00000  Uiso   1.00
H32    H     0.36645   0.37109   0.93893   0.00000  Uiso   1.00
H33    H     0.21786   0.34972   0.93100   0.00000  Uiso   1.00
H34    H     0.27242   0.44243   0.74875   0.00000  Uiso   1.00
H35    H     0.45794   0.34646   0.97560   0.00000  Uiso   1.00
H36    H     0.14461   0.30142   0.95887   0.00000  Uiso   1.00
H37    H     0.25967   0.49692   0.57456   0.00000  Uiso   1.00
O38    O     0.51909   0.30903   0.86151   0.00000  Uiso   1.00
O39    O     0.10801   0.24995   0.83955   0.00000  Uiso   1.00
O40    O     0.25896   0.50643   0.33535   0.00000  Uiso   1.00
N41    N     0.45908   0.30806   0.72420   0.00000  Uiso   1.00
N42    N     0.16614   0.26595   0.70857   0.00000  Uiso   1.00
N43    N     0.27370   0.44871   0.34927   0.00000  Uiso   1.00
N44    N     0.45052   0.33653   0.89375   0.00000  Uiso   1.00
N45    N     0.15758   0.29442   0.87812   0.00000  Uiso   1.00
N46    N     0.26514   0.47719   0.51882   0.00000  Uiso   1.00
C47    C     0.30042   0.83841   0.07909   0.00000  Uiso   1.00
C48    C     0.34205   0.83701   0.16050   0.00000  Uiso   1.00
C49    C     0.38183   0.81996   0.13453   0.00000  Uiso   1.00
C50    C     0.41599   0.82175   0.22078   0.00000  Uiso   1.00
C51    C     0.48146   0.81680   0.33076   0.00000  Uiso   1.00
C52    C     0.26132   0.82540   0.15621   0.00000  Uiso   1.00
C53    C     0.23321   0.79859   0.12661   0.00000  Uiso   1.00
C54    C     0.19941   0.79061   0.20925   0.00000  Uiso   1.00
C55    C     0.13952   0.76764   0.31251   0.00000  Uiso   1.00
C56    C     0.29097   0.87577   0.05719   0.00000  Uiso   1.00
C57    C     0.28778   0.89131   0.94432   0.00000  Uiso   1.00
C58    C     0.27893   0.92574   0.94359   0.00000  Uiso   1.00
C59    C     0.26508   0.98098   0.89311   0.00000  Uiso   1.00
C60    C     0.29035   0.87189   0.27847   0.00000  Uiso   1.00
C61    C     0.33658   0.85519   0.26881   0.00000  Uiso   1.00
C62    C     0.37069   0.85701   0.35513   0.00000  Uiso   1.00
C63    C     0.41051   0.83997   0.32928   0.00000  Uiso   1.00
C64    C     0.25585   0.84358   0.26451   0.00000  Uiso   1.00
C65    C     0.22208   0.83564   0.34720   0.00000  Uiso   1.00
C66    C     0.19393   0.80883   0.31774   0.00000  Uiso   1.00
C67    C     0.28551   0.89396   0.16549   0.00000  Uiso   1.00
C68    C     0.27665   0.92836   0.16493   0.00000  Uiso   1.00
C69    C     0.27345   0.94396   0.05209   0.00000  Uiso   1.00
H70    H     0.30467   0.82425   0.99477   0.00000  Uiso   1.00
H71    H     0.38605   0.80589   0.05071   0.00000  Uiso   1.00
H72    H     0.23745   0.78452   0.04279   0.00000  Uiso   1.00
H73    H     0.29202   0.87723   0.86054   0.00000  Uiso   1.00
H74    H     0.47385   0.79354   0.16051   0.00000  Uiso   1.00
H75    H     0.16052   0.74850   0.14378   0.00000  Uiso   1.00
H76    H     0.27558   0.94400   0.75947   0.00000  Uiso   1.00
H77    H     0.28609   0.88606   0.36279   0.00000  Uiso   1.00
H78    H     0.36645   0.87109   0.43893   0.00000  Uiso   1.00
H79    H     0.21786   0.84972   0.43100   0.00000  Uiso   1.00
H80    H     0.27242   0.94243   0.24875   0.00000  Uiso   1.00
H81    H     0.45794   0.84646   0.47560   0.00000  Uiso   1.00
H82    H     0.14461   0.80142   0.45887   0.00000  Uiso   1.00
H83    H     0.25967   0.99692   0.07456   0.00000  Uiso   1.00
O84    O     0.51909   0.80903   0.36151   0.00000  Uiso   1.00
O85    O     0.10801   0.74995   0.33955   0.00000  Uiso   1.00
O86    O     0.25896   0.00643   0.83535   0.00000  Uiso   1.00
N87    N     0.45908   0.80806   0.22420   0.00000  Uiso   1.00
N88    N     0.16614   0.76595   0.20857   0.00000  Uiso   1.00
N89    N     0.27370   0.94871   0.84927   0.00000  Uiso   1.00
N90    N     0.45052   0.83653   0.39375   0.00000  Uiso   1.00
N91    N     0.15758   0.79442   0.37812   0.00000  Uiso   1.00
N92    N     0.26514   0.97719   0.01882   0.00000  Uiso   1.00
C93    C     0.80042   0.33841   0.07909   0.00000  Uiso   1.00
C94    C     0.84205   0.33701   0.16050   0.00000  Uiso   1.00
C95    C     0.88183   0.31996   0.13453   0.00000  Uiso   1.00
C96    C     0.91599   0.32175   0.22078   0.00000  Uiso   1.00
C97    C     0.98146   0.31680   0.33076   0.00000  Uiso   1.00
C98    C     0.76132   0.32540   0.15621   0.00000  Uiso   1.00
C99    C     0.73321   0.29859   0.12661   0.00000  Uiso   1.00
C100   C     0.69941   0.29061   0.20925   0.00000  Uiso   1.00
C101   C     0.63952   0.26764   0.31251   0.00000  Uiso   1.00
C102   C     0.79097   0.37577   0.05719   0.00000  Uiso   1.00
C103   C     0.78778   0.39131   0.94432   0.00000  Uiso   1.00
C104   C     0.77893   0.42574   0.94359   0.00000  Uiso   1.00
C105   C     0.76508   0.48098   0.89311   0.00000  Uiso   1.00
C106   C     0.79035   0.37189   0.27847   0.00000  Uiso   1.00
C107   C     0.83658   0.35519   0.26881   0.00000  Uiso   1.00
C108   C     0.87069   0.35701   0.35513   0.00000  Uiso   1.00
C109   C     0.91051   0.33997   0.32928   0.00000  Uiso   1.00
C110   C     0.75585   0.34358   0.26451   0.00000  Uiso   1.00
C111   C     0.72208   0.33564   0.34720   0.00000  Uiso   1.00
C112   C     0.69393   0.30883   0.31774   0.00000  Uiso   1.00
C113   C     0.78551   0.39396   0.16549   0.00000  Uiso   1.00
C114   C     0.77665   0.42836   0.16493   0.00000  Uiso   1.00
C115   C     0.77345   0.44396   0.05209   0.00000  Uiso   1.00
H116   H     0.80467   0.32425   0.99477   0.00000  Uiso   1.00
H117   H     0.88605   0.30589   0.05071   0.00000  Uiso   1.00
H118   H     0.73745   0.28452   0.04279   0.00000  Uiso   1.00
H119   H     0.79202   0.37723   0.86054   0.00000  Uiso   1.00
H120   H     0.97385   0.29354   0.16051   0.00000  Uiso   1.00
H121   H     0.66052   0.24850   0.14378   0.00000  Uiso   1.00
H122   H     0.77558   0.44400   0.75947   0.00000  Uiso   1.00
H123   H     0.78609   0.38606   0.36279   0.00000  Uiso   1.00
H124   H     0.86645   0.37109   0.43893   0.00000  Uiso   1.00
H125   H     0.71786   0.34972   0.43100   0.00000  Uiso   1.00
H126   H     0.77242   0.44243   0.24875   0.00000  Uiso   1.00
H127   H     0.95794   0.34646   0.47560   0.00000  Uiso   1.00
H128   H     0.64461   0.30142   0.45887   0.00000  Uiso   1.00
H129   H     0.75967   0.49692   0.07456   0.00000  Uiso   1.00
O130   O     0.01909   0.30903   0.36151   0.00000  Uiso   1.00
O131   O     0.60801   0.24995   0.33955   0.00000  Uiso   1.00
O132   O     0.75896   0.50643   0.83535   0.00000  Uiso   1.00
N133   N     0.95908   0.30806   0.22420   0.00000  Uiso   1.00
N134   N     0.66614   0.26595   0.20857   0.00000  Uiso   1.00
N135   N     0.77370   0.44871   0.84927   0.00000  Uiso   1.00
N136   N     0.95052   0.33653   0.39375   0.00000  Uiso   1.00
N137   N     0.65758   0.29442   0.37812   0.00000  Uiso   1.00
N138   N     0.76514   0.47719   0.01882   0.00000  Uiso   1.00
C139   C     0.80042   0.83841   0.57909   0.00000  Uiso   1.00
C140   C     0.84205   0.83701   0.66050   0.00000  Uiso   1.00
C141   C     0.88183   0.81996   0.63453   0.00000  Uiso   1.00
C142   C     0.91599   0.82175   0.72078   0.00000  Uiso   1.00
C143   C     0.98146   0.81680   0.83076   0.00000  Uiso   1.00
C144   C     0.76132   0.82540   0.65621   0.00000  Uiso   1.00
C145   C     0.73321   0.79859   0.62661   0.00000  Uiso   1.00
C146   C     0.69941   0.79061   0.70925   0.00000  Uiso   1.00
C147   C     0.63952   0.76764   0.81251   0.00000  Uiso   1.00
C148   C     0.79097   0.87577   0.55719   0.00000  Uiso   1.00
C149   C     0.78778   0.89131   0.44432   0.00000  Uiso   1.00
C150   C     0.77893   0.92574   0.44359   0.00000  Uiso   1.00
C151   C     0.76508   0.98098   0.39311   0.00000  Uiso   1.00
C152   C     0.79035   0.87189   0.77847   0.00000  Uiso   1.00
C153   C     0.83658   0.85519   0.76881   0.00000  Uiso   1.00
C154   C     0.87069   0.85701   0.85513   0.00000  Uiso   1.00
C155   C     0.91051   0.83997   0.82928   0.00000  Uiso   1.00
C156   C     0.75585   0.84358   0.76451   0.00000  Uiso   1.00
C157   C     0.72208   0.83564   0.84720   0.00000  Uiso   1.00
C158   C     0.69393   0.80883   0.81774   0.00000  Uiso   1.00
C159   C     0.78551   0.89396   0.66549   0.00000  Uiso   1.00
C160   C     0.77665   0.92836   0.66493   0.00000  Uiso   1.00
C161   C     0.77345   0.94396   0.55209   0.00000  Uiso   1.00
H162   H     0.80467   0.82425   0.49477   0.00000  Uiso   1.00
H163   H     0.88605   0.80589   0.55071   0.00000  Uiso   1.00
H164   H     0.73745   0.78452   0.54279   0.00000  Uiso   1.00
H165   H     0.79202   0.87723   0.36054   0.00000  Uiso   1.00
H166   H     0.97385   0.79354   0.66051   0.00000  Uiso   1.00
H167   H     0.66052   0.74850   0.64378   0.00000  Uiso   1.00
H168   H     0.77558   0.94400   0.25947   0.00000  Uiso   1.00
H169   H     0.78609   0.88606   0.86279   0.00000  Uiso   1.00
H170   H     0.86645   0.87109   0.93893   0.00000  Uiso   1.00
H171   H     0.71786   0.84972   0.93100   0.00000  Uiso   1.00
H172   H     0.77242   0.94243   0.74875   0.00000  Uiso   1.00
H173   H     0.95794   0.84646   0.97560   0.00000  Uiso   1.00
H174   H     0.64461   0.80142   0.95887   0.00000  Uiso   1.00
H175   H     0.75967   0.99692   0.57456   0.00000  Uiso   1.00
O176   O     0.01909   0.80903   0.86151   0.00000  Uiso   1.00
O177   O     0.60801   0.74995   0.83955   0.00000  Uiso   1.00
O178   O     0.75896   0.00643   0.33535   0.00000  Uiso   1.00
N179   N     0.95908   0.80806   0.72420   0.00000  Uiso   1.00
N180   N     0.66614   0.76595   0.70857   0.00000  Uiso   1.00
N181   N     0.77370   0.94871   0.34927   0.00000  Uiso   1.00
N182   N     0.95052   0.83653   0.89375   0.00000  Uiso   1.00
N183   N     0.65758   0.79442   0.87812   0.00000  Uiso   1.00
N184   N     0.76514   0.97719   0.51882   0.00000  Uiso   1.00
C185   C     0.69958   0.66159   0.57909   0.00000  Uiso   1.00
C186   C     0.65795   0.66299   0.66050   0.00000  Uiso   1.00
C187   C     0.61817   0.68004   0.63453   0.00000  Uiso   1.00
C188   C     0.58401   0.67825   0.72078   0.00000  Uiso   1.00
C189   C     0.51854   0.68320   0.83076   0.00000  Uiso   1.00
C190   C     0.73868   0.67460   0.65621   0.00000  Uiso   1.00
C191   C     0.76679   0.70141   0.62661   0.00000  Uiso   1.00
C192   C     0.80059   0.70939   0.70925   0.00000  Uiso   1.00
C193   C     0.86048   0.73236   0.81251   0.00000  Uiso   1.00
C194   C     0.70903   0.62423   0.55719   0.00000  Uiso   1.00
C195   C     0.71222   0.60869   0.44432   0.00000  Uiso   1.00
C196   C     0.72107   0.57426   0.44359   0.00000  Uiso   1.00
C197   C     0.73492   0.51902   0.39311   0.00000  Uiso   1.00
C198   C     0.70965   0.62811   0.77847   0.00000  Uiso   1.00
C199   C     0.66342   0.64481   0.76881   0.00000  Uiso   1.00
C200   C     0.62931   0.64299   0.85513   0.00000  Uiso   1.00
C201   C     0.58949   0.66003   0.82928   0.00000  Uiso   1.00
C202   C     0.74415   0.65642   0.76451   0.00000  Uiso   1.00
C203   C     0.77792   0.66436   0.84720   0.00000  Uiso   1.00
C204   C     0.80607   0.69117   0.81774   0.00000  Uiso   1.00
C205   C     0.71449   0.60604   0.66549   0.00000  Uiso   1.00
C206   C     0.72335   0.57164   0.66493   0.00000  Uiso   1.00
C207   C     0.72655   0.55604   0.55209   0.00000  Uiso   1.00
H208   H     0.69533   0.67575   0.49477   0.00000  Uiso   1.00
H209   H     0.61395   0.69411   0.55071   0.00000  Uiso   1.00
H210   H     0.76255   0.71548   0.54279   0.00000  Uiso   1.00
H211   H     0.70798   0.62277   0.36054   0.00000  Uiso   1.00
H212   H     0.52615   0.70646   0.66051   0.00000  Uiso   1.00
H213   H     0.83948   0.75150   0.64378   0.00000  Uiso   1.00
H214   H     0.72442   0.55600   0.25947   0.00000  Uiso   1.00
H215   H     0.71391   0.61394   0.86279   0.00000  Uiso   1.00
H216   H     0.63355   0.62891   0.93893   0.00000  Uiso   1.00
H217   H     0.78214   0.65028   0.93100   0.00000  Uiso   1.00
H218   H     0.72758   0.55757   0.74875   0.00000  Uiso   1.00
H219   H     0.54206   0.65354   0.97560   0.00000  Uiso   1.00
H220   H     0.85539   0.69858   0.95887   0.00000  Uiso   1.00
H221   H     0.74033   0.50308   0.57456   0.00000  Uiso   1.00
O222   O     0.48091   0.69097   0.86151   0.00000  Uiso   1.00
O223   O     0.89199   0.75005   0.83955   0.00000  Uiso   1.00
O224   O     0.74104   0.49357   0.33535   0.00000  Uiso   1.00
N225   N     0.54092   0.69194   0.72420   0.00000  Uiso   1.00
N226   N     0.83386   0.73405   0.70857   0.00000  Uiso   1.00
N227   N     0.72630   0.55129   0.34927   0.00000  Uiso   1.00
N228   N     0.54948   0.66347   0.89375   0.00000  Uiso   1.00
N229   N     0.84242   0.70558   0.87812   0.00000  Uiso   1.00
N230   N     0.73486   0.52281   0.51882   0.00000  Uiso   1.00
C231   C     0.69958   0.16159   0.07909   0.00000  Uiso   1.00
C232   C     0.65795   0.16299   0.16050   0.00000  Uiso   1.00
C233   C     0.61817   0.18004   0.13453   0.00000  Uiso   1.00
C234   C     0.58401   0.17825   0.22078   0.00000  Uiso   1.00
C235   C     0.51854   0.18320   0.33076   0.00000  Uiso   1.00
C236   C     0.73868   0.17460   0.15621   0.00000  Uiso   1.00
C237   C     0.76679   0.20141   0.12661   0.00000  Uiso   1.00
C238   C     0.80059   0.20939   0.20925   0.00000  Uiso   1.00
C239   C     0.86048   0.23236   0.31251   0.00000  Uiso   1.00
C240   C     0.70903   0.12423   0.05719   0.00000  Uiso   1.00
C241   C     0.71222   0.10869   0.94432   0.00000  Uiso   1.00
C242   C     0.72107   0.07426   0.94359   0.00000  Uiso   1.00
C243   C     0.73492   0.01902   0.89311   0.00000  Uiso   1.00
C244   C     0.70965   0.12811   0.27847   0.00000  Uiso   1.00
C245   C     0.66342   0.14481   0.26881   0.00000  Uiso   1.00
C246   C     0.62931   0.14299   0.35513   0.00000  Uiso   1.00
C247   C     0.58949   0.16003   0.32928   0.00000  Uiso   1.00
C248   C     0.74415   0.15642   0.26451   0.00000  Uiso   1.00
C249   C     0.77792   0.16436   0.34720   0.00000  Uiso   1.00
C250   C     0.80607   0.19117   0.31774   0.00000  Uiso   1.00
C251   C     0.71449   0.10604   0.16549   0.00000  Uiso   1.00
C252   C     0.72335   0.07164   0.16493   0.00000  Uiso   1.00
C253   C     0.72655   0.05604   0.05209   0.00000  Uiso   1.00
H254   H     0.69533   0.17575   0.99477   0.00000  Uiso   1.00
H255   H     0.61395   0.19411   0.05071   0.00000  Uiso   1.00
H256   H     0.76255   0.21548   0.04279   0.00000  Uiso   1.00
H257   H     0.70798   0.12277   0.86054   0.00000  Uiso   1.00
H258   H     0.52615   0.20646   0.16051   0.00000  Uiso   1.00
H259   H     0.83948   0.25150   0.14378   0.00000  Uiso   1.00
H260   H     0.72442   0.05600   0.75947   0.00000  Uiso   1.00
H261   H     0.71391   0.11394   0.36279   0.00000  Uiso   1.00
H262   H     0.63355   0.12891   0.43893   0.00000  Uiso   1.00
H263   H     0.78214   0.15028   0.43100   0.00000  Uiso   1.00
H264   H     0.72758   0.05757   0.24875   0.00000  Uiso   1.00
H265   H     0.54206   0.15354   0.47560   0.00000  Uiso   1.00
H266   H     0.85539   0.19858   0.45887   0.00000  Uiso   1.00
H267   H     0.74033   0.00308   0.07456   0.00000  Uiso   1.00
O268   O     0.48091   0.19097   0.36151   0.00000  Uiso   1.00
O269   O     0.89199   0.25005   0.33955   0.00000  Uiso   1.00
O270   O     0.74104   0.99357   0.83535   0.00000  Uiso   1.00
N271   N     0.54092   0.19194   0.22420   0.00000  Uiso   1.00
N272   N     0.83386   0.23405   0.20857   0.00000  Uiso   1.00
N273   N     0.72630   0.05129   0.84927   0.00000  Uiso   1.00
N274   N     0.54948   0.16347   0.39375   0.00000  Uiso   1.00
N275   N     0.84242   0.20558   0.37812   0.00000  Uiso   1.00
N276   N     0.73486   0.02281   0.01882   0.00000  Uiso   1.00
C277   C     0.19958   0.66159   0.07909   0.00000  Uiso   1.00
C278   C     0.15795   0.66299   0.16050   0.00000  Uiso   1.00
C279   C     0.11817   0.68004   0.13453   0.00000  Uiso   1.00
C280   C     0.08401   0.67825   0.22078   0.00000  Uiso   1.00
C281   C     0.01854   0.68320   0.33076   0.00000  Uiso   1.00
C282   C     0.23868   0.67460   0.15621   0.00000  Uiso   1.00
C283   C     0.26679   0.70141   0.12661   0.00000  Uiso   1.00
C284   C     0.30059   0.70939   0.20925   0.00000  Uiso   1.00
C285   C     0.36048   0.73236   0.31251   0.00000  Uiso   1.00
C286   C     0.20903   0.62423   0.05719   0.00000  Uiso   1.00
C287   C     0.21222   0.60869   0.94432   0.00000  Uiso   1.00
C288   C     0.22107   0.57426   0.94359   0.00000  Uiso   1.00
C289   C     0.23492   0.51902   0.89311   0.00000  Uiso   1.00
C290   C     0.20965   0.62811   0.27847   0.00000  Uiso   1.00
C291   C     0.16342   0.64481   0.26881   0.00000  Uiso   1.00
C292   C     0.12931   0.64299   0.35513   0.00000  Uiso   1.00
C293   C     0.08949   0.66003   0.32928   0.00000  Uiso   1.00
C294   C     0.24415   0.65642   0.26451   0.00000  Uiso   1.00
C295   C     0.27792   0.66436   0.34720   0.00000  Uiso   1.00
C296   C     0.30607   0.69117   0.31774   0.00000  Uiso   1.00
C297   C     0.21449   0.60604   0.16549   0.00000  Uiso   1.00
C298   C     0.22335   0.57164   0.16493   0.00000  Uiso   1.00
C299   C     0.22655   0.55604   0.05209   0.00000  Uiso   1.00
H300   H     0.19533   0.67575   0.99477   0.00000  Uiso   1.00
H301   H     0.11395   0.69411   0.05071   0.00000  Uiso   1.00
H302   H     0.26255   0.71548   0.04279   0.00000  Uiso   1.00
H303   H     0.20798   0.62277   0.86054   0.00000  Uiso   1.00
H304   H     0.02615   0.70646   0.16051   0.00000  Uiso   1.00
H305   H     0.33948   0.75150   0.14378   0.00000  Uiso   1.00
H306   H     0.22442   0.55600   0.75947   0.00000  Uiso   1.00
H307   H     0.21391   0.61394   0.36279   0.00000  Uiso   1.00
H308   H     0.13355   0.62891   0.43893   0.00000  Uiso   1.00
H309   H     0.28214   0.65028   0.43100   0.00000  Uiso   1.00
H310   H     0.22758   0.55757   0.24875   0.00000  Uiso   1.00
H311   H     0.04206   0.65354   0.47560   0.00000  Uiso   1.00
H312   H     0.35539   0.69858   0.45887   0.00000  Uiso   1.00
H313   H     0.24033   0.50308   0.07456   0.00000  Uiso   1.00
O314   O     0.98091   0.69097   0.36151   0.00000  Uiso   1.00
O315   O     0.39199   0.75005   0.33955   0.00000  Uiso   1.00
O316   O     0.24104   0.49357   0.83535   0.00000  Uiso   1.00
N317   N     0.04092   0.69194   0.22420   0.00000  Uiso   1.00
N318   N     0.33386   0.73405   0.20857   0.00000  Uiso   1.00
N319   N     0.22630   0.55129   0.84927   0.00000  Uiso   1.00
N320   N     0.04948   0.66347   0.39375   0.00000  Uiso   1.00
N321   N     0.34242   0.70558   0.37812   0.00000  Uiso   1.00
N322   N     0.23486   0.52281   0.01882   0.00000  Uiso   1.00
C323   C     0.19958   0.16159   0.57909   0.00000  Uiso   1.00
C324   C     0.15795   0.16299   0.66050   0.00000  Uiso   1.00
C325   C     0.11817   0.18004   0.63453   0.00000  Uiso   1.00
C326   C     0.08401   0.17825   0.72078   0.00000  Uiso   1.00
C327   C     0.01854   0.18320   0.83076   0.00000  Uiso   1.00
C328   C     0.23868   0.17460   0.65621   0.00000  Uiso   1.00
C329   C     0.26679   0.20141   0.62661   0.00000  Uiso   1.00
C330   C     0.30059   0.20939   0.70925   0.00000  Uiso   1.00
C331   C     0.36048   0.23236   0.81251   0.00000  Uiso   1.00
C332   C     0.20903   0.12423   0.55719   0.00000  Uiso   1.00
C333   C     0.21222   0.10869   0.44432   0.00000  Uiso   1.00
C334   C     0.22107   0.07426   0.44359   0.00000  Uiso   1.00
C335   C     0.23492   0.01902   0.39311   0.00000  Uiso   1.00
C336   C     0.20965   0.12811   0.77847   0.00000  Uiso   1.00
C337   C     0.16342   0.14481   0.76881   0.00000  Uiso   1.00
C338   C     0.12931   0.14299   0.85513   0.00000  Uiso   1.00
C339   C     0.08949   0.16003   0.82928   0.00000  Uiso   1.00
C340   C     0.24415   0.15642   0.76451   0.00000  Uiso   1.00
C341   C     0.27792   0.16436   0.84720   0.00000  Uiso   1.00
C342   C     0.30607   0.19117   0.81774   0.00000  Uiso   1.00
C343   C     0.21449   0.10604   0.66549   0.00000  Uiso   1.00
C344   C     0.22335   0.07164   0.66493   0.00000  Uiso   1.00
C345   C     0.22655   0.05604   0.55209   0.00000  Uiso   1.00
H346   H     0.19533   0.17575   0.49477   0.00000  Uiso   1.00
H347   H     0.11395   0.19411   0.55071   0.00000  Uiso   1.00
H348   H     0.26255   0.21548   0.54279   0.00000  Uiso   1.00
H349   H     0.20798   0.12277   0.36054   0.00000  Uiso   1.00
H350   H     0.02615   0.20646   0.66051   0.00000  Uiso   1.00
H351   H     0.33948   0.25150   0.64378   0.00000  Uiso   1.00
H352   H     0.22442   0.05600   0.25947   0.00000  Uiso   1.00
H353   H     0.21391   0.11394   0.86279   0.00000  Uiso   1.00
H354   H     0.13355   0.12891   0.93893   0.00000  Uiso   1.00
H355   H     0.28214   0.15028   0.93100   0.00000  Uiso   1.00
H356   H     0.22758   0.05757   0.74875   0.00000  Uiso   1.00
H357   H     0.04206   0.15354   0.97560   0.00000  Uiso   1.00
H358   H     0.35539   0.19858   0.95887   0.00000  Uiso   1.00
H359   H     0.24033   0.00308   0.57456   0.00000  Uiso   1.00
O360   O     0.98091   0.19097   0.86151   0.00000  Uiso   1.00
O361   O     0.39199   0.25005   0.83955   0.00000  Uiso   1.00
O362   O     0.24104   0.99357   0.33535   0.00000  Uiso   1.00
N363   N     0.04092   0.19194   0.72420   0.00000  Uiso   1.00
N364   N     0.33386   0.23405   0.70857   0.00000  Uiso   1.00
N365   N     0.22630   0.05129   0.34927   0.00000  Uiso   1.00
N366   N     0.04948   0.16347   0.89375   0.00000  Uiso   1.00
N367   N     0.34242   0.20558   0.87812   0.00000  Uiso   1.00
N368   N     0.23486   0.02281   0.51882   0.00000  Uiso   1.00
C369   C     0.55042   0.91159   0.82909   0.00000  Uiso   1.00
C370   C     0.59205   0.91299   0.91050   0.00000  Uiso   1.00
C371   C     0.63183   0.93004   0.88453   0.00000  Uiso   1.00
C372   C     0.66599   0.92825   0.97078   0.00000  Uiso   1.00
C373   C     0.73146   0.93320   0.08076   0.00000  Uiso   1.00
C374   C     0.51132   0.92460   0.90621   0.00000  Uiso   1.00
C375   C     0.48321   0.95141   0.87661   0.00000  Uiso   1.00
C376   C     0.44941   0.95939   0.95925   0.00000  Uiso   1.00
C377   C     0.38952   0.98236   0.06251   0.00000  Uiso   1.00
C378   C     0.54097   0.87423   0.80719   0.00000  Uiso   1.00
C379   C     0.53778   0.85869   0.69432   0.00000  Uiso   1.00
C380   C     0.52893   0.82426   0.69359   0.00000  Uiso   1.00
C381   C     0.51508   0.76902   0.64311   0.00000  Uiso   1.00
C382   C     0.54035   0.87811   0.02847   0.00000  Uiso   1.00
C383   C     0.58658   0.89481   0.01881   0.00000  Uiso   1.00
C384   C     0.62069   0.89299   0.10513   0.00000  Uiso   1.00
C385   C     0.66051   0.91003   0.07928   0.00000  Uiso   1.00
C386   C     0.50585   0.90642   0.01451   0.00000  Uiso   1.00
C387   C     0.47208   0.91436   0.09720   0.00000  Uiso   1.00
C388   C     0.44393   0.94117   0.06774   0.00000  Uiso   1.00
C389   C     0.53551   0.85604   0.91549   0.00000  Uiso   1.00
C390   C     0.52665   0.82164   0.91493   0.00000  Uiso   1.00
C391   C     0.52345   0.80604   0.80209   0.00000  Uiso   1.00
H392   H     0.55467   0.92575   0.74477   0.00000  Uiso   1.00
H393   H     0.63605   0.94411   0.80071   0.00000  Uiso   1.00
H394   H     0.48745   0.96548   0.79279   0.00000  Uiso   1.00
H395   H     0.54202   0.87277   0.61054   0.00000  Uiso   1.00
H396   H     0.72385   0.95646   0.91051   0.00000  Uiso   1.00
H397   H     0.41052   0.00150   0.89378   0.00000  Uiso   1.00
H398   H     0.52558   0.80600   0.50947   0.00000  Uiso   1.00
H399   H     0.53609   0.86394   0.11279   0.00000  Uiso   1.00
H400   H     0.61645   0.87891   0.18893   0.00000  Uiso   1.00
H401   H     0.46786   0.90028   0.18100   0.00000  Uiso   1.00
H402   H     0.52242   0.80757   0.99875   0.00000  Uiso   1.00
H403   H     0.70794   0.90354   0.22560   0.00000  Uiso   1.00
H404   H     0.39461   0.94858   0.20887   0.00000  Uiso   1.00
H405   H     0.50967   0.75308   0.82456   0.00000  Uiso   1.00
O406   O     0.76909   0.94097   0.11151   0.00000  Uiso   1.00
O407   O     0.35801   0.00005   0.08955   0.00000  Uiso   1.00
O408   O     0.50896   0.74357   0.58535   0.00000  Uiso   1.00
N409   N     0.70908   0.94194   0.97420   0.00000  Uiso   1.00
N410   N     0.41614   0.98405   0.95857   0.00000  Uiso   1.00
N411   N     0.52370   0.80129   0.59927   0.00000  Uiso   1.00
N412   N     0.70052   0.91347   0.14375   0.00000  Uiso   1.00
N413   N     0.40758   0.95558   0.12812   0.00000  Uiso   1.00
N414   N     0.51514   0.77281   0.76882   0.00000  Uiso   1.00
C415   C     0.55042   0.41159   0.32909   0.00000  Uiso   1.00
C416   C     0.59205   0.41299   0.41050   0.00000  Uiso   1.00
C417   C     0.63183   0.43004   0.38453   0.00000  Uiso   1.00
C418   C     0.66599   0.42825   0.47078   0.00000  Uiso   1.00
C419   C     0.73146   0.43320   0.58076   0.00000  Uiso   1.00
C420   C     0.51132   0.42460   0.40621   0.00000  Uiso   1.00
C421   C     0.48321   0.45141   0.37661   0.00000  Uiso   1.00
C422   C     0.44941   0.45939   0.45925   0.00000  Uiso   1.00
C423   C     0.38952   0.48236   0.56251   0.00000  Uiso   1.00
C424   C     0.54097   0.37423   0.30719   0.00000  Uiso   1.00
C425   C     0.53778   0.35869   0.19432   0.00000  Uiso   1.00
C426   C     0.52893   0.32426   0.19359   0.00000  Uiso   1.00
C427   C     0.51508   0.26902   0.14311   0.00000  Uiso   1.00
C428   C     0.54035   0.37811   0.52847   0.00000  Uiso   1.00
C429   C     0.58658   0.39481   0.51881   0.00000  Uiso   1.00
C430   C     0.62069   0.39299   0.60513   0.00000  Uiso   1.00
C431   C     0.66051   0.41003   0.57928   0.00000  Uiso   1.00
C432   C     0.50585   0.40642   0.51451   0.00000  Uiso   1.00
C433   C     0.47208   0.41436   0.59720   0.00000  Uiso   1.00
C434   C     0.44393   0.44117   0.56774   0.00000  Uiso   1.00
C435   C     0.53551   0.35604   0.41549   0.00000  Uiso   1.00
C436   C     0.52665   0.32164   0.41493   0.00000  Uiso   1.00
C437   C     0.52345   0.30604   0.30209   0.00000  Uiso   1.00
H438   H     0.55467   0.42575   0.24477   0.00000  Uiso   1.00
H439   H     0.63605   0.44411   0.30071   0.00000  Uiso   1.00
H440   H     0.48745   0.46548   0.29279   0.00000  Uiso   1.00
H441   H     0.54202   0.37277   0.11054   0.00000  Uiso   1.00
H442   H     0.72385   0.45646   0.41051   0.00000  Uiso   1.00
H443   H     0.41052   0.50150   0.39378   0.00000  Uiso   1.00
H444   H     0.52558   0.30600   0.00947   0.00000  Uiso   1.00
H445   H     0.53609   0.36394   0.61279   0.00000  Uiso   1.00
H446   H     0.61645   0.37891   0.68893   0.00000  Uiso   1.00
H447   H     0.46786   0.40028   0.68100   0.00000  Uiso   1.00
H448   H     0.52242   0.30757   0.49875   0.00000  Uiso   1.00
H449   H     0.70794   0.40354   0.72560   0.00000  Uiso   1.00
H450   H     0.39461   0.44858   0.70887   0.00000  Uiso   1.00
H451   H     0.50967   0.25308   0.32456   0.00000  Uiso   1.00
O452   O     0.76909   0.44097   0.61151   0.00000  Uiso   1.00
O453   O     0.35801   0.50005   0.58955   0.00000  Uiso   1.00
O454   O     0.50896   0.24357   0.08535   0.00000  Uiso   1.00
N455   N     0.70908   0.44194   0.47420   0.00000  Uiso   1.00
N456   N     0.41614   0.48405   0.45857   0.00000  Uiso   1.00
N457   N     0.52370   0.30129   0.09927   0.00000  Uiso   1.00
N458   N     0.70052   0.41347   0.64375   0.00000  Uiso   1.00
N459   N     0.40758   0.45558   0.62812   0.00000  Uiso   1.00
N460   N     0.51514   0.27281   0.26882   0.00000  Uiso   1.00
C461   C     0.05042   0.91159   0.32909   0.00000  Uiso   1.00
C462   C     0.09205   0.91299   0.41050   0.00000  Uiso   1.00
C463   C     0.13183   0.93004   0.38453   0.00000  Uiso   1.00
C464   C     0.16599   0.92825   0.47078   0.00000  Uiso   1.00
C465   C     0.23146   0.93320   0.58076   0.00000  Uiso   1.00
C466   C     0.01132   0.92460   0.40621   0.00000  Uiso   1.00
C467   C     0.98321   0.95141   0.37661   0.00000  Uiso   1.00
C468   C     0.94941   0.95939   0.45925   0.00000  Uiso   1.00
C469   C     0.88952   0.98236   0.56251   0.00000  Uiso   1.00
C470   C     0.04097   0.87423   0.30719   0.00000  Uiso   1.00
C471   C     0.03778   0.85869   0.19432   0.00000  Uiso   1.00
C472   C     0.02893   0.82426   0.19359   0.00000  Uiso   1.00
C473   C     0.01508   0.76902   0.14311   0.00000  Uiso   1.00
C474   C     0.04035   0.87811   0.52847   0.00000  Uiso   1.00
C475   C     0.08658   0.89481   0.51881   0.00000  Uiso   1.00
C476   C     0.12069   0.89299   0.60513   0.00000  Uiso   1.00
C477   C     0.16051   0.91003   0.57928   0.00000  Uiso   1.00
C478   C     0.00585   0.90642   0.51451   0.00000  Uiso   1.00
C479   C     0.97208   0.91436   0.59720   0.00000  Uiso   1.00
C480   C     0.94393   0.94117   0.56774   0.00000  Uiso   1.00
C481   C     0.03551   0.85604   0.41549   0.00000  Uiso   1.00
C482   C     0.02665   0.82164   0.41493   0.00000  Uiso   1.00
C483   C     0.02345   0.80604   0.30209   0.00000  Uiso   1.00
H484   H     0.05467   0.92575   0.24477   0.00000  Uiso   1.00
H485   H     0.13605   0.94411   0.30071   0.00000  Uiso   1.00
H486   H     0.98745   0.96548   0.29279   0.00000  Uiso   1.00
H487   H     0.04202   0.87277   0.11054   0.00000  Uiso   1.00
H488   H     0.22385   0.95646   0.41051   0.00000  Uiso   1.00
H489   H     0.91052   0.00150   0.39378   0.00000  Uiso   1.00
H490   H     0.02558   0.80600   0.00947   0.00000  Uiso   1.00
H491   H     0.03609   0.86394   0.61279   0.00000  Uiso   1.00
H492   H     0.11645   0.87891   0.68893   0.00000  Uiso   1.00
H493   H     0.96786   0.90028   0.68100   0.00000  Uiso   1.00
H494   H     0.02242   0.80757   0.49875   0.00000  Uiso   1.00
H495   H     0.20794   0.90354   0.72560   0.00000  Uiso   1.00
H496   H     0.89461   0.94858   0.70887   0.00000  Uiso   1.00
H497   H     0.00967   0.75308   0.32456   0.00000  Uiso   1.00
O498   O     0.26909   0.94097   0.61151   0.00000  Uiso   1.00
O499   O     0.85801   0.00005   0.58955   0.00000  Uiso   1.00
O500   O     0.00896   0.74357   0.08535   0.00000  Uiso   1.00
N501   N     0.20908   0.94194   0.47420   0.00000  Uiso   1.00
N502   N     0.91614   0.98405   0.45857   0.00000  Uiso   1.00
N503   N     0.02370   0.80129   0.09927   0.00000  Uiso   1.00
N504   N     0.20052   0.91347   0.64375   0.00000  Uiso   1.00
N505   N     0.90758   0.95558   0.62812   0.00000  Uiso   1.00
N506   N     0.01514   0.77281   0.26882   0.00000  Uiso   1.00
C507   C     0.05042   0.41159   0.82909   0.00000  Uiso   1.00
C508   C     0.09205   0.41299   0.91050   0.00000  Uiso   1.00
C509   C     0.13183   0.43004   0.88453   0.00000  Uiso   1.00
C510   C     0.16599   0.42825   0.97078   0.00000  Uiso   1.00
C511   C     0.23146   0.43320   0.08076   0.00000  Uiso   1.00
C512   C     0.01132   0.42460   0.90621   0.00000  Uiso   1.00
C513   C     0.98321   0.45141   0.87661   0.00000  Uiso   1.00
C514   C     0.94941   0.45939   0.95925   0.00000  Uiso   1.00
C515   C     0.88952   0.48236   0.06251   0.00000  Uiso   1.00
C516   C     0.04097   0.37423   0.80719   0.00000  Uiso   1.00
C517   C     0.03778   0.35869   0.69432   0.00000  Uiso   1.00
C518   C     0.02893   0.32426   0.69359   0.00000  Uiso   1.00
C519   C     0.01508   0.26902   0.64311   0.00000  Uiso   1.00
C520   C     0.04035   0.37811   0.02847   0.00000  Uiso   1.00
C521   C     0.08658   0.39481   0.01881   0.00000  Uiso   1.00
C522   C     0.12069   0.39299   0.10513   0.00000  Uiso   1.00
C523   C     0.16051   0.41003   0.07928   0.00000  Uiso   1.00
C524   C     0.00585   0.40642   0.01451   0.00000  Uiso   1.00
C525   C     0.97208   0.41436   0.09720   0.00000  Uiso   1.00
C526   C     0.94393   0.44117   0.06774   0.00000  Uiso   1.00
C527   C     0.03551   0.35604   0.91549   0.00000  Uiso   1.00
C528   C     0.02665   0.32164   0.91493   0.00000  Uiso   1.00
C529   C     0.02345   0.30604   0.80209   0.00000  Uiso   1.00
H530   H     0.05467   0.42575   0.74477   0.00000  Uiso   1.00
H531   H     0.13605   0.44411   0.80071   0.00000  Uiso   1.00
H532   H     0.98745   0.46548   0.79279   0.00000  Uiso   1.00
H533   H     0.04202   0.37277   0.61054   0.00000  Uiso   1.00
H534   H     0.22385   0.45646   0.91051   0.00000  Uiso   1.00
H535   H     0.91052   0.50150   0.89378   0.00000  Uiso   1.00
H536   H     0.02558   0.30600   0.50947   0.00000  Uiso   1.00
H537   H     0.03609   0.36394   0.11279   0.00000  Uiso   1.00
H538   H     0.11645   0.37891   0.18893   0.00000  Uiso   1.00
H539   H     0.96786   0.40028   0.18100   0.00000  Uiso   1.00
H540   H     0.02242   0.30757   0.99875   0.00000  Uiso   1.00
H541   H     0.20794   0.40354   0.22560   0.00000  Uiso   1.00
H542   H     0.89461   0.44858   0.20887   0.00000  Uiso   1.00
H543   H     0.00967   0.25308   0.82456   0.00000  Uiso   1.00
O544   O     0.26909   0.44097   0.11151   0.00000  Uiso   1.00
O545   O     0.85801   0.50005   0.08955   0.00000  Uiso   1.00
O546   O     0.00896   0.24357   0.58535   0.00000  Uiso   1.00
N547   N     0.20908   0.44194   0.97420   0.00000  Uiso   1.00
N548   N     0.91614   0.48405   0.95857   0.00000  Uiso   1.00
N549   N     0.02370   0.30129   0.59927   0.00000  Uiso   1.00
N550   N     0.20052   0.41347   0.14375   0.00000  Uiso   1.00
N551   N     0.90758   0.45558   0.12812   0.00000  Uiso   1.00
N552   N     0.01514   0.27281   0.76882   0.00000  Uiso   1.00
C553   C     0.94958   0.58841   0.82909   0.00000  Uiso   1.00
C554   C     0.90795   0.58701   0.91050   0.00000  Uiso   1.00
C555   C     0.86817   0.56996   0.88453   0.00000  Uiso   1.00
C556   C     0.83401   0.57175   0.97078   0.00000  Uiso   1.00
C557   C     0.76854   0.56680   0.08076   0.00000  Uiso   1.00
C558   C     0.98868   0.57540   0.90621   0.00000  Uiso   1.00
C559   C     0.01679   0.54859   0.87661   0.00000  Uiso   1.00
C560   C     0.05059   0.54061   0.95925   0.00000  Uiso   1.00
C561   C     0.11048   0.51764   0.06251   0.00000  Uiso   1.00
C562   C     0.95903   0.62577   0.80719   0.00000  Uiso   1.00
C563   C     0.96222   0.64131   0.69432   0.00000  Uiso   1.00
C564   C     0.97107   0.67574   0.69359   0.00000  Uiso   1.00
C565   C     0.98492   0.73098   0.64311   0.00000  Uiso   1.00
C566   C     0.95965   0.62189   0.02847   0.00000  Uiso   1.00
C567   C     0.91342   0.60519   0.01881   0.00000  Uiso   1.00
C568   C     0.87931   0.60701   0.10513   0.00000  Uiso   1.00
C569   C     0.83949   0.58997   0.07928   0.00000  Uiso   1.00
C570   C     0.99415   0.59358   0.01451   0.00000  Uiso   1.00
C571   C     0.02792   0.58564   0.09720   0.00000  Uiso   1.00
C572   C     0.05607   0.55883   0.06774   0.00000  Uiso   1.00
C573   C     0.96449   0.64396   0.91549   0.00000  Uiso   1.00
C574   C     0.97335   0.67836   0.91493   0.00000  Uiso   1.00
C575   C     0.97655   0.69396   0.80209   0.00000  Uiso   1.00
H576   H     0.94533   0.57425   0.74477   0.00000  Uiso   1.00
H577   H     0.86395   0.55589   0.80071   0.00000  Uiso   1.00
H578   H     0.01255   0.53452   0.79279   0.00000  Uiso   1.00
H579   H     0.95798   0.62723   0.61054   0.00000  Uiso   1.00
H580   H     0.77615   0.54354   0.91051   0.00000  Uiso   1.00
H581   H     0.08948   0.49850   0.89378   0.00000  Uiso   1.00
H582   H     0.97442   0.69400   0.50947   0.00000  Uiso   1.00
H583   H     0.96391   0.63606   0.11279   0.00000  Uiso   1.00
H584   H     0.88355   0.62109   0.18893   0.00000  Uiso   1.00
H585   H     0.03214   0.59972   0.18100   0.00000  Uiso   1.00
H586   H     0.97758   0.69243   0.99875   0.00000  Uiso   1.00
H587   H     0.79206   0.59646   0.22560   0.00000  Uiso   1.00
H588   H     0.10539   0.55142   0.20887   0.00000  Uiso   1.00
H589   H     0.99033   0.74692   0.82456   0.00000  Uiso   1.00
O590   O     0.73091   0.55903   0.11151   0.00000  Uiso   1.00
O591   O     0.14199   0.49995   0.08955   0.00000  Uiso   1.00
O592   O     0.99104   0.75643   0.58535   0.00000  Uiso   1.00
N593   N     0.79092   0.55806   0.97420   0.00000  Uiso   1.00
N594   N     0.08386   0.51595   0.95857   0.00000  Uiso   1.00
N595   N     0.97630   0.69871   0.59927   0.00000  Uiso   1.00
N596   N     0.79948   0.58653   0.14375   0.00000  Uiso   1.00
N597   N     0.09242   0.54442   0.12812   0.00000  Uiso   1.00
N598   N     0.98486   0.72719   0.76882   0.00000  Uiso   1.00
C599   C     0.94958   0.08841   0.32909   0.00000  Uiso   1.00
C600   C     0.90795   0.08701   0.41050   0.00000  Uiso   1.00
C601   C     0.86817   0.06996   0.38453   0.00000  Uiso   1.00
C602   C     0.83401   0.07175   0.47078   0.00000  Uiso   1.00
C603   C     0.76854   0.06680   0.58076   0.00000  Uiso   1.00
C604   C     0.98868   0.07540   0.40621   0.00000  Uiso   1.00
C605   C     0.01679   0.04859   0.37661   0.00000  Uiso   1.00
C606   C     0.05059   0.04061   0.45925   0.00000  Uiso   1.00
C607   C     0.11048   0.01764   0.56251   0.00000  Uiso   1.00
C608   C     0.95903   0.12577   0.30719   0.00000  Uiso   1.00
C609   C     0.96222   0.14131   0.19432   0.00000  Uiso   1.00
C610   C     0.97107   0.17574   0.19359   0.00000  Uiso   1.00
C611   C     0.98492   0.23098   0.14311   0.00000  Uiso   1.00
C612   C     0.95965   0.12189   0.52847   0.00000  Uiso   1.00
C613   C     0.91342   0.10519   0.51881   0.00000  Uiso   1.00
C614   C     0.87931   0.10701   0.60513   0.00000  Uiso   1.00
C615   C     0.83949   0.08997   0.57928   0.00000  Uiso   1.00
C616   C     0.99415   0.09358   0.51451   0.00000  Uiso   1.00
C617   C     0.02792   0.08564   0.59720   0.00000  Uiso   1.00
C618   C     0.05607   0.05883   0.56774   0.00000  Uiso   1.00
C619   C     0.96449   0.14396   0.41549   0.00000  Uiso   1.00
C620   C     0.97335   0.17836   0.41493   0.00000  Uiso   1.00
C621   C     0.97655   0.19396   0.30209   0.00000  Uiso   1.00
H622   H     0.94533   0.07425   0.24477   0.00000  Uiso   1.00
H623   H     0.86395   0.05589   0.30071   0.00000  Uiso   1.00
H624   H     0.01255   0.03452   0.29279   0.00000  Uiso   1.00
H625   H     0.95798   0.12723   0.11054   0.00000  Uiso   1.00
H626   H     0.77615   0.04354   0.41051   0.00000  Uiso   1.00
H627   H     0.08948   0.99850   0.39378   0.00000  Uiso   1.00
H628   H     0.97442   0.19400   0.00947   0.00000  Uiso   1.00
H629   H     0.96391   0.13606   0.61279   0.00000  Uiso   1.00
H630   H     0.88355   0.12109   0.68893   0.00000  Uiso   1.00
H631   H     0.03214   0.09972   0.68100   0.00000  Uiso   1.00
H632   H     0.97758   0.19243   0.49875   0.00000  Uiso   1.00
H633   H     0.79206   0.09646   0.72560   0.00000  Uiso   1.00
H634   H     0.10539   0.05142   0.70887   0.00000  Uiso   1.00
H635   H     0.99033   0.24692   0.32456   0.00000  Uiso   1.00
O636   O     0.73091   0.05903   0.61151   0.00000  Uiso   1.00
O637   O     0.14199   0.99995   0.58955   0.00000  Uiso   1.00
O638   O     0.99104   0.25643   0.08535   0.00000  Uiso   1.00
N639   N     0.79092   0.05806   0.47420   0.00000  Uiso   1.00
N640   N     0.08386   0.01595   0.45857   0.00000  Uiso   1.00
N641   N     0.97630   0.19871   0.09927   0.00000  Uiso   1.00
N642   N     0.79948   0.08653   0.64375   0.00000  Uiso   1.00
N643   N     0.09242   0.04442   0.62812   0.00000  Uiso   1.00
N644   N     0.98486   0.22719   0.26882   0.00000  Uiso   1.00
C645   C     0.44958   0.58841   0.32909   0.00000  Uiso   1.00
C646   C     0.40795   0.58701   0.41050   0.00000  Uiso   1.00
C647   C     0.36817   0.56996   0.38453   0.00000  Uiso   1.00
C648   C     0.33401   0.57175   0.47078   0.00000  Uiso   1.00
C649   C     0.26854   0.56680   0.58076   0.00000  Uiso   1.00
C650   C     0.48868   0.57540   0.40621   0.00000  Uiso   1.00
C651   C     0.51679   0.54859   0.37661   0.00000  Uiso   1.00
C652   C     0.55059   0.54061   0.45925   0.00000  Uiso   1.00
C653   C     0.61048   0.51764   0.56251   0.00000  Uiso   1.00
C654   C     0.45903   0.62577   0.30719   0.00000  Uiso   1.00
C655   C     0.46222   0.64131   0.19432   0.00000  Uiso   1.00
C656   C     0.47107   0.67574   0.19359   0.00000  Uiso   1.00
C657   C     0.48492   0.73098   0.14311   0.00000  Uiso   1.00
C658   C     0.45965   0.62189   0.52847   0.00000  Uiso   1.00
C659   C     0.41342   0.60519   0.51881   0.00000  Uiso   1.00
C660   C     0.37931   0.60701   0.60513   0.00000  Uiso   1.00
C661   C     0.33949   0.58997   0.57928   0.00000  Uiso   1.00
C662   C     0.49415   0.59358   0.51451   0.00000  Uiso   1.00
C663   C     0.52792   0.58564   0.59720   0.00000  Uiso   1.00
C664   C     0.55607   0.55883   0.56774   0.00000  Uiso   1.00
C665   C     0.46449   0.64396   0.41549   0.00000  Uiso   1.00
C666   C     0.47335   0.67836   0.41493   0.00000  Uiso   1.00
C667   C     0.47655   0.69396   0.30209   0.00000  Uiso   1.00
H668   H     0.44533   0.57425   0.24477   0.00000  Uiso   1.00
H669   H     0.36395   0.55589   0.30071   0.00000  Uiso   1.00
H670   H     0.51255   0.53452   0.29279   0.00000  Uiso   1.00
H671   H     0.45798   0.62723   0.11054   0.00000  Uiso   1.00
H672   H     0.27615   0.54354   0.41051   0.00000  Uiso   1.00
H673   H     0.58948   0.49850   0.39378   0.00000  Uiso   1.00
H674   H     0.47442   0.69400   0.00947   0.00000  Uiso   1.00
H675   H     0.46391   0.63606   0.61279   0.00000  Uiso   1.00
H676   H     0.38355   0.62109   0.68893   0.00000  Uiso   1.00
H677   H     0.53214   0.59972   0.68100   0.00000  Uiso   1.00
H678   H     0.47758   0.69243   0.49875   0.00000  Uiso   1.00
H679   H     0.29206   0.59646   0.72560   0.00000  Uiso   1.00
H680   H     0.60539   0.55142   0.70887   0.00000  Uiso   1.00
H681   H     0.49033   0.74692   0.32456   0.00000  Uiso   1.00
O682   O     0.23091   0.55903   0.61151   0.00000  Uiso   1.00
O683   O     0.64199   0.49995   0.58955   0.00000  Uiso   1.00
O684   O     0.49104   0.75643   0.08535   0.00000  Uiso   1.00
N685   N     0.29092   0.55806   0.47420   0.00000  Uiso   1.00
N686   N     0.58386   0.51595   0.45857   0.00000  Uiso   1.00
N687   N     0.47630   0.69871   0.09927   0.00000  Uiso   1.00
N688   N     0.29948   0.58653   0.64375   0.00000  Uiso   1.00
N689   N     0.59242   0.54442   0.62812   0.00000  Uiso   1.00
N690   N     0.48486   0.72719   0.26882   0.00000  Uiso   1.00
C691   C     0.44958   0.08841   0.82909   0.00000  Uiso   1.00
C692   C     0.40795   0.08701   0.91050   0.00000  Uiso   1.00
C693   C     0.36817   0.06996   0.88453   0.00000  Uiso   1.00
C694   C     0.33401   0.07175   0.97078   0.00000  Uiso   1.00
C695   C     0.26854   0.06680   0.08076   0.00000  Uiso   1.00
C696   C     0.48868   0.07540   0.90621   0.00000  Uiso   1.00
C697   C     0.51679   0.04859   0.87661   0.00000  Uiso   1.00
C698   C     0.55059   0.04061   0.95925   0.00000  Uiso   1.00
C699   C     0.61048   0.01764   0.06251   0.00000  Uiso   1.00
C700   C     0.45903   0.12577   0.80719   0.00000  Uiso   1.00
C701   C     0.46222   0.14131   0.69432   0.00000  Uiso   1.00
C702   C     0.47107   0.17574   0.69359   0.00000  Uiso   1.00
C703   C     0.48492   0.23098   0.64311   0.00000  Uiso   1.00
C704   C     0.45965   0.12189   0.02847   0.00000  Uiso   1.00
C705   C     0.41342   0.10519   0.01881   0.00000  Uiso   1.00
C706   C     0.37931   0.10701   0.10513   0.00000  Uiso   1.00
C707   C     0.33949   0.08997   0.07928   0.00000  Uiso   1.00
C708   C     0.49415   0.09358   0.01451   0.00000  Uiso   1.00
C709   C     0.52792   0.08564   0.09720   0.00000  Uiso   1.00
C710   C     0.55607   0.05883   0.06774   0.00000  Uiso   1.00
C711   C     0.46449   0.14396   0.91549   0.00000  Uiso   1.00
C712   C     0.47335   0.17836   0.91493   0.00000  Uiso   1.00
C713   C     0.47655   0.19396   0.80209   0.00000  Uiso   1.00
H714   H     0.44533   0.07425   0.74477   0.00000  Uiso   1.00
H715   H     0.36395   0.05589   0.80071   0.00000  Uiso   1.00
H716   H     0.51255   0.03452   0.79279   0.00000  Uiso   1.00
H717   H     0.45798   0.12723   0.61054   0.00000  Uiso   1.00
H718   H     0.27615   0.04354   0.91051   0.00000  Uiso   1.00
H719   H     0.58948   0.99850   0.89378   0.00000  Uiso   1.00
H720   H     0.47442   0.19400   0.50947   0.00000  Uiso   1.00
H721   H     0.46391   0.13606   0.11279   0.00000  Uiso   1.00
H722   H     0.38355   0.12109   0.18893   0.00000  Uiso   1.00
H723   H     0.53214   0.09972   0.18100   0.00000  Uiso   1.00
H724   H     0.47758   0.19243   0.99875   0.00000  Uiso   1.00
H725   H     0.29206   0.09646   0.22560   0.00000  Uiso   1.00
H726   H     0.60539   0.05142   0.20887   0.00000  Uiso   1.00
H727   H     0.49033   0.24692   0.82456   0.00000  Uiso   1.00
O728   O     0.23091   0.05903   0.11151   0.00000  Uiso   1.00
O729   O     0.64199   0.99995   0.08955   0.00000  Uiso   1.00
O730   O     0.49104   0.25643   0.58535   0.00000  Uiso   1.00
N731   N     0.29092   0.05806   0.97420   0.00000  Uiso   1.00
N732   N     0.58386   0.01595   0.95857   0.00000  Uiso   1.00
N733   N     0.47630   0.19871   0.59927   0.00000  Uiso   1.00
N734   N     0.29948   0.08653   0.14375   0.00000  Uiso   1.00
N735   N     0.59242   0.04442   0.12812   0.00000  Uiso   1.00
N736   N     0.48486   0.22719   0.76882   0.00000  Uiso   1.00
