data_job_03129
_audit_creation_date              2018-12-19
_audit_creation_method            'Materials Studio'
_symmetry_space_group_name_H-M    'P1'
_symmetry_Int_Tables_number       1
_symmetry_cell_setting            triclinic
loop_
_symmetry_equiv_pos_as_xyz
  x,y,z
_cell_length_a                    26.4907
_cell_length_b                    26.4907
_cell_length_c                    13.2133
_cell_angle_alpha                 90.0000
_cell_angle_beta                  90.0000
_cell_angle_gamma                 90.0000
loop_
_atom_site_label
_atom_site_type_symbol
_atom_site_fract_x
_atom_site_fract_y
_atom_site_fract_z
_atom_site_U_iso_or_equiv
_atom_site_adp_type
_atom_site_occupancy
C1     C     0.11946   0.63199   0.28333   0.00000  Uiso   1.00
C2     C     0.14456   0.60445   0.19536   0.00000  Uiso   1.00
C3     C     0.12261   0.59465   0.10204   0.00000  Uiso   1.00
C4     C     0.15181   0.56895   0.03162   0.00000  Uiso   1.00
C5     C     0.18326   0.52850   0.89167   0.00000  Uiso   1.00
C6     C     0.12204   0.59605   0.37334   0.00000  Uiso   1.00
C7     C     0.08116   0.57920   0.42966   0.00000  Uiso   1.00
C8     C     0.09141   0.54644   0.50907   0.00000  Uiso   1.00
C9     C     0.08791   0.49298   0.64548   0.00000  Uiso   1.00
C10    C     0.15406   0.67613   0.30930   0.00000  Uiso   1.00
C11    C     0.14009   0.72661   0.31182   0.00000  Uiso   1.00
C12    C     0.17729   0.76127   0.33734   0.00000  Uiso   1.00
C13    C     0.22350   0.83214   0.37433   0.00000  Uiso   1.00
C14    C     0.21035   0.60378   0.32420   0.00000  Uiso   1.00
C15    C     0.19393   0.58913   0.21757   0.00000  Uiso   1.00
C16    C     0.22317   0.56344   0.14726   0.00000  Uiso   1.00
C17    C     0.20126   0.55360   0.05386   0.00000  Uiso   1.00
C18    C     0.17141   0.58073   0.39554   0.00000  Uiso   1.00
C19    C     0.18172   0.54799   0.47488   0.00000  Uiso   1.00
C20    C     0.14087   0.53109   0.53131   0.00000  Uiso   1.00
C21    C     0.20343   0.66081   0.33150   0.00000  Uiso   1.00
C22    C     0.24065   0.69540   0.35704   0.00000  Uiso   1.00
C23    C     0.22675   0.74592   0.35958   0.00000  Uiso   1.00
H24    H     0.08102   0.64392   0.26605   0.00000  Uiso   1.00
H25    H     0.08440   0.60651   0.08489   0.00000  Uiso   1.00
H26    H     0.04296   0.59107   0.41247   0.00000  Uiso   1.00
H27    H     0.10188   0.73845   0.29464   0.00000  Uiso   1.00
H28    H     0.10991   0.55826   0.89385   0.00000  Uiso   1.00
H29    H     0.02254   0.52571   0.58459   0.00000  Uiso   1.00
H30    H     0.14679   0.83651   0.33612   0.00000  Uiso   1.00
H31    H     0.24879   0.59185   0.34149   0.00000  Uiso   1.00
H32    H     0.26137   0.55159   0.16446   0.00000  Uiso   1.00
H33    H     0.21993   0.53614   0.49205   0.00000  Uiso   1.00
H34    H     0.27886   0.68353   0.37421   0.00000  Uiso   1.00
H35    H     0.25354   0.51368   0.95844   0.00000  Uiso   1.00
H36    H     0.16617   0.48114   0.64918   0.00000  Uiso   1.00
H37    H     0.29042   0.79193   0.40070   0.00000  Uiso   1.00
O38    O     0.18697   0.51041   0.80834   0.00000  Uiso   1.00
O39    O     0.07234   0.46772   0.71457   0.00000  Uiso   1.00
O40    O     0.23536   0.87546   0.38858   0.00000  Uiso   1.00
N41    N     0.14199   0.55331   0.93334   0.00000  Uiso   1.00
N42    N     0.06030   0.52287   0.57913   0.00000  Uiso   1.00
N43    N     0.17646   0.81343   0.34685   0.00000  Uiso   1.00
N44    N     0.21928   0.52932   0.96809   0.00000  Uiso   1.00
N45    N     0.13759   0.49888   0.61388   0.00000  Uiso   1.00
N46    N     0.25375   0.78944   0.38161   0.00000  Uiso   1.00
C47    C     0.61946   0.13199   0.78333   0.00000  Uiso   1.00
C48    C     0.64456   0.10445   0.69536   0.00000  Uiso   1.00
C49    C     0.62261   0.09465   0.60204   0.00000  Uiso   1.00
C50    C     0.65181   0.06895   0.53162   0.00000  Uiso   1.00
C51    C     0.68326   0.02850   0.39167   0.00000  Uiso   1.00
C52    C     0.62204   0.09605   0.87334   0.00000  Uiso   1.00
C53    C     0.58116   0.07920   0.92966   0.00000  Uiso   1.00
C54    C     0.59141   0.04644   0.00907   0.00000  Uiso   1.00
C55    C     0.58791   0.99298   0.14548   0.00000  Uiso   1.00
C56    C     0.65406   0.17613   0.80930   0.00000  Uiso   1.00
C57    C     0.64009   0.22661   0.81182   0.00000  Uiso   1.00
C58    C     0.67729   0.26127   0.83734   0.00000  Uiso   1.00
C59    C     0.72350   0.33214   0.87433   0.00000  Uiso   1.00
C60    C     0.71035   0.10378   0.82420   0.00000  Uiso   1.00
C61    C     0.69393   0.08913   0.71757   0.00000  Uiso   1.00
C62    C     0.72317   0.06344   0.64726   0.00000  Uiso   1.00
C63    C     0.70126   0.05360   0.55386   0.00000  Uiso   1.00
C64    C     0.67141   0.08073   0.89554   0.00000  Uiso   1.00
C65    C     0.68172   0.04799   0.97488   0.00000  Uiso   1.00
C66    C     0.64087   0.03109   0.03131   0.00000  Uiso   1.00
C67    C     0.70343   0.16081   0.83150   0.00000  Uiso   1.00
C68    C     0.74065   0.19540   0.85704   0.00000  Uiso   1.00
C69    C     0.72675   0.24592   0.85958   0.00000  Uiso   1.00
H70    H     0.58102   0.14392   0.76605   0.00000  Uiso   1.00
H71    H     0.58440   0.10651   0.58489   0.00000  Uiso   1.00
H72    H     0.54296   0.09107   0.91247   0.00000  Uiso   1.00
H73    H     0.60188   0.23845   0.79464   0.00000  Uiso   1.00
H74    H     0.60991   0.05826   0.39385   0.00000  Uiso   1.00
H75    H     0.52254   0.02571   0.08459   0.00000  Uiso   1.00
H76    H     0.64679   0.33651   0.83612   0.00000  Uiso   1.00
H77    H     0.74879   0.09185   0.84149   0.00000  Uiso   1.00
H78    H     0.76137   0.05159   0.66446   0.00000  Uiso   1.00
H79    H     0.71993   0.03614   0.99205   0.00000  Uiso   1.00
H80    H     0.77886   0.18353   0.87421   0.00000  Uiso   1.00
H81    H     0.75354   0.01368   0.45844   0.00000  Uiso   1.00
H82    H     0.66617   0.98114   0.14918   0.00000  Uiso   1.00
H83    H     0.79042   0.29193   0.90070   0.00000  Uiso   1.00
O84    O     0.68697   0.01041   0.30834   0.00000  Uiso   1.00
O85    O     0.57234   0.96772   0.21457   0.00000  Uiso   1.00
O86    O     0.73536   0.37546   0.88858   0.00000  Uiso   1.00
N87    N     0.64199   0.05331   0.43334   0.00000  Uiso   1.00
N88    N     0.56030   0.02287   0.07913   0.00000  Uiso   1.00
N89    N     0.67646   0.31343   0.84685   0.00000  Uiso   1.00
N90    N     0.71928   0.02932   0.46809   0.00000  Uiso   1.00
N91    N     0.63759   0.99888   0.11388   0.00000  Uiso   1.00
N92    N     0.75375   0.28944   0.88161   0.00000  Uiso   1.00
C93    C     0.38054   0.86801   0.78333   0.00000  Uiso   1.00
C94    C     0.35544   0.89555   0.69536   0.00000  Uiso   1.00
C95    C     0.37739   0.90535   0.60204   0.00000  Uiso   1.00
C96    C     0.34819   0.93105   0.53162   0.00000  Uiso   1.00
C97    C     0.31674   0.97150   0.39167   0.00000  Uiso   1.00
C98    C     0.37796   0.90395   0.87334   0.00000  Uiso   1.00
C99    C     0.41884   0.92080   0.92966   0.00000  Uiso   1.00
C100   C     0.40859   0.95356   0.00907   0.00000  Uiso   1.00
C101   C     0.41209   0.00702   0.14548   0.00000  Uiso   1.00
C102   C     0.34594   0.82387   0.80930   0.00000  Uiso   1.00
C103   C     0.35991   0.77339   0.81182   0.00000  Uiso   1.00
C104   C     0.32271   0.73873   0.83734   0.00000  Uiso   1.00
C105   C     0.27650   0.66786   0.87433   0.00000  Uiso   1.00
C106   C     0.28965   0.89622   0.82420   0.00000  Uiso   1.00
C107   C     0.30607   0.91087   0.71757   0.00000  Uiso   1.00
C108   C     0.27683   0.93656   0.64726   0.00000  Uiso   1.00
C109   C     0.29874   0.94640   0.55386   0.00000  Uiso   1.00
C110   C     0.32859   0.91927   0.89554   0.00000  Uiso   1.00
C111   C     0.31828   0.95201   0.97488   0.00000  Uiso   1.00
C112   C     0.35913   0.96891   0.03131   0.00000  Uiso   1.00
C113   C     0.29657   0.83919   0.83150   0.00000  Uiso   1.00
C114   C     0.25935   0.80460   0.85704   0.00000  Uiso   1.00
C115   C     0.27325   0.75408   0.85958   0.00000  Uiso   1.00
H116   H     0.41898   0.85608   0.76605   0.00000  Uiso   1.00
H117   H     0.41560   0.89349   0.58489   0.00000  Uiso   1.00
H118   H     0.45704   0.90893   0.91247   0.00000  Uiso   1.00
H119   H     0.39812   0.76155   0.79464   0.00000  Uiso   1.00
H120   H     0.39009   0.94174   0.39385   0.00000  Uiso   1.00
H121   H     0.47746   0.97429   0.08459   0.00000  Uiso   1.00
H122   H     0.35321   0.66349   0.83612   0.00000  Uiso   1.00
H123   H     0.25121   0.90815   0.84149   0.00000  Uiso   1.00
H124   H     0.23863   0.94841   0.66446   0.00000  Uiso   1.00
H125   H     0.28007   0.96386   0.99205   0.00000  Uiso   1.00
H126   H     0.22114   0.81647   0.87421   0.00000  Uiso   1.00
H127   H     0.24646   0.98632   0.45844   0.00000  Uiso   1.00
H128   H     0.33383   0.01886   0.14918   0.00000  Uiso   1.00
H129   H     0.20958   0.70807   0.90070   0.00000  Uiso   1.00
O130   O     0.31303   0.98959   0.30834   0.00000  Uiso   1.00
O131   O     0.42766   0.03228   0.21457   0.00000  Uiso   1.00
O132   O     0.26464   0.62454   0.88858   0.00000  Uiso   1.00
N133   N     0.35801   0.94669   0.43334   0.00000  Uiso   1.00
N134   N     0.43970   0.97713   0.07913   0.00000  Uiso   1.00
N135   N     0.32354   0.68657   0.84685   0.00000  Uiso   1.00
N136   N     0.28072   0.97068   0.46809   0.00000  Uiso   1.00
N137   N     0.36241   0.00112   0.11388   0.00000  Uiso   1.00
N138   N     0.24625   0.71056   0.88161   0.00000  Uiso   1.00
C139   C     0.88054   0.36801   0.28333   0.00000  Uiso   1.00
C140   C     0.85544   0.39555   0.19536   0.00000  Uiso   1.00
C141   C     0.87739   0.40535   0.10204   0.00000  Uiso   1.00
C142   C     0.84819   0.43105   0.03162   0.00000  Uiso   1.00
C143   C     0.81674   0.47150   0.89167   0.00000  Uiso   1.00
C144   C     0.87796   0.40395   0.37334   0.00000  Uiso   1.00
C145   C     0.91884   0.42080   0.42966   0.00000  Uiso   1.00
C146   C     0.90859   0.45356   0.50907   0.00000  Uiso   1.00
C147   C     0.91209   0.50702   0.64548   0.00000  Uiso   1.00
C148   C     0.84594   0.32387   0.30930   0.00000  Uiso   1.00
C149   C     0.85991   0.27339   0.31182   0.00000  Uiso   1.00
C150   C     0.82271   0.23873   0.33734   0.00000  Uiso   1.00
C151   C     0.77650   0.16786   0.37433   0.00000  Uiso   1.00
C152   C     0.78965   0.39622   0.32420   0.00000  Uiso   1.00
C153   C     0.80607   0.41087   0.21757   0.00000  Uiso   1.00
C154   C     0.77683   0.43656   0.14726   0.00000  Uiso   1.00
C155   C     0.79874   0.44640   0.05386   0.00000  Uiso   1.00
C156   C     0.82859   0.41927   0.39554   0.00000  Uiso   1.00
C157   C     0.81828   0.45201   0.47488   0.00000  Uiso   1.00
C158   C     0.85913   0.46891   0.53131   0.00000  Uiso   1.00
C159   C     0.79657   0.33919   0.33150   0.00000  Uiso   1.00
C160   C     0.75935   0.30460   0.35704   0.00000  Uiso   1.00
C161   C     0.77325   0.25408   0.35958   0.00000  Uiso   1.00
H162   H     0.91898   0.35608   0.26605   0.00000  Uiso   1.00
H163   H     0.91560   0.39349   0.08489   0.00000  Uiso   1.00
H164   H     0.95704   0.40893   0.41247   0.00000  Uiso   1.00
H165   H     0.89812   0.26155   0.29464   0.00000  Uiso   1.00
H166   H     0.89009   0.44174   0.89385   0.00000  Uiso   1.00
H167   H     0.97746   0.47429   0.58459   0.00000  Uiso   1.00
H168   H     0.85321   0.16349   0.33612   0.00000  Uiso   1.00
H169   H     0.75121   0.40815   0.34149   0.00000  Uiso   1.00
H170   H     0.73863   0.44841   0.16446   0.00000  Uiso   1.00
H171   H     0.78007   0.46386   0.49205   0.00000  Uiso   1.00
H172   H     0.72114   0.31647   0.37421   0.00000  Uiso   1.00
H173   H     0.74646   0.48632   0.95844   0.00000  Uiso   1.00
H174   H     0.83383   0.51886   0.64918   0.00000  Uiso   1.00
H175   H     0.70958   0.20807   0.40070   0.00000  Uiso   1.00
O176   O     0.81303   0.48959   0.80834   0.00000  Uiso   1.00
O177   O     0.92766   0.53228   0.71457   0.00000  Uiso   1.00
O178   O     0.76464   0.12454   0.38858   0.00000  Uiso   1.00
N179   N     0.85801   0.44669   0.93334   0.00000  Uiso   1.00
N180   N     0.93970   0.47713   0.57913   0.00000  Uiso   1.00
N181   N     0.82354   0.18657   0.34685   0.00000  Uiso   1.00
N182   N     0.78072   0.47068   0.96809   0.00000  Uiso   1.00
N183   N     0.86241   0.50112   0.61388   0.00000  Uiso   1.00
N184   N     0.74625   0.21056   0.38161   0.00000  Uiso   1.00
C185   C     0.36801   0.61946   0.53333   0.00000  Uiso   1.00
C186   C     0.39555   0.64456   0.44536   0.00000  Uiso   1.00
C187   C     0.40535   0.62261   0.35204   0.00000  Uiso   1.00
C188   C     0.43105   0.65181   0.28162   0.00000  Uiso   1.00
C189   C     0.47150   0.68326   0.14167   0.00000  Uiso   1.00
C190   C     0.40395   0.62204   0.62334   0.00000  Uiso   1.00
C191   C     0.42080   0.58116   0.67966   0.00000  Uiso   1.00
C192   C     0.45356   0.59141   0.75907   0.00000  Uiso   1.00
C193   C     0.50702   0.58791   0.89548   0.00000  Uiso   1.00
C194   C     0.32387   0.65406   0.55930   0.00000  Uiso   1.00
C195   C     0.27339   0.64009   0.56182   0.00000  Uiso   1.00
C196   C     0.23873   0.67729   0.58734   0.00000  Uiso   1.00
C197   C     0.16786   0.72350   0.62433   0.00000  Uiso   1.00
C198   C     0.39622   0.71035   0.57420   0.00000  Uiso   1.00
C199   C     0.41087   0.69393   0.46757   0.00000  Uiso   1.00
C200   C     0.43656   0.72317   0.39726   0.00000  Uiso   1.00
C201   C     0.44640   0.70126   0.30386   0.00000  Uiso   1.00
C202   C     0.41927   0.67141   0.64554   0.00000  Uiso   1.00
C203   C     0.45201   0.68172   0.72488   0.00000  Uiso   1.00
C204   C     0.46891   0.64087   0.78131   0.00000  Uiso   1.00
C205   C     0.33919   0.70343   0.58150   0.00000  Uiso   1.00
C206   C     0.30460   0.74065   0.60704   0.00000  Uiso   1.00
C207   C     0.25408   0.72675   0.60958   0.00000  Uiso   1.00
H208   H     0.35608   0.58102   0.51605   0.00000  Uiso   1.00
H209   H     0.39349   0.58440   0.33489   0.00000  Uiso   1.00
H210   H     0.40893   0.54296   0.66247   0.00000  Uiso   1.00
H211   H     0.26155   0.60188   0.54464   0.00000  Uiso   1.00
H212   H     0.44174   0.60991   0.14385   0.00000  Uiso   1.00
H213   H     0.47429   0.52254   0.83459   0.00000  Uiso   1.00
H214   H     0.16349   0.64679   0.58612   0.00000  Uiso   1.00
H215   H     0.40815   0.74879   0.59149   0.00000  Uiso   1.00
H216   H     0.44841   0.76137   0.41446   0.00000  Uiso   1.00
H217   H     0.46386   0.71993   0.74205   0.00000  Uiso   1.00
H218   H     0.31647   0.77886   0.62421   0.00000  Uiso   1.00
H219   H     0.48632   0.75354   0.20844   0.00000  Uiso   1.00
H220   H     0.51886   0.66617   0.89918   0.00000  Uiso   1.00
H221   H     0.20807   0.79042   0.65070   0.00000  Uiso   1.00
O222   O     0.48959   0.68697   0.05834   0.00000  Uiso   1.00
O223   O     0.53228   0.57234   0.96457   0.00000  Uiso   1.00
O224   O     0.12454   0.73536   0.63858   0.00000  Uiso   1.00
N225   N     0.44669   0.64199   0.18334   0.00000  Uiso   1.00
N226   N     0.47713   0.56030   0.82913   0.00000  Uiso   1.00
N227   N     0.18657   0.67646   0.59685   0.00000  Uiso   1.00
N228   N     0.47068   0.71928   0.21809   0.00000  Uiso   1.00
N229   N     0.50112   0.63759   0.86388   0.00000  Uiso   1.00
N230   N     0.21056   0.75375   0.63161   0.00000  Uiso   1.00
C231   C     0.86801   0.11946   0.03333   0.00000  Uiso   1.00
C232   C     0.89555   0.14456   0.94536   0.00000  Uiso   1.00
C233   C     0.90535   0.12261   0.85204   0.00000  Uiso   1.00
C234   C     0.93105   0.15181   0.78162   0.00000  Uiso   1.00
C235   C     0.97150   0.18326   0.64167   0.00000  Uiso   1.00
C236   C     0.90395   0.12204   0.12334   0.00000  Uiso   1.00
C237   C     0.92080   0.08116   0.17966   0.00000  Uiso   1.00
C238   C     0.95356   0.09141   0.25907   0.00000  Uiso   1.00
C239   C     0.00702   0.08791   0.39548   0.00000  Uiso   1.00
C240   C     0.82387   0.15406   0.05930   0.00000  Uiso   1.00
C241   C     0.77339   0.14009   0.06182   0.00000  Uiso   1.00
C242   C     0.73873   0.17729   0.08734   0.00000  Uiso   1.00
C243   C     0.66786   0.22350   0.12433   0.00000  Uiso   1.00
C244   C     0.89622   0.21035   0.07420   0.00000  Uiso   1.00
C245   C     0.91087   0.19393   0.96757   0.00000  Uiso   1.00
C246   C     0.93656   0.22317   0.89726   0.00000  Uiso   1.00
C247   C     0.94640   0.20126   0.80386   0.00000  Uiso   1.00
C248   C     0.91927   0.17141   0.14554   0.00000  Uiso   1.00
C249   C     0.95201   0.18172   0.22488   0.00000  Uiso   1.00
C250   C     0.96891   0.14087   0.28131   0.00000  Uiso   1.00
C251   C     0.83919   0.20343   0.08150   0.00000  Uiso   1.00
C252   C     0.80460   0.24065   0.10704   0.00000  Uiso   1.00
C253   C     0.75408   0.22675   0.10958   0.00000  Uiso   1.00
H254   H     0.85608   0.08102   0.01605   0.00000  Uiso   1.00
H255   H     0.89349   0.08440   0.83489   0.00000  Uiso   1.00
H256   H     0.90893   0.04296   0.16247   0.00000  Uiso   1.00
H257   H     0.76155   0.10188   0.04464   0.00000  Uiso   1.00
H258   H     0.94174   0.10991   0.64385   0.00000  Uiso   1.00
H259   H     0.97429   0.02254   0.33459   0.00000  Uiso   1.00
H260   H     0.66349   0.14679   0.08612   0.00000  Uiso   1.00
H261   H     0.90815   0.24879   0.09149   0.00000  Uiso   1.00
H262   H     0.94841   0.26137   0.91446   0.00000  Uiso   1.00
H263   H     0.96386   0.21993   0.24205   0.00000  Uiso   1.00
H264   H     0.81647   0.27886   0.12421   0.00000  Uiso   1.00
H265   H     0.98632   0.25354   0.70844   0.00000  Uiso   1.00
H266   H     0.01886   0.16617   0.39918   0.00000  Uiso   1.00
H267   H     0.70807   0.29042   0.15070   0.00000  Uiso   1.00
O268   O     0.98959   0.18697   0.55834   0.00000  Uiso   1.00
O269   O     0.03228   0.07234   0.46457   0.00000  Uiso   1.00
O270   O     0.62454   0.23536   0.13858   0.00000  Uiso   1.00
N271   N     0.94669   0.14199   0.68334   0.00000  Uiso   1.00
N272   N     0.97713   0.06030   0.32913   0.00000  Uiso   1.00
N273   N     0.68657   0.17646   0.09685   0.00000  Uiso   1.00
N274   N     0.97068   0.21928   0.71809   0.00000  Uiso   1.00
N275   N     0.00112   0.13759   0.36388   0.00000  Uiso   1.00
N276   N     0.71056   0.25375   0.13161   0.00000  Uiso   1.00
C277   C     0.13199   0.88054   0.03333   0.00000  Uiso   1.00
C278   C     0.10445   0.85544   0.94536   0.00000  Uiso   1.00
C279   C     0.09465   0.87739   0.85204   0.00000  Uiso   1.00
C280   C     0.06895   0.84819   0.78162   0.00000  Uiso   1.00
C281   C     0.02850   0.81674   0.64167   0.00000  Uiso   1.00
C282   C     0.09605   0.87796   0.12334   0.00000  Uiso   1.00
C283   C     0.07920   0.91884   0.17966   0.00000  Uiso   1.00
C284   C     0.04644   0.90859   0.25907   0.00000  Uiso   1.00
C285   C     0.99298   0.91209   0.39548   0.00000  Uiso   1.00
C286   C     0.17613   0.84594   0.05930   0.00000  Uiso   1.00
C287   C     0.22661   0.85991   0.06182   0.00000  Uiso   1.00
C288   C     0.26127   0.82271   0.08734   0.00000  Uiso   1.00
C289   C     0.33214   0.77650   0.12433   0.00000  Uiso   1.00
C290   C     0.10378   0.78965   0.07420   0.00000  Uiso   1.00
C291   C     0.08913   0.80607   0.96757   0.00000  Uiso   1.00
C292   C     0.06344   0.77683   0.89726   0.00000  Uiso   1.00
C293   C     0.05360   0.79874   0.80386   0.00000  Uiso   1.00
C294   C     0.08073   0.82859   0.14554   0.00000  Uiso   1.00
C295   C     0.04799   0.81828   0.22488   0.00000  Uiso   1.00
C296   C     0.03109   0.85913   0.28131   0.00000  Uiso   1.00
C297   C     0.16081   0.79657   0.08150   0.00000  Uiso   1.00
C298   C     0.19540   0.75935   0.10704   0.00000  Uiso   1.00
C299   C     0.24592   0.77325   0.10958   0.00000  Uiso   1.00
H300   H     0.14392   0.91898   0.01605   0.00000  Uiso   1.00
H301   H     0.10651   0.91560   0.83489   0.00000  Uiso   1.00
H302   H     0.09107   0.95704   0.16247   0.00000  Uiso   1.00
H303   H     0.23845   0.89812   0.04464   0.00000  Uiso   1.00
H304   H     0.05826   0.89009   0.64385   0.00000  Uiso   1.00
H305   H     0.02571   0.97746   0.33459   0.00000  Uiso   1.00
H306   H     0.33651   0.85321   0.08612   0.00000  Uiso   1.00
H307   H     0.09185   0.75121   0.09149   0.00000  Uiso   1.00
H308   H     0.05159   0.73863   0.91446   0.00000  Uiso   1.00
H309   H     0.03614   0.78007   0.24205   0.00000  Uiso   1.00
H310   H     0.18353   0.72114   0.12421   0.00000  Uiso   1.00
H311   H     0.01368   0.74646   0.70844   0.00000  Uiso   1.00
H312   H     0.98114   0.83383   0.39918   0.00000  Uiso   1.00
H313   H     0.29193   0.70958   0.15070   0.00000  Uiso   1.00
O314   O     0.01041   0.81303   0.55834   0.00000  Uiso   1.00
O315   O     0.96772   0.92766   0.46457   0.00000  Uiso   1.00
O316   O     0.37546   0.76464   0.13858   0.00000  Uiso   1.00
N317   N     0.05331   0.85801   0.68334   0.00000  Uiso   1.00
N318   N     0.02287   0.93970   0.32913   0.00000  Uiso   1.00
N319   N     0.31343   0.82354   0.09685   0.00000  Uiso   1.00
N320   N     0.02932   0.78072   0.71809   0.00000  Uiso   1.00
N321   N     0.99888   0.86241   0.36388   0.00000  Uiso   1.00
N322   N     0.28944   0.74625   0.13161   0.00000  Uiso   1.00
C323   C     0.63199   0.38054   0.53333   0.00000  Uiso   1.00
C324   C     0.60445   0.35544   0.44536   0.00000  Uiso   1.00
C325   C     0.59465   0.37739   0.35204   0.00000  Uiso   1.00
C326   C     0.56895   0.34819   0.28162   0.00000  Uiso   1.00
C327   C     0.52850   0.31674   0.14167   0.00000  Uiso   1.00
C328   C     0.59605   0.37796   0.62334   0.00000  Uiso   1.00
C329   C     0.57920   0.41884   0.67966   0.00000  Uiso   1.00
C330   C     0.54644   0.40859   0.75907   0.00000  Uiso   1.00
C331   C     0.49298   0.41209   0.89548   0.00000  Uiso   1.00
C332   C     0.67613   0.34594   0.55930   0.00000  Uiso   1.00
C333   C     0.72661   0.35991   0.56182   0.00000  Uiso   1.00
C334   C     0.76127   0.32271   0.58734   0.00000  Uiso   1.00
C335   C     0.83214   0.27650   0.62433   0.00000  Uiso   1.00
C336   C     0.60378   0.28965   0.57420   0.00000  Uiso   1.00
C337   C     0.58913   0.30607   0.46757   0.00000  Uiso   1.00
C338   C     0.56344   0.27683   0.39726   0.00000  Uiso   1.00
C339   C     0.55360   0.29874   0.30386   0.00000  Uiso   1.00
C340   C     0.58073   0.32859   0.64554   0.00000  Uiso   1.00
C341   C     0.54799   0.31828   0.72488   0.00000  Uiso   1.00
C342   C     0.53109   0.35913   0.78131   0.00000  Uiso   1.00
C343   C     0.66081   0.29657   0.58150   0.00000  Uiso   1.00
C344   C     0.69540   0.25935   0.60704   0.00000  Uiso   1.00
C345   C     0.74592   0.27325   0.60958   0.00000  Uiso   1.00
H346   H     0.64392   0.41898   0.51605   0.00000  Uiso   1.00
H347   H     0.60651   0.41560   0.33489   0.00000  Uiso   1.00
H348   H     0.59107   0.45704   0.66247   0.00000  Uiso   1.00
H349   H     0.73845   0.39812   0.54464   0.00000  Uiso   1.00
H350   H     0.55826   0.39009   0.14385   0.00000  Uiso   1.00
H351   H     0.52571   0.47746   0.83459   0.00000  Uiso   1.00
H352   H     0.83651   0.35321   0.58612   0.00000  Uiso   1.00
H353   H     0.59185   0.25121   0.59149   0.00000  Uiso   1.00
H354   H     0.55159   0.23863   0.41446   0.00000  Uiso   1.00
H355   H     0.53614   0.28007   0.74205   0.00000  Uiso   1.00
H356   H     0.68353   0.22114   0.62421   0.00000  Uiso   1.00
H357   H     0.51368   0.24646   0.20844   0.00000  Uiso   1.00
H358   H     0.48114   0.33383   0.89918   0.00000  Uiso   1.00
H359   H     0.79193   0.20958   0.65070   0.00000  Uiso   1.00
O360   O     0.51041   0.31303   0.05834   0.00000  Uiso   1.00
O361   O     0.46772   0.42766   0.96457   0.00000  Uiso   1.00
O362   O     0.87546   0.26464   0.63858   0.00000  Uiso   1.00
N363   N     0.55331   0.35801   0.18334   0.00000  Uiso   1.00
N364   N     0.52287   0.43970   0.82913   0.00000  Uiso   1.00
N365   N     0.81343   0.32354   0.59685   0.00000  Uiso   1.00
N366   N     0.52932   0.28072   0.21809   0.00000  Uiso   1.00
N367   N     0.49888   0.36241   0.86388   0.00000  Uiso   1.00
N368   N     0.78944   0.24625   0.63161   0.00000  Uiso   1.00
C369   C     0.88054   0.86801   0.96667   0.00000  Uiso   1.00
C370   C     0.85544   0.89555   0.05464   0.00000  Uiso   1.00
C371   C     0.87739   0.90535   0.14796   0.00000  Uiso   1.00
C372   C     0.84819   0.93105   0.21838   0.00000  Uiso   1.00
C373   C     0.81674   0.97150   0.35833   0.00000  Uiso   1.00
C374   C     0.87796   0.90395   0.87666   0.00000  Uiso   1.00
C375   C     0.91884   0.92080   0.82034   0.00000  Uiso   1.00
C376   C     0.90859   0.95356   0.74093   0.00000  Uiso   1.00
C377   C     0.91209   0.00702   0.60452   0.00000  Uiso   1.00
C378   C     0.84594   0.82387   0.94070   0.00000  Uiso   1.00
C379   C     0.85991   0.77339   0.93818   0.00000  Uiso   1.00
C380   C     0.82271   0.73873   0.91266   0.00000  Uiso   1.00
C381   C     0.77650   0.66786   0.87567   0.00000  Uiso   1.00
C382   C     0.78965   0.89622   0.92580   0.00000  Uiso   1.00
C383   C     0.80607   0.91087   0.03243   0.00000  Uiso   1.00
C384   C     0.77683   0.93656   0.10274   0.00000  Uiso   1.00
C385   C     0.79874   0.94640   0.19614   0.00000  Uiso   1.00
C386   C     0.82859   0.91927   0.85446   0.00000  Uiso   1.00
C387   C     0.81828   0.95201   0.77512   0.00000  Uiso   1.00
C388   C     0.85913   0.96891   0.71869   0.00000  Uiso   1.00
C389   C     0.79657   0.83919   0.91850   0.00000  Uiso   1.00
C390   C     0.75935   0.80460   0.89296   0.00000  Uiso   1.00
C391   C     0.77325   0.75408   0.89042   0.00000  Uiso   1.00
H392   H     0.91898   0.85608   0.98395   0.00000  Uiso   1.00
H393   H     0.91560   0.89349   0.16511   0.00000  Uiso   1.00
H394   H     0.95704   0.90893   0.83753   0.00000  Uiso   1.00
H395   H     0.89812   0.76155   0.95536   0.00000  Uiso   1.00
H396   H     0.89009   0.94174   0.35615   0.00000  Uiso   1.00
H397   H     0.97746   0.97429   0.66541   0.00000  Uiso   1.00
H398   H     0.85321   0.66349   0.91388   0.00000  Uiso   1.00
H399   H     0.75121   0.90815   0.90851   0.00000  Uiso   1.00
H400   H     0.73863   0.94841   0.08554   0.00000  Uiso   1.00
H401   H     0.78007   0.96386   0.75795   0.00000  Uiso   1.00
H402   H     0.72114   0.81647   0.87579   0.00000  Uiso   1.00
H403   H     0.74646   0.98632   0.29156   0.00000  Uiso   1.00
H404   H     0.83383   0.01886   0.60082   0.00000  Uiso   1.00
H405   H     0.70958   0.70807   0.84930   0.00000  Uiso   1.00
O406   O     0.81303   0.98959   0.44166   0.00000  Uiso   1.00
O407   O     0.92766   0.03228   0.53543   0.00000  Uiso   1.00
O408   O     0.76464   0.62454   0.86142   0.00000  Uiso   1.00
N409   N     0.85801   0.94669   0.31666   0.00000  Uiso   1.00
N410   N     0.93970   0.97713   0.67087   0.00000  Uiso   1.00
N411   N     0.82354   0.68657   0.90315   0.00000  Uiso   1.00
N412   N     0.78072   0.97068   0.28191   0.00000  Uiso   1.00
N413   N     0.86241   0.00112   0.63612   0.00000  Uiso   1.00
N414   N     0.74625   0.71056   0.86839   0.00000  Uiso   1.00
C415   C     0.38054   0.36801   0.46667   0.00000  Uiso   1.00
C416   C     0.35544   0.39555   0.55464   0.00000  Uiso   1.00
C417   C     0.37739   0.40535   0.64796   0.00000  Uiso   1.00
C418   C     0.34819   0.43105   0.71838   0.00000  Uiso   1.00
C419   C     0.31674   0.47150   0.85833   0.00000  Uiso   1.00
C420   C     0.37796   0.40395   0.37666   0.00000  Uiso   1.00
C421   C     0.41884   0.42080   0.32034   0.00000  Uiso   1.00
C422   C     0.40859   0.45356   0.24093   0.00000  Uiso   1.00
C423   C     0.41209   0.50702   0.10452   0.00000  Uiso   1.00
C424   C     0.34594   0.32387   0.44070   0.00000  Uiso   1.00
C425   C     0.35991   0.27339   0.43818   0.00000  Uiso   1.00
C426   C     0.32271   0.23873   0.41266   0.00000  Uiso   1.00
C427   C     0.27650   0.16786   0.37567   0.00000  Uiso   1.00
C428   C     0.28965   0.39622   0.42580   0.00000  Uiso   1.00
C429   C     0.30607   0.41087   0.53243   0.00000  Uiso   1.00
C430   C     0.27683   0.43656   0.60274   0.00000  Uiso   1.00
C431   C     0.29874   0.44640   0.69614   0.00000  Uiso   1.00
C432   C     0.32859   0.41927   0.35446   0.00000  Uiso   1.00
C433   C     0.31828   0.45201   0.27512   0.00000  Uiso   1.00
C434   C     0.35913   0.46891   0.21869   0.00000  Uiso   1.00
C435   C     0.29657   0.33919   0.41850   0.00000  Uiso   1.00
C436   C     0.25935   0.30460   0.39296   0.00000  Uiso   1.00
C437   C     0.27325   0.25408   0.39042   0.00000  Uiso   1.00
H438   H     0.41898   0.35608   0.48395   0.00000  Uiso   1.00
H439   H     0.41560   0.39349   0.66511   0.00000  Uiso   1.00
H440   H     0.45704   0.40893   0.33753   0.00000  Uiso   1.00
H441   H     0.39812   0.26155   0.45536   0.00000  Uiso   1.00
H442   H     0.39009   0.44174   0.85615   0.00000  Uiso   1.00
H443   H     0.47746   0.47429   0.16541   0.00000  Uiso   1.00
H444   H     0.35321   0.16349   0.41388   0.00000  Uiso   1.00
H445   H     0.25121   0.40815   0.40851   0.00000  Uiso   1.00
H446   H     0.23863   0.44841   0.58554   0.00000  Uiso   1.00
H447   H     0.28007   0.46386   0.25795   0.00000  Uiso   1.00
H448   H     0.22114   0.31647   0.37579   0.00000  Uiso   1.00
H449   H     0.24646   0.48632   0.79156   0.00000  Uiso   1.00
H450   H     0.33383   0.51886   0.10082   0.00000  Uiso   1.00
H451   H     0.20958   0.20807   0.34930   0.00000  Uiso   1.00
O452   O     0.31303   0.48959   0.94166   0.00000  Uiso   1.00
O453   O     0.42766   0.53228   0.03543   0.00000  Uiso   1.00
O454   O     0.26464   0.12454   0.36142   0.00000  Uiso   1.00
N455   N     0.35801   0.44669   0.81666   0.00000  Uiso   1.00
N456   N     0.43970   0.47713   0.17087   0.00000  Uiso   1.00
N457   N     0.32354   0.18657   0.40315   0.00000  Uiso   1.00
N458   N     0.28072   0.47068   0.78191   0.00000  Uiso   1.00
N459   N     0.36241   0.50112   0.13612   0.00000  Uiso   1.00
N460   N     0.24625   0.21056   0.36839   0.00000  Uiso   1.00
C461   C     0.61946   0.63199   0.46667   0.00000  Uiso   1.00
C462   C     0.64456   0.60445   0.55464   0.00000  Uiso   1.00
C463   C     0.62261   0.59465   0.64796   0.00000  Uiso   1.00
C464   C     0.65181   0.56895   0.71838   0.00000  Uiso   1.00
C465   C     0.68326   0.52850   0.85833   0.00000  Uiso   1.00
C466   C     0.62204   0.59605   0.37666   0.00000  Uiso   1.00
C467   C     0.58116   0.57920   0.32034   0.00000  Uiso   1.00
C468   C     0.59141   0.54644   0.24093   0.00000  Uiso   1.00
C469   C     0.58791   0.49298   0.10452   0.00000  Uiso   1.00
C470   C     0.65406   0.67613   0.44070   0.00000  Uiso   1.00
C471   C     0.64009   0.72661   0.43818   0.00000  Uiso   1.00
C472   C     0.67729   0.76127   0.41266   0.00000  Uiso   1.00
C473   C     0.72350   0.83214   0.37567   0.00000  Uiso   1.00
C474   C     0.71035   0.60378   0.42580   0.00000  Uiso   1.00
C475   C     0.69393   0.58913   0.53243   0.00000  Uiso   1.00
C476   C     0.72317   0.56344   0.60274   0.00000  Uiso   1.00
C477   C     0.70126   0.55360   0.69614   0.00000  Uiso   1.00
C478   C     0.67141   0.58073   0.35446   0.00000  Uiso   1.00
C479   C     0.68172   0.54799   0.27512   0.00000  Uiso   1.00
C480   C     0.64087   0.53109   0.21869   0.00000  Uiso   1.00
C481   C     0.70343   0.66081   0.41850   0.00000  Uiso   1.00
C482   C     0.74065   0.69540   0.39296   0.00000  Uiso   1.00
C483   C     0.72675   0.74592   0.39042   0.00000  Uiso   1.00
H484   H     0.58102   0.64392   0.48395   0.00000  Uiso   1.00
H485   H     0.58440   0.60651   0.66511   0.00000  Uiso   1.00
H486   H     0.54296   0.59107   0.33753   0.00000  Uiso   1.00
H487   H     0.60188   0.73845   0.45536   0.00000  Uiso   1.00
H488   H     0.60991   0.55826   0.85615   0.00000  Uiso   1.00
H489   H     0.52254   0.52571   0.16541   0.00000  Uiso   1.00
H490   H     0.64679   0.83651   0.41388   0.00000  Uiso   1.00
H491   H     0.74879   0.59185   0.40851   0.00000  Uiso   1.00
H492   H     0.76137   0.55159   0.58554   0.00000  Uiso   1.00
H493   H     0.71993   0.53614   0.25795   0.00000  Uiso   1.00
H494   H     0.77886   0.68353   0.37579   0.00000  Uiso   1.00
H495   H     0.75354   0.51368   0.79156   0.00000  Uiso   1.00
H496   H     0.66617   0.48114   0.10082   0.00000  Uiso   1.00
H497   H     0.79042   0.79193   0.34930   0.00000  Uiso   1.00
O498   O     0.68697   0.51041   0.94166   0.00000  Uiso   1.00
O499   O     0.57234   0.46772   0.03543   0.00000  Uiso   1.00
O500   O     0.73536   0.87546   0.36142   0.00000  Uiso   1.00
N501   N     0.64199   0.55331   0.81666   0.00000  Uiso   1.00
N502   N     0.56030   0.52287   0.17087   0.00000  Uiso   1.00
N503   N     0.67646   0.81343   0.40315   0.00000  Uiso   1.00
N504   N     0.71928   0.52932   0.78191   0.00000  Uiso   1.00
N505   N     0.63759   0.49888   0.13612   0.00000  Uiso   1.00
N506   N     0.75375   0.78944   0.36839   0.00000  Uiso   1.00
C507   C     0.11946   0.13199   0.96667   0.00000  Uiso   1.00
C508   C     0.14456   0.10445   0.05464   0.00000  Uiso   1.00
C509   C     0.12261   0.09465   0.14796   0.00000  Uiso   1.00
C510   C     0.15181   0.06895   0.21838   0.00000  Uiso   1.00
C511   C     0.18326   0.02850   0.35833   0.00000  Uiso   1.00
C512   C     0.12204   0.09605   0.87666   0.00000  Uiso   1.00
C513   C     0.08116   0.07920   0.82034   0.00000  Uiso   1.00
C514   C     0.09141   0.04644   0.74093   0.00000  Uiso   1.00
C515   C     0.08791   0.99298   0.60452   0.00000  Uiso   1.00
C516   C     0.15406   0.17613   0.94070   0.00000  Uiso   1.00
C517   C     0.14009   0.22661   0.93818   0.00000  Uiso   1.00
C518   C     0.17729   0.26127   0.91266   0.00000  Uiso   1.00
C519   C     0.22350   0.33214   0.87567   0.00000  Uiso   1.00
C520   C     0.21035   0.10378   0.92580   0.00000  Uiso   1.00
C521   C     0.19393   0.08913   0.03243   0.00000  Uiso   1.00
C522   C     0.22317   0.06344   0.10274   0.00000  Uiso   1.00
C523   C     0.20126   0.05360   0.19614   0.00000  Uiso   1.00
C524   C     0.17141   0.08073   0.85446   0.00000  Uiso   1.00
C525   C     0.18172   0.04799   0.77512   0.00000  Uiso   1.00
C526   C     0.14087   0.03109   0.71869   0.00000  Uiso   1.00
C527   C     0.20343   0.16081   0.91850   0.00000  Uiso   1.00
C528   C     0.24065   0.19540   0.89296   0.00000  Uiso   1.00
C529   C     0.22675   0.24592   0.89042   0.00000  Uiso   1.00
H530   H     0.08102   0.14392   0.98395   0.00000  Uiso   1.00
H531   H     0.08440   0.10651   0.16511   0.00000  Uiso   1.00
H532   H     0.04296   0.09107   0.83753   0.00000  Uiso   1.00
H533   H     0.10188   0.23845   0.95536   0.00000  Uiso   1.00
H534   H     0.10991   0.05826   0.35615   0.00000  Uiso   1.00
H535   H     0.02254   0.02571   0.66541   0.00000  Uiso   1.00
H536   H     0.14679   0.33651   0.91388   0.00000  Uiso   1.00
H537   H     0.24879   0.09185   0.90851   0.00000  Uiso   1.00
H538   H     0.26137   0.05159   0.08554   0.00000  Uiso   1.00
H539   H     0.21993   0.03614   0.75795   0.00000  Uiso   1.00
H540   H     0.27886   0.18353   0.87579   0.00000  Uiso   1.00
H541   H     0.25354   0.01368   0.29156   0.00000  Uiso   1.00
H542   H     0.16617   0.98114   0.60082   0.00000  Uiso   1.00
H543   H     0.29042   0.29193   0.84930   0.00000  Uiso   1.00
O544   O     0.18697   0.01041   0.44166   0.00000  Uiso   1.00
O545   O     0.07234   0.96772   0.53543   0.00000  Uiso   1.00
O546   O     0.23536   0.37546   0.86142   0.00000  Uiso   1.00
N547   N     0.14199   0.05331   0.31666   0.00000  Uiso   1.00
N548   N     0.06030   0.02287   0.67087   0.00000  Uiso   1.00
N549   N     0.17646   0.31343   0.90315   0.00000  Uiso   1.00
N550   N     0.21928   0.02932   0.28191   0.00000  Uiso   1.00
N551   N     0.13759   0.99888   0.63612   0.00000  Uiso   1.00
N552   N     0.25375   0.28944   0.86839   0.00000  Uiso   1.00
C553   C     0.63199   0.88054   0.71667   0.00000  Uiso   1.00
C554   C     0.60445   0.85544   0.80464   0.00000  Uiso   1.00
C555   C     0.59465   0.87739   0.89796   0.00000  Uiso   1.00
C556   C     0.56895   0.84819   0.96838   0.00000  Uiso   1.00
C557   C     0.52850   0.81674   0.10833   0.00000  Uiso   1.00
C558   C     0.59605   0.87796   0.62666   0.00000  Uiso   1.00
C559   C     0.57920   0.91884   0.57034   0.00000  Uiso   1.00
C560   C     0.54644   0.90859   0.49093   0.00000  Uiso   1.00
C561   C     0.49298   0.91209   0.35452   0.00000  Uiso   1.00
C562   C     0.67613   0.84594   0.69070   0.00000  Uiso   1.00
C563   C     0.72661   0.85991   0.68818   0.00000  Uiso   1.00
C564   C     0.76127   0.82271   0.66266   0.00000  Uiso   1.00
C565   C     0.83214   0.77650   0.62567   0.00000  Uiso   1.00
C566   C     0.60378   0.78965   0.67580   0.00000  Uiso   1.00
C567   C     0.58913   0.80607   0.78243   0.00000  Uiso   1.00
C568   C     0.56344   0.77683   0.85274   0.00000  Uiso   1.00
C569   C     0.55360   0.79874   0.94614   0.00000  Uiso   1.00
C570   C     0.58073   0.82859   0.60446   0.00000  Uiso   1.00
C571   C     0.54799   0.81828   0.52512   0.00000  Uiso   1.00
C572   C     0.53109   0.85913   0.46869   0.00000  Uiso   1.00
C573   C     0.66081   0.79657   0.66850   0.00000  Uiso   1.00
C574   C     0.69540   0.75935   0.64296   0.00000  Uiso   1.00
C575   C     0.74592   0.77325   0.64042   0.00000  Uiso   1.00
H576   H     0.64392   0.91898   0.73395   0.00000  Uiso   1.00
H577   H     0.60651   0.91560   0.91511   0.00000  Uiso   1.00
H578   H     0.59107   0.95704   0.58753   0.00000  Uiso   1.00
H579   H     0.73845   0.89812   0.70536   0.00000  Uiso   1.00
H580   H     0.55826   0.89009   0.10615   0.00000  Uiso   1.00
H581   H     0.52571   0.97746   0.41541   0.00000  Uiso   1.00
H582   H     0.83651   0.85321   0.66388   0.00000  Uiso   1.00
H583   H     0.59185   0.75121   0.65851   0.00000  Uiso   1.00
H584   H     0.55159   0.73863   0.83554   0.00000  Uiso   1.00
H585   H     0.53614   0.78007   0.50795   0.00000  Uiso   1.00
H586   H     0.68353   0.72114   0.62579   0.00000  Uiso   1.00
H587   H     0.51368   0.74646   0.04156   0.00000  Uiso   1.00
H588   H     0.48114   0.83383   0.35082   0.00000  Uiso   1.00
H589   H     0.79193   0.70958   0.59930   0.00000  Uiso   1.00
O590   O     0.51041   0.81303   0.19166   0.00000  Uiso   1.00
O591   O     0.46772   0.92766   0.28543   0.00000  Uiso   1.00
O592   O     0.87546   0.76464   0.61142   0.00000  Uiso   1.00
N593   N     0.55331   0.85801   0.06666   0.00000  Uiso   1.00
N594   N     0.52287   0.93970   0.42087   0.00000  Uiso   1.00
N595   N     0.81343   0.82354   0.65315   0.00000  Uiso   1.00
N596   N     0.52932   0.78072   0.03191   0.00000  Uiso   1.00
N597   N     0.49888   0.86241   0.38612   0.00000  Uiso   1.00
N598   N     0.78944   0.74625   0.61839   0.00000  Uiso   1.00
C599   C     0.13199   0.38054   0.21667   0.00000  Uiso   1.00
C600   C     0.10445   0.35544   0.30464   0.00000  Uiso   1.00
C601   C     0.09465   0.37739   0.39796   0.00000  Uiso   1.00
C602   C     0.06895   0.34819   0.46838   0.00000  Uiso   1.00
C603   C     0.02850   0.31674   0.60833   0.00000  Uiso   1.00
C604   C     0.09605   0.37796   0.12666   0.00000  Uiso   1.00
C605   C     0.07920   0.41884   0.07034   0.00000  Uiso   1.00
C606   C     0.04644   0.40859   0.99093   0.00000  Uiso   1.00
C607   C     0.99298   0.41209   0.85452   0.00000  Uiso   1.00
C608   C     0.17613   0.34594   0.19070   0.00000  Uiso   1.00
C609   C     0.22661   0.35991   0.18818   0.00000  Uiso   1.00
C610   C     0.26127   0.32271   0.16266   0.00000  Uiso   1.00
C611   C     0.33214   0.27650   0.12567   0.00000  Uiso   1.00
C612   C     0.10378   0.28965   0.17580   0.00000  Uiso   1.00
C613   C     0.08913   0.30607   0.28243   0.00000  Uiso   1.00
C614   C     0.06344   0.27683   0.35274   0.00000  Uiso   1.00
C615   C     0.05360   0.29874   0.44614   0.00000  Uiso   1.00
C616   C     0.08073   0.32859   0.10446   0.00000  Uiso   1.00
C617   C     0.04799   0.31828   0.02512   0.00000  Uiso   1.00
C618   C     0.03109   0.35913   0.96869   0.00000  Uiso   1.00
C619   C     0.16081   0.29657   0.16850   0.00000  Uiso   1.00
C620   C     0.19540   0.25935   0.14296   0.00000  Uiso   1.00
C621   C     0.24592   0.27325   0.14042   0.00000  Uiso   1.00
H622   H     0.14392   0.41898   0.23395   0.00000  Uiso   1.00
H623   H     0.10651   0.41560   0.41511   0.00000  Uiso   1.00
H624   H     0.09107   0.45704   0.08753   0.00000  Uiso   1.00
H625   H     0.23845   0.39812   0.20536   0.00000  Uiso   1.00
H626   H     0.05826   0.39009   0.60615   0.00000  Uiso   1.00
H627   H     0.02571   0.47746   0.91541   0.00000  Uiso   1.00
H628   H     0.33651   0.35321   0.16388   0.00000  Uiso   1.00
H629   H     0.09185   0.25121   0.15851   0.00000  Uiso   1.00
H630   H     0.05159   0.23863   0.33554   0.00000  Uiso   1.00
H631   H     0.03614   0.28007   0.00795   0.00000  Uiso   1.00
H632   H     0.18353   0.22114   0.12579   0.00000  Uiso   1.00
H633   H     0.01368   0.24646   0.54156   0.00000  Uiso   1.00
H634   H     0.98114   0.33383   0.85082   0.00000  Uiso   1.00
H635   H     0.29193   0.20958   0.09930   0.00000  Uiso   1.00
O636   O     0.01041   0.31303   0.69166   0.00000  Uiso   1.00
O637   O     0.96772   0.42766   0.78543   0.00000  Uiso   1.00
O638   O     0.37546   0.26464   0.11142   0.00000  Uiso   1.00
N639   N     0.05331   0.35801   0.56666   0.00000  Uiso   1.00
N640   N     0.02287   0.43970   0.92087   0.00000  Uiso   1.00
N641   N     0.31343   0.32354   0.15315   0.00000  Uiso   1.00
N642   N     0.02932   0.28072   0.53191   0.00000  Uiso   1.00
N643   N     0.99888   0.36241   0.88612   0.00000  Uiso   1.00
N644   N     0.28944   0.24625   0.11839   0.00000  Uiso   1.00
C645   C     0.86801   0.61946   0.21667   0.00000  Uiso   1.00
C646   C     0.89555   0.64456   0.30464   0.00000  Uiso   1.00
C647   C     0.90535   0.62261   0.39796   0.00000  Uiso   1.00
C648   C     0.93105   0.65181   0.46838   0.00000  Uiso   1.00
C649   C     0.97150   0.68326   0.60833   0.00000  Uiso   1.00
C650   C     0.90395   0.62204   0.12666   0.00000  Uiso   1.00
C651   C     0.92080   0.58116   0.07034   0.00000  Uiso   1.00
C652   C     0.95356   0.59141   0.99093   0.00000  Uiso   1.00
C653   C     0.00702   0.58791   0.85452   0.00000  Uiso   1.00
C654   C     0.82387   0.65406   0.19070   0.00000  Uiso   1.00
C655   C     0.77339   0.64009   0.18818   0.00000  Uiso   1.00
C656   C     0.73873   0.67729   0.16266   0.00000  Uiso   1.00
C657   C     0.66786   0.72350   0.12567   0.00000  Uiso   1.00
C658   C     0.89622   0.71035   0.17580   0.00000  Uiso   1.00
C659   C     0.91087   0.69393   0.28243   0.00000  Uiso   1.00
C660   C     0.93656   0.72317   0.35274   0.00000  Uiso   1.00
C661   C     0.94640   0.70126   0.44614   0.00000  Uiso   1.00
C662   C     0.91927   0.67141   0.10446   0.00000  Uiso   1.00
C663   C     0.95201   0.68172   0.02512   0.00000  Uiso   1.00
C664   C     0.96891   0.64087   0.96869   0.00000  Uiso   1.00
C665   C     0.83919   0.70343   0.16850   0.00000  Uiso   1.00
C666   C     0.80460   0.74065   0.14296   0.00000  Uiso   1.00
C667   C     0.75408   0.72675   0.14042   0.00000  Uiso   1.00
H668   H     0.85608   0.58102   0.23395   0.00000  Uiso   1.00
H669   H     0.89349   0.58440   0.41511   0.00000  Uiso   1.00
H670   H     0.90893   0.54296   0.08753   0.00000  Uiso   1.00
H671   H     0.76155   0.60188   0.20536   0.00000  Uiso   1.00
H672   H     0.94174   0.60991   0.60615   0.00000  Uiso   1.00
H673   H     0.97429   0.52254   0.91541   0.00000  Uiso   1.00
H674   H     0.66349   0.64679   0.16388   0.00000  Uiso   1.00
H675   H     0.90815   0.74879   0.15851   0.00000  Uiso   1.00
H676   H     0.94841   0.76137   0.33554   0.00000  Uiso   1.00
H677   H     0.96386   0.71993   0.00795   0.00000  Uiso   1.00
H678   H     0.81647   0.77886   0.12579   0.00000  Uiso   1.00
H679   H     0.98632   0.75354   0.54156   0.00000  Uiso   1.00
H680   H     0.01886   0.66617   0.85082   0.00000  Uiso   1.00
H681   H     0.70807   0.79042   0.09930   0.00000  Uiso   1.00
O682   O     0.98959   0.68697   0.69166   0.00000  Uiso   1.00
O683   O     0.03228   0.57234   0.78543   0.00000  Uiso   1.00
O684   O     0.62454   0.73536   0.11142   0.00000  Uiso   1.00
N685   N     0.94669   0.64199   0.56666   0.00000  Uiso   1.00
N686   N     0.97713   0.56030   0.92087   0.00000  Uiso   1.00
N687   N     0.68657   0.67646   0.15315   0.00000  Uiso   1.00
N688   N     0.97068   0.71928   0.53191   0.00000  Uiso   1.00
N689   N     0.00112   0.63759   0.88612   0.00000  Uiso   1.00
N690   N     0.71056   0.75375   0.11839   0.00000  Uiso   1.00
C691   C     0.36801   0.11946   0.71667   0.00000  Uiso   1.00
C692   C     0.39555   0.14456   0.80464   0.00000  Uiso   1.00
C693   C     0.40535   0.12261   0.89796   0.00000  Uiso   1.00
C694   C     0.43105   0.15181   0.96838   0.00000  Uiso   1.00
C695   C     0.47150   0.18326   0.10833   0.00000  Uiso   1.00
C696   C     0.40395   0.12204   0.62666   0.00000  Uiso   1.00
C697   C     0.42080   0.08116   0.57034   0.00000  Uiso   1.00
C698   C     0.45356   0.09141   0.49093   0.00000  Uiso   1.00
C699   C     0.50702   0.08791   0.35452   0.00000  Uiso   1.00
C700   C     0.32387   0.15406   0.69070   0.00000  Uiso   1.00
C701   C     0.27339   0.14009   0.68818   0.00000  Uiso   1.00
C702   C     0.23873   0.17729   0.66266   0.00000  Uiso   1.00
C703   C     0.16786   0.22350   0.62567   0.00000  Uiso   1.00
C704   C     0.39622   0.21035   0.67580   0.00000  Uiso   1.00
C705   C     0.41087   0.19393   0.78243   0.00000  Uiso   1.00
C706   C     0.43656   0.22317   0.85274   0.00000  Uiso   1.00
C707   C     0.44640   0.20126   0.94614   0.00000  Uiso   1.00
C708   C     0.41927   0.17141   0.60446   0.00000  Uiso   1.00
C709   C     0.45201   0.18172   0.52512   0.00000  Uiso   1.00
C710   C     0.46891   0.14087   0.46869   0.00000  Uiso   1.00
C711   C     0.33919   0.20343   0.66850   0.00000  Uiso   1.00
C712   C     0.30460   0.24065   0.64296   0.00000  Uiso   1.00
C713   C     0.25408   0.22675   0.64042   0.00000  Uiso   1.00
H714   H     0.35608   0.08102   0.73395   0.00000  Uiso   1.00
H715   H     0.39349   0.08440   0.91511   0.00000  Uiso   1.00
H716   H     0.40893   0.04296   0.58753   0.00000  Uiso   1.00
H717   H     0.26155   0.10188   0.70536   0.00000  Uiso   1.00
H718   H     0.44174   0.10991   0.10615   0.00000  Uiso   1.00
H719   H     0.47429   0.02254   0.41541   0.00000  Uiso   1.00
H720   H     0.16349   0.14679   0.66388   0.00000  Uiso   1.00
H721   H     0.40815   0.24879   0.65851   0.00000  Uiso   1.00
H722   H     0.44841   0.26137   0.83554   0.00000  Uiso   1.00
H723   H     0.46386   0.21993   0.50795   0.00000  Uiso   1.00
H724   H     0.31647   0.27886   0.62579   0.00000  Uiso   1.00
H725   H     0.48632   0.25354   0.04156   0.00000  Uiso   1.00
H726   H     0.51886   0.16617   0.35082   0.00000  Uiso   1.00
H727   H     0.20807   0.29042   0.59930   0.00000  Uiso   1.00
O728   O     0.48959   0.18697   0.19166   0.00000  Uiso   1.00
O729   O     0.53228   0.07234   0.28543   0.00000  Uiso   1.00
O730   O     0.12454   0.23536   0.61142   0.00000  Uiso   1.00
N731   N     0.44669   0.14199   0.06666   0.00000  Uiso   1.00
N732   N     0.47713   0.06030   0.42087   0.00000  Uiso   1.00
N733   N     0.18657   0.17646   0.65315   0.00000  Uiso   1.00
N734   N     0.47068   0.21928   0.03191   0.00000  Uiso   1.00
N735   N     0.50112   0.13759   0.38612   0.00000  Uiso   1.00
N736   N     0.21056   0.25375   0.61839   0.00000  Uiso   1.00
