data_job_07060
_audit_creation_date              2018-12-19
_audit_creation_method            'Materials Studio'
_symmetry_space_group_name_H-M    'P1'
_symmetry_Int_Tables_number       1
_symmetry_cell_setting            triclinic
loop_
_symmetry_equiv_pos_as_xyz
  x,y,z
_cell_length_a                    33.9333
_cell_length_b                    33.0691
_cell_length_c                    22.3170
_cell_angle_alpha                 90.0000
_cell_angle_beta                  58.9499
_cell_angle_gamma                 90.0000
loop_
_atom_site_label
_atom_site_type_symbol
_atom_site_fract_x
_atom_site_fract_y
_atom_site_fract_z
_atom_site_U_iso_or_equiv
_atom_site_adp_type
_atom_site_occupancy
C1     C     0.60342   0.03601   0.38762   0.00000  Uiso   1.00
C2     C     0.64975   0.05679   0.34239   0.00000  Uiso   1.00
C3     C     0.65703   0.09824   0.33468   0.00000  Uiso   1.00
C4     C     0.70197   0.11124   0.29091   0.00000  Uiso   1.00
C5     C     0.76837   0.14769   0.22594   0.00000  Uiso   1.00
C6     C     0.59727   0.00790   0.33887   0.00000  Uiso   1.00
C7     C     0.56043   0.00824   0.32822   0.00000  Uiso   1.00
C8     C     0.56119   0.98007   0.28150   0.00000  Uiso   1.00
C9     C     0.54611   0.94059   0.21112   0.00000  Uiso   1.00
C10    C     0.60906   0.00865   0.43770   0.00000  Uiso   1.00
C11    C     0.58212   0.00962   0.51015   0.00000  Uiso   1.00
C12    C     0.59280   0.98208   0.54663   0.00000  Uiso   1.00
C13    C     0.59602   0.94377   0.62969   0.00000  Uiso   1.00
C14    C     0.67028   0.98538   0.32358   0.00000  Uiso   1.00
C15    C     0.68606   0.02929   0.30761   0.00000  Uiso   1.00
C16    C     0.73100   0.04223   0.26384   0.00000  Uiso   1.00
C17    C     0.73835   0.08369   0.25607   0.00000  Uiso   1.00
C18    C     0.63358   0.98040   0.30409   0.00000  Uiso   1.00
C19    C     0.63440   0.95222   0.25738   0.00000  Uiso   1.00
C20    C     0.59757   0.95252   0.24666   0.00000  Uiso   1.00
C21    C     0.64537   0.98115   0.40292   0.00000  Uiso   1.00
C22    C     0.65609   0.95360   0.43930   0.00000  Uiso   1.00
C23    C     0.62918   0.95453   0.51179   0.00000  Uiso   1.00
H24    H     0.57515   0.05742   0.41469   0.00000  Uiso   1.00
H25    H     0.62892   0.11952   0.36160   0.00000  Uiso   1.00
H26    H     0.53233   0.02952   0.35515   0.00000  Uiso   1.00
H27    H     0.55402   0.03090   0.53705   0.00000  Uiso   1.00
H28    H     0.70455   0.17623   0.28738   0.00000  Uiso   1.00
H29    H     0.50087   0.98647   0.27380   0.00000  Uiso   1.00
H30    H     0.54661   0.98937   0.65736   0.00000  Uiso   1.00
H31    H     0.69855   0.96397   0.29650   0.00000  Uiso   1.00
H32    H     0.75909   0.02094   0.23693   0.00000  Uiso   1.00
H33    H     0.66250   0.93095   0.23047   0.00000  Uiso   1.00
H34    H     0.68419   0.93233   0.41237   0.00000  Uiso   1.00
H35    H     0.81020   0.09623   0.18619   0.00000  Uiso   1.00
H36    H     0.60652   0.90646   0.17261   0.00000  Uiso   1.00
H37    H     0.65227   0.90936   0.55616   0.00000  Uiso   1.00
O38    O     0.79497   0.17539   0.19971   0.00000  Uiso   1.00
O39    O     0.52776   0.92642   0.18190   0.00000  Uiso   1.00
O40    O     0.58777   0.93023   0.68512   0.00000  Uiso   1.00
N41    N     0.72110   0.14959   0.27175   0.00000  Uiso   1.00
N42    N     0.53069   0.97217   0.25905   0.00000  Uiso   1.00
N43    N     0.57344   0.97488   0.61764   0.00000  Uiso   1.00
N44    N     0.77795   0.10653   0.21730   0.00000  Uiso   1.00
N45    N     0.58754   0.92912   0.20459   0.00000  Uiso   1.00
N46    N     0.63029   0.93183   0.56319   0.00000  Uiso   1.00
C47    C     0.46718   0.36118   0.37478   0.00000  Uiso   1.00
C48    C     0.49352   0.32670   0.38377   0.00000  Uiso   1.00
C49    C     0.47735   0.30246   0.44265   0.00000  Uiso   1.00
C50    C     0.50672   0.27254   0.44060   0.00000  Uiso   1.00
C51    C     0.54095   0.21983   0.46352   0.00000  Uiso   1.00
C52    C     0.49747   0.39859   0.35737   0.00000  Uiso   1.00
C53    C     0.48461   0.43480   0.39405   0.00000  Uiso   1.00
C54    C     0.51730   0.46539   0.36977   0.00000  Uiso   1.00
C55    C     0.55765   0.52431   0.35168   0.00000  Uiso   1.00
C56    C     0.46599   0.35138   0.30896   0.00000  Uiso   1.00
C57    C     0.42666   0.34792   0.30493   0.00000  Uiso   1.00
C58    C     0.43285   0.33879   0.23989   0.00000  Uiso   1.00
C59    C     0.42432   0.32441   0.14663   0.00000  Uiso   1.00
C60    C     0.54810   0.35113   0.26644   0.00000  Uiso   1.00
C61    C     0.53748   0.32124   0.32493   0.00000  Uiso   1.00
C62    C     0.56688   0.29134   0.32279   0.00000  Uiso   1.00
C63    C     0.55075   0.26707   0.38165   0.00000  Uiso   1.00
C64    C     0.54142   0.39313   0.29853   0.00000  Uiso   1.00
C65    C     0.57414   0.42367   0.27419   0.00000  Uiso   1.00
C66    C     0.56133   0.45992   0.31082   0.00000  Uiso   1.00
C67    C     0.50994   0.34592   0.25012   0.00000  Uiso   1.00
C68    C     0.51619   0.33679   0.18507   0.00000  Uiso   1.00
C69    C     0.47688   0.33332   0.18094   0.00000  Uiso   1.00
H70    H     0.43296   0.36544   0.42059   0.00000  Uiso   1.00
H71    H     0.44333   0.30670   0.48818   0.00000  Uiso   1.00
H72    H     0.45059   0.43902   0.43958   0.00000  Uiso   1.00
H73    H     0.39266   0.35215   0.35048   0.00000  Uiso   1.00
H74    H     0.47423   0.23918   0.53717   0.00000  Uiso   1.00
H75    H     0.48953   0.51818   0.43468   0.00000  Uiso   1.00
H76    H     0.36736   0.33501   0.24679   0.00000  Uiso   1.00
H77    H     0.58232   0.34688   0.22063   0.00000  Uiso   1.00
H78    H     0.60089   0.28712   0.27724   0.00000  Uiso   1.00
H79    H     0.60815   0.41944   0.22865   0.00000  Uiso   1.00
H80    H     0.55021   0.33257   0.13954   0.00000  Uiso   1.00
H81    H     0.60211   0.22329   0.36597   0.00000  Uiso   1.00
H82    H     0.61741   0.50229   0.26348   0.00000  Uiso   1.00
H83    H     0.49524   0.31911   0.07559   0.00000  Uiso   1.00
O84    O     0.54770   0.19227   0.49243   0.00000  Uiso   1.00
O85    O     0.56776   0.55831   0.35796   0.00000  Uiso   1.00
O86    O     0.40748   0.31798   0.11145   0.00000  Uiso   1.00
N87    N     0.50177   0.24364   0.48910   0.00000  Uiso   1.00
N88    N     0.51608   0.50449   0.39329   0.00000  Uiso   1.00
N89    N     0.40186   0.33324   0.21762   0.00000  Uiso   1.00
N90    N     0.57058   0.23509   0.39698   0.00000  Uiso   1.00
N91    N     0.58489   0.49593   0.30117   0.00000  Uiso   1.00
N92    N     0.47067   0.32469   0.12550   0.00000  Uiso   1.00
C93    C     0.67227   0.26776   0.65678   0.00000  Uiso   1.00
C94    C     0.68094   0.25878   0.58392   0.00000  Uiso   1.00
C95    C     0.64934   0.24226   0.56903   0.00000  Uiso   1.00
C96    C     0.66393   0.23637   0.49900   0.00000  Uiso   1.00
C97    C     0.67061   0.22084   0.39395   0.00000  Uiso   1.00
C98    C     0.70930   0.24491   0.66233   0.00000  Uiso   1.00
C99    C     0.70154   0.21673   0.71337   0.00000  Uiso   1.00
C100   C     0.74001   0.19917   0.70935   0.00000  Uiso   1.00
C101   C     0.79072   0.16213   0.72606   0.00000  Uiso   1.00
C102   C     0.68283   0.31256   0.65701   0.00000  Uiso   1.00
C103   C     0.65284   0.34126   0.70359   0.00000  Uiso   1.00
C104   C     0.66903   0.38066   0.69509   0.00000  Uiso   1.00
C105   C     0.67865   0.44866   0.70354   0.00000  Uiso   1.00
C106   C     0.75436   0.28669   0.55888   0.00000  Uiso   1.00
C107   C     0.72553   0.26906   0.53074   0.00000  Uiso   1.00
C108   C     0.74017   0.26320   0.46071   0.00000  Uiso   1.00
C109   C     0.70860   0.24667   0.44572   0.00000  Uiso   1.00
C110   C     0.75389   0.25519   0.60915   0.00000  Uiso   1.00
C111   C     0.79237   0.23767   0.60505   0.00000  Uiso   1.00
C112   C     0.78468   0.20947   0.65607   0.00000  Uiso   1.00
C113   C     0.72743   0.32284   0.60383   0.00000  Uiso   1.00
C114   C     0.74367   0.36220   0.59526   0.00000  Uiso   1.00
C115   C     0.71370   0.39096   0.64182   0.00000  Uiso   1.00
H116   H     0.63755   0.25975   0.69819   0.00000  Uiso   1.00
H117   H     0.61484   0.23430   0.61020   0.00000  Uiso   1.00
H118   H     0.66703   0.20878   0.75452   0.00000  Uiso   1.00
H119   H     0.61833   0.33329   0.74473   0.00000  Uiso   1.00
H120   H     0.60932   0.21060   0.48921   0.00000  Uiso   1.00
H121   H     0.71937   0.15680   0.79353   0.00000  Uiso   1.00
H122   H     0.61668   0.41936   0.77289   0.00000  Uiso   1.00
H123   H     0.78908   0.29470   0.51748   0.00000  Uiso   1.00
H124   H     0.77468   0.27116   0.41957   0.00000  Uiso   1.00
H125   H     0.82687   0.24564   0.56389   0.00000  Uiso   1.00
H126   H     0.77817   0.37015   0.55411   0.00000  Uiso   1.00
H127   H     0.73906   0.24052   0.33448   0.00000  Uiso   1.00
H128   H     0.84911   0.18672   0.63881   0.00000  Uiso   1.00
H129   H     0.24642   0.94928   0.61817   0.00000  Uiso   1.00
O130   O     0.66198   0.20943   0.35070   0.00000  Uiso   1.00
O131   O     0.80637   0.13886   0.74997   0.00000  Uiso   1.00
O132   O     0.67164   0.48332   0.72289   0.00000  Uiso   1.00
N133   N     0.64183   0.22088   0.46623   0.00000  Uiso   1.00
N134   N     0.74472   0.17058   0.75074   0.00000  Uiso   1.00
N135   N     0.64872   0.41604   0.73146   0.00000  Uiso   1.00
N136   N     0.71164   0.23698   0.38297   0.00000  Uiso   1.00
N137   N     0.81453   0.18668   0.66749   0.00000  Uiso   1.00
N138   N     0.71853   0.43214   0.64821   0.00000  Uiso   1.00
C139   C     0.33732   0.46170   0.50481   0.00000  Uiso   1.00
C140   C     0.29134   0.44026   0.54932   0.00000  Uiso   1.00
C141   C     0.28476   0.39870   0.55591   0.00000  Uiso   1.00
C142   C     0.24003   0.38506   0.59917   0.00000  Uiso   1.00
C143   C     0.17422   0.34767   0.66292   0.00000  Uiso   1.00
C144   C     0.34287   0.48957   0.55442   0.00000  Uiso   1.00
C145   C     0.37962   0.48948   0.56528   0.00000  Uiso   1.00
C146   C     0.37828   0.51736   0.61282   0.00000  Uiso   1.00
C147   C     0.39249   0.55655   0.68445   0.00000  Uiso   1.00
C148   C     0.33134   0.48930   0.45533   0.00000  Uiso   1.00
C149   C     0.35841   0.48900   0.38288   0.00000  Uiso   1.00
C150   C     0.34737   0.51666   0.34700   0.00000  Uiso   1.00
C151   C     0.84369   0.05542   0.26478   0.00000  Uiso   1.00
C152   C     0.76958   0.01137   0.56992   0.00000  Uiso   1.00
C153   C     0.75454   0.96724   0.58468   0.00000  Uiso   1.00
C154   C     0.70981   0.95366   0.62794   0.00000  Uiso   1.00
C155   C     0.70317   0.91209   0.63459   0.00000  Uiso   1.00
C156   C     0.80608   0.01655   0.58978   0.00000  Uiso   1.00
C157   C     0.80468   0.04444   0.63731   0.00000  Uiso   1.00
C158   C     0.84142   0.04439   0.64825   0.00000  Uiso   1.00
C159   C     0.79455   0.01628   0.49069   0.00000  Uiso   1.00
C160   C     0.78347   0.04395   0.45492   0.00000  Uiso   1.00
C161   C     0.81051   0.04368   0.38243   0.00000  Uiso   1.00
H162   H     0.36597   0.44069   0.47728   0.00000  Uiso   1.00
H163   H     0.31324   0.37783   0.52853   0.00000  Uiso   1.00
H164   H     0.40809   0.46860   0.53790   0.00000  Uiso   1.00
H165   H     0.38688   0.46811   0.35553   0.00000  Uiso   1.00
H166   H     0.23856   0.32004   0.60097   0.00000  Uiso   1.00
H167   H     0.43857   0.51144   0.62070   0.00000  Uiso   1.00
H168   H     0.39384   0.51041   0.23614   0.00000  Uiso   1.00
H169   H     0.74094   0.03238   0.59746   0.00000  Uiso   1.00
H170   H     0.68135   0.97454   0.65530   0.00000  Uiso   1.00
H171   H     0.77620   0.06531   0.66467   0.00000  Uiso   1.00
H172   H     0.75499   0.06482   0.48230   0.00000  Uiso   1.00
H173   H     0.63151   0.89853   0.70387   0.00000  Uiso   1.00
H174   H     0.83152   0.08994   0.72359   0.00000  Uiso   1.00
H175   H     0.78679   0.08890   0.33903   0.00000  Uiso   1.00
O176   O     0.14809   0.31959   0.68832   0.00000  Uiso   1.00
O177   O     0.41050   0.57070   0.71419   0.00000  Uiso   1.00
O178   O     0.85182   0.06935   0.20966   0.00000  Uiso   1.00
N179   N     0.22154   0.34645   0.61724   0.00000  Uiso   1.00
N180   N     0.40853   0.52539   0.63569   0.00000  Uiso   1.00
N181   N     0.36673   0.52444   0.27616   0.00000  Uiso   1.00
N182   N     0.66394   0.88869   0.67261   0.00000  Uiso   1.00
N183   N     0.85093   0.06763   0.69106   0.00000  Uiso   1.00
N184   N     0.80913   0.06667   0.33152   0.00000  Uiso   1.00
C185   C     0.49002   0.23929   0.72880   0.00000  Uiso   1.00
C186   C     0.46764   0.27120   0.70655   0.00000  Uiso   1.00
C187   C     0.48793   0.28968   0.64147   0.00000  Uiso   1.00
C188   C     0.46175   0.31810   0.63142   0.00000  Uiso   1.00
C189   C     0.43381   0.36617   0.58878   0.00000  Uiso   1.00
C190   C     0.45792   0.20282   0.75281   0.00000  Uiso   1.00
C191   C     0.47005   0.16382   0.72662   0.00000  Uiso   1.00
C192   C     0.43569   0.13469   0.75554   0.00000  Uiso   1.00
C193   C     0.39268   0.07660   0.78474   0.00000  Uiso   1.00
C194   C     0.48791   0.25591   0.79413   0.00000  Uiso   1.00
C195   C     0.52524   0.26153   0.80270   0.00000  Uiso   1.00
C196   C     0.51614   0.27708   0.86640   0.00000  Uiso   1.00
C197   C     0.51968   0.30142   0.95976   0.00000  Uiso   1.00
C198   C     0.40745   0.25689   0.82671   0.00000  Uiso   1.00
C199   C     0.42279   0.28075   0.75973   0.00000  Uiso   1.00
C200   C     0.39658   0.30915   0.74979   0.00000  Uiso   1.00
C201   C     0.41682   0.32768   0.68470   0.00000  Uiso   1.00
C202   C     0.41308   0.21238   0.80599   0.00000  Uiso   1.00
C203   C     0.37870   0.18329   0.83495   0.00000  Uiso   1.00
C204   C     0.39077   0.14426   0.80881   0.00000  Uiso   1.00
C205   C     0.44306   0.26547   0.84731   0.00000  Uiso   1.00
C206   C     0.43389   0.28100   0.91102   0.00000  Uiso   1.00
C207   C     0.47121   0.28665   0.91968   0.00000  Uiso   1.00
H208   H     0.52493   0.23185   0.68740   0.00000  Uiso   1.00
H209   H     0.52263   0.28227   0.60032   0.00000  Uiso   1.00
H210   H     0.50476   0.15643   0.68547   0.00000  Uiso   1.00
H211   H     0.55994   0.25413   0.76153   0.00000  Uiso   1.00
H212   H     0.50030   0.34238   0.52722   0.00000  Uiso   1.00
H213   H     0.46261   0.07705   0.70679   0.00000  Uiso   1.00
H214   H     0.57899   0.28305   0.86717   0.00000  Uiso   1.00
H215   H     0.37253   0.26433   0.86812   0.00000  Uiso   1.00
H216   H     0.36187   0.31654   0.79096   0.00000  Uiso   1.00
H217   H     0.34400   0.19070   0.87611   0.00000  Uiso   1.00
H218   H     0.39919   0.28840   0.95216   0.00000  Uiso   1.00
H219   H     0.36982   0.37020   0.68195   0.00000  Uiso   1.00
H220   H     0.33213   0.10486   0.86152   0.00000  Uiso   1.00
H221   H     0.44851   0.31087   0.02190   0.00000  Uiso   1.00
O222   O     0.43079   0.39004   0.55056   0.00000  Uiso   1.00
O223   O     0.38135   0.04193   0.78615   0.00000  Uiso   1.00
O224   O     0.53403   0.31220   0.99657   0.00000  Uiso   1.00
N225   N     0.47106   0.34177   0.57423   0.00000  Uiso   1.00
N226   N     0.43582   0.09370   0.74211   0.00000  Uiso   1.00
N227   N     0.54462   0.28629   0.89206   0.00000  Uiso   1.00
N228   N     0.40085   0.35674   0.65749   0.00000  Uiso   1.00
N229   N     0.36561   0.10866   0.82537   0.00000  Uiso   1.00
N230   N     0.47441   0.30125   0.97532   0.00000  Uiso   1.00
C231   C     0.26979   0.12932   0.45876   0.00000  Uiso   1.00
C232   C     0.25942   0.14499   0.52972   0.00000  Uiso   1.00
C233   C     0.28930   0.16709   0.54205   0.00000  Uiso   1.00
C234   C     0.27332   0.17862   0.61067   0.00000  Uiso   1.00
C235   C     0.26394   0.20453   0.71259   0.00000  Uiso   1.00
C236   C     0.23215   0.14631   0.44790   0.00000  Uiso   1.00
C237   C     0.23911   0.16952   0.39143   0.00000  Uiso   1.00
C238   C     0.20018   0.18216   0.39116   0.00000  Uiso   1.00
C239   C     0.14846   0.21009   0.36603   0.00000  Uiso   1.00
C240   C     0.26196   0.08375   0.46713   0.00000  Uiso   1.00
C241   C     0.29397   0.05436   0.42681   0.00000  Uiso   1.00
C242   C     0.28013   0.01432   0.44273   0.00000  Uiso   1.00
C243   C     0.27469   0.94511   0.44745   0.00000  Uiso   1.00
C244   C     0.18829   0.11048   0.55868   0.00000  Uiso   1.00
C245   C     0.21515   0.13476   0.58399   0.00000  Uiso   1.00
C246   C     0.19912   0.14625   0.65261   0.00000  Uiso   1.00
C247   C     0.22897   0.16837   0.66504   0.00000  Uiso   1.00
C248   C     0.18788   0.13608   0.50217   0.00000  Uiso   1.00
C249   C     0.14893   0.14868   0.50198   0.00000  Uiso   1.00
C250   C     0.15583   0.17191   0.44553   0.00000  Uiso   1.00
C251   C     0.21769   0.07352   0.52140   0.00000  Uiso   1.00
C252   C     0.20379   0.03352   0.53737   0.00000  Uiso   1.00
C253   C     0.23578   0.00407   0.49710   0.00000  Uiso   1.00
H254   H     0.30426   0.13729   0.41650   0.00000  Uiso   1.00
H255   H     0.32355   0.17501   0.50003   0.00000  Uiso   1.00
H256   H     0.27337   0.17743   0.34943   0.00000  Uiso   1.00
H257   H     0.32822   0.06229   0.38482   0.00000  Uiso   1.00
H258   H     0.32541   0.21233   0.61658   0.00000  Uiso   1.00
H259   H     0.21960   0.21743   0.29901   0.00000  Uiso   1.00
H260   H     0.33527   0.97462   0.37363   0.00000  Uiso   1.00
H261   H     0.15382   0.10252   0.60094   0.00000  Uiso   1.00
H262   H     0.16486   0.13833   0.69460   0.00000  Uiso   1.00
H263   H     0.11468   0.14076   0.54399   0.00000  Uiso   1.00
H264   H     0.16953   0.02561   0.57938   0.00000  Uiso   1.00
H265   H     0.19662   0.18256   0.77450   0.00000  Uiso   1.00
H266   H     0.09080   0.18766   0.45692   0.00000  Uiso   1.00
H267   H     0.70647   0.44485   0.53154   0.00000  Uiso   1.00
O268   O     0.27099   0.22165   0.75382   0.00000  Uiso   1.00
O269   O     0.13217   0.22833   0.33718   0.00000  Uiso   1.00
O270   O     0.28392   0.90977   0.43508   0.00000  Uiso   1.00
N271   N     0.29359   0.20040   0.64090   0.00000  Uiso   1.00
N272   N     0.19466   0.20518   0.34399   0.00000  Uiso   1.00
N273   N     0.30280   0.97817   0.41374   0.00000  Uiso   1.00
N274   N     0.22429   0.18439   0.72587   0.00000  Uiso   1.00
N275   N     0.12536   0.18916   0.42897   0.00000  Uiso   1.00
N276   N     0.23349   0.96215   0.49871   0.00000  Uiso   1.00
C277   C     0.10342   0.53601   0.38762   0.00000  Uiso   1.00
C278   C     0.14975   0.55679   0.34239   0.00000  Uiso   1.00
C279   C     0.15703   0.59824   0.33468   0.00000  Uiso   1.00
C280   C     0.20197   0.61124   0.29091   0.00000  Uiso   1.00
C281   C     0.26837   0.64769   0.22594   0.00000  Uiso   1.00
C282   C     0.09727   0.50790   0.33887   0.00000  Uiso   1.00
C283   C     0.06043   0.50824   0.32822   0.00000  Uiso   1.00
C284   C     0.06119   0.48007   0.28150   0.00000  Uiso   1.00
C285   C     0.04611   0.44059   0.21112   0.00000  Uiso   1.00
C286   C     0.10906   0.50865   0.43770   0.00000  Uiso   1.00
C287   C     0.08212   0.50962   0.51015   0.00000  Uiso   1.00
C288   C     0.09280   0.48208   0.54663   0.00000  Uiso   1.00
C289   C     0.09602   0.44377   0.62969   0.00000  Uiso   1.00
C290   C     0.17028   0.48538   0.32358   0.00000  Uiso   1.00
C291   C     0.18606   0.52929   0.30761   0.00000  Uiso   1.00
C292   C     0.23100   0.54223   0.26384   0.00000  Uiso   1.00
C293   C     0.23835   0.58369   0.25607   0.00000  Uiso   1.00
C294   C     0.13358   0.48040   0.30409   0.00000  Uiso   1.00
C295   C     0.13440   0.45222   0.25738   0.00000  Uiso   1.00
C296   C     0.09757   0.45252   0.24666   0.00000  Uiso   1.00
C297   C     0.14537   0.48115   0.40292   0.00000  Uiso   1.00
C298   C     0.15609   0.45360   0.43930   0.00000  Uiso   1.00
C299   C     0.12918   0.45453   0.51179   0.00000  Uiso   1.00
H300   H     0.07515   0.55742   0.41469   0.00000  Uiso   1.00
H301   H     0.12892   0.61952   0.36160   0.00000  Uiso   1.00
H302   H     0.03233   0.52952   0.35515   0.00000  Uiso   1.00
H303   H     0.05402   0.53090   0.53705   0.00000  Uiso   1.00
H304   H     0.20455   0.67623   0.28738   0.00000  Uiso   1.00
H305   H     0.00087   0.48647   0.27380   0.00000  Uiso   1.00
H306   H     0.04661   0.48937   0.65736   0.00000  Uiso   1.00
H307   H     0.19855   0.46397   0.29650   0.00000  Uiso   1.00
H308   H     0.25909   0.52094   0.23693   0.00000  Uiso   1.00
H309   H     0.16250   0.43095   0.23047   0.00000  Uiso   1.00
H310   H     0.18419   0.43233   0.41237   0.00000  Uiso   1.00
H311   H     0.31020   0.59623   0.18619   0.00000  Uiso   1.00
H312   H     0.10652   0.40646   0.17261   0.00000  Uiso   1.00
H313   H     0.15227   0.40936   0.55616   0.00000  Uiso   1.00
O314   O     0.29497   0.67539   0.19971   0.00000  Uiso   1.00
O315   O     0.02776   0.42642   0.18190   0.00000  Uiso   1.00
O316   O     0.08777   0.43023   0.68512   0.00000  Uiso   1.00
N317   N     0.22110   0.64959   0.27175   0.00000  Uiso   1.00
N318   N     0.03069   0.47217   0.25905   0.00000  Uiso   1.00
N319   N     0.07344   0.47488   0.61764   0.00000  Uiso   1.00
N320   N     0.27795   0.60653   0.21730   0.00000  Uiso   1.00
N321   N     0.08754   0.42912   0.20459   0.00000  Uiso   1.00
N322   N     0.13029   0.43183   0.56319   0.00000  Uiso   1.00
C323   C     0.96718   0.86118   0.37478   0.00000  Uiso   1.00
C324   C     0.99352   0.82670   0.38377   0.00000  Uiso   1.00
C325   C     0.97735   0.80246   0.44265   0.00000  Uiso   1.00
C326   C     0.00672   0.77254   0.44060   0.00000  Uiso   1.00
C327   C     0.04095   0.71983   0.46352   0.00000  Uiso   1.00
C328   C     0.99747   0.89859   0.35737   0.00000  Uiso   1.00
C329   C     0.98461   0.93480   0.39405   0.00000  Uiso   1.00
C330   C     0.01730   0.96539   0.36977   0.00000  Uiso   1.00
C331   C     0.05765   0.02431   0.35168   0.00000  Uiso   1.00
C332   C     0.96599   0.85138   0.30896   0.00000  Uiso   1.00
C333   C     0.92666   0.84792   0.30493   0.00000  Uiso   1.00
C334   C     0.93285   0.83879   0.23989   0.00000  Uiso   1.00
C335   C     0.92432   0.82441   0.14663   0.00000  Uiso   1.00
C336   C     0.04810   0.85113   0.26644   0.00000  Uiso   1.00
C337   C     0.03748   0.82124   0.32493   0.00000  Uiso   1.00
C338   C     0.06688   0.79134   0.32279   0.00000  Uiso   1.00
C339   C     0.05075   0.76707   0.38165   0.00000  Uiso   1.00
C340   C     0.04142   0.89313   0.29853   0.00000  Uiso   1.00
C341   C     0.07414   0.92367   0.27419   0.00000  Uiso   1.00
C342   C     0.06133   0.95992   0.31082   0.00000  Uiso   1.00
C343   C     0.00994   0.84592   0.25012   0.00000  Uiso   1.00
C344   C     0.01619   0.83679   0.18507   0.00000  Uiso   1.00
C345   C     0.97688   0.83332   0.18094   0.00000  Uiso   1.00
H346   H     0.93296   0.86544   0.42059   0.00000  Uiso   1.00
H347   H     0.94333   0.80670   0.48818   0.00000  Uiso   1.00
H348   H     0.95059   0.93902   0.43958   0.00000  Uiso   1.00
H349   H     0.89266   0.85215   0.35048   0.00000  Uiso   1.00
H350   H     0.97423   0.73918   0.53717   0.00000  Uiso   1.00
H351   H     0.98953   0.01818   0.43468   0.00000  Uiso   1.00
H352   H     0.86736   0.83501   0.24679   0.00000  Uiso   1.00
H353   H     0.08232   0.84688   0.22063   0.00000  Uiso   1.00
H354   H     0.10089   0.78712   0.27724   0.00000  Uiso   1.00
H355   H     0.10815   0.91944   0.22865   0.00000  Uiso   1.00
H356   H     0.05021   0.83257   0.13954   0.00000  Uiso   1.00
H357   H     0.10211   0.72329   0.36597   0.00000  Uiso   1.00
H358   H     0.11741   0.00229   0.26348   0.00000  Uiso   1.00
H359   H     0.99524   0.81911   0.07559   0.00000  Uiso   1.00
O360   O     0.04770   0.69227   0.49243   0.00000  Uiso   1.00
O361   O     0.06776   0.05831   0.35796   0.00000  Uiso   1.00
O362   O     0.90748   0.81798   0.11145   0.00000  Uiso   1.00
N363   N     0.00177   0.74364   0.48910   0.00000  Uiso   1.00
N364   N     0.01608   0.00449   0.39329   0.00000  Uiso   1.00
N365   N     0.90186   0.83324   0.21762   0.00000  Uiso   1.00
N366   N     0.07058   0.73509   0.39698   0.00000  Uiso   1.00
N367   N     0.08489   0.99593   0.30117   0.00000  Uiso   1.00
N368   N     0.97067   0.82469   0.12550   0.00000  Uiso   1.00
C369   C     0.17227   0.76776   0.65678   0.00000  Uiso   1.00
C370   C     0.18094   0.75878   0.58392   0.00000  Uiso   1.00
C371   C     0.14934   0.74226   0.56903   0.00000  Uiso   1.00
C372   C     0.16393   0.73637   0.49900   0.00000  Uiso   1.00
C373   C     0.17061   0.72084   0.39395   0.00000  Uiso   1.00
C374   C     0.20930   0.74491   0.66233   0.00000  Uiso   1.00
C375   C     0.20154   0.71673   0.71337   0.00000  Uiso   1.00
C376   C     0.24001   0.69917   0.70935   0.00000  Uiso   1.00
C377   C     0.29072   0.66213   0.72606   0.00000  Uiso   1.00
C378   C     0.18283   0.81256   0.65701   0.00000  Uiso   1.00
C379   C     0.15284   0.84126   0.70359   0.00000  Uiso   1.00
C380   C     0.16903   0.88066   0.69509   0.00000  Uiso   1.00
C381   C     0.17865   0.94866   0.70354   0.00000  Uiso   1.00
C382   C     0.25436   0.78669   0.55888   0.00000  Uiso   1.00
C383   C     0.22553   0.76906   0.53074   0.00000  Uiso   1.00
C384   C     0.24017   0.76320   0.46071   0.00000  Uiso   1.00
C385   C     0.20860   0.74667   0.44572   0.00000  Uiso   1.00
C386   C     0.25389   0.75519   0.60915   0.00000  Uiso   1.00
C387   C     0.29237   0.73767   0.60505   0.00000  Uiso   1.00
C388   C     0.28468   0.70947   0.65607   0.00000  Uiso   1.00
C389   C     0.22743   0.82284   0.60383   0.00000  Uiso   1.00
C390   C     0.24367   0.86220   0.59526   0.00000  Uiso   1.00
C391   C     0.21370   0.89096   0.64182   0.00000  Uiso   1.00
H392   H     0.13755   0.75975   0.69819   0.00000  Uiso   1.00
H393   H     0.11484   0.73430   0.61020   0.00000  Uiso   1.00
H394   H     0.16703   0.70878   0.75452   0.00000  Uiso   1.00
H395   H     0.11833   0.83329   0.74473   0.00000  Uiso   1.00
H396   H     0.10932   0.71060   0.48921   0.00000  Uiso   1.00
H397   H     0.21937   0.65680   0.79353   0.00000  Uiso   1.00
H398   H     0.11668   0.91936   0.77289   0.00000  Uiso   1.00
H399   H     0.28908   0.79470   0.51748   0.00000  Uiso   1.00
H400   H     0.27468   0.77116   0.41957   0.00000  Uiso   1.00
H401   H     0.32687   0.74564   0.56389   0.00000  Uiso   1.00
H402   H     0.27817   0.87015   0.55411   0.00000  Uiso   1.00
H403   H     0.23906   0.74052   0.33448   0.00000  Uiso   1.00
H404   H     0.34911   0.68672   0.63881   0.00000  Uiso   1.00
H405   H     0.74642   0.44928   0.61817   0.00000  Uiso   1.00
O406   O     0.16198   0.70943   0.35070   0.00000  Uiso   1.00
O407   O     0.30637   0.63886   0.74997   0.00000  Uiso   1.00
O408   O     0.17164   0.98332   0.72289   0.00000  Uiso   1.00
N409   N     0.14183   0.72088   0.46623   0.00000  Uiso   1.00
N410   N     0.24472   0.67058   0.75074   0.00000  Uiso   1.00
N411   N     0.14872   0.91604   0.73146   0.00000  Uiso   1.00
N412   N     0.21164   0.73698   0.38297   0.00000  Uiso   1.00
N413   N     0.31453   0.68668   0.66749   0.00000  Uiso   1.00
N414   N     0.21853   0.93214   0.64821   0.00000  Uiso   1.00
C415   C     0.83732   0.96170   0.50481   0.00000  Uiso   1.00
C416   C     0.79134   0.94026   0.54932   0.00000  Uiso   1.00
C417   C     0.78476   0.89870   0.55591   0.00000  Uiso   1.00
C418   C     0.74003   0.88506   0.59917   0.00000  Uiso   1.00
C419   C     0.67422   0.84767   0.66292   0.00000  Uiso   1.00
C420   C     0.84287   0.98957   0.55442   0.00000  Uiso   1.00
C421   C     0.87962   0.98948   0.56528   0.00000  Uiso   1.00
C422   C     0.87828   0.01736   0.61282   0.00000  Uiso   1.00
C423   C     0.89249   0.05655   0.68445   0.00000  Uiso   1.00
C424   C     0.83134   0.98930   0.45533   0.00000  Uiso   1.00
C425   C     0.85841   0.98900   0.38288   0.00000  Uiso   1.00
C426   C     0.84737   0.01666   0.34700   0.00000  Uiso   1.00
C427   C     0.34369   0.55542   0.26478   0.00000  Uiso   1.00
C428   C     0.26958   0.51137   0.56992   0.00000  Uiso   1.00
C429   C     0.25454   0.46724   0.58468   0.00000  Uiso   1.00
C430   C     0.20981   0.45366   0.62794   0.00000  Uiso   1.00
C431   C     0.20317   0.41209   0.63459   0.00000  Uiso   1.00
C432   C     0.30608   0.51655   0.58978   0.00000  Uiso   1.00
C433   C     0.30468   0.54444   0.63731   0.00000  Uiso   1.00
C434   C     0.34142   0.54439   0.64825   0.00000  Uiso   1.00
C435   C     0.29455   0.51628   0.49069   0.00000  Uiso   1.00
C436   C     0.28347   0.54395   0.45492   0.00000  Uiso   1.00
C437   C     0.31051   0.54368   0.38243   0.00000  Uiso   1.00
H438   H     0.86597   0.94069   0.47728   0.00000  Uiso   1.00
H439   H     0.81324   0.87783   0.52853   0.00000  Uiso   1.00
H440   H     0.90809   0.96860   0.53790   0.00000  Uiso   1.00
H441   H     0.88688   0.96811   0.35553   0.00000  Uiso   1.00
H442   H     0.73856   0.82004   0.60097   0.00000  Uiso   1.00
H443   H     0.93857   0.01144   0.62070   0.00000  Uiso   1.00
H444   H     0.89384   0.01041   0.23614   0.00000  Uiso   1.00
H445   H     0.24094   0.53238   0.59746   0.00000  Uiso   1.00
H446   H     0.18135   0.47454   0.65530   0.00000  Uiso   1.00
H447   H     0.27620   0.56531   0.66467   0.00000  Uiso   1.00
H448   H     0.25499   0.56482   0.48230   0.00000  Uiso   1.00
H449   H     0.13151   0.39853   0.70387   0.00000  Uiso   1.00
H450   H     0.33152   0.58994   0.72359   0.00000  Uiso   1.00
H451   H     0.28679   0.58890   0.33903   0.00000  Uiso   1.00
O452   O     0.64809   0.81959   0.68832   0.00000  Uiso   1.00
O453   O     0.91050   0.07070   0.71419   0.00000  Uiso   1.00
O454   O     0.35182   0.56935   0.20966   0.00000  Uiso   1.00
N455   N     0.72154   0.84645   0.61724   0.00000  Uiso   1.00
N456   N     0.90853   0.02539   0.63569   0.00000  Uiso   1.00
N457   N     0.86673   0.02444   0.27616   0.00000  Uiso   1.00
N458   N     0.16394   0.38869   0.67261   0.00000  Uiso   1.00
N459   N     0.35093   0.56763   0.69106   0.00000  Uiso   1.00
N460   N     0.30913   0.56667   0.33152   0.00000  Uiso   1.00
C461   C     0.99002   0.73929   0.72880   0.00000  Uiso   1.00
C462   C     0.96764   0.77120   0.70655   0.00000  Uiso   1.00
C463   C     0.98793   0.78968   0.64147   0.00000  Uiso   1.00
C464   C     0.96175   0.81810   0.63142   0.00000  Uiso   1.00
C465   C     0.93381   0.86617   0.58878   0.00000  Uiso   1.00
C466   C     0.95792   0.70282   0.75281   0.00000  Uiso   1.00
C467   C     0.97005   0.66382   0.72662   0.00000  Uiso   1.00
C468   C     0.93569   0.63469   0.75554   0.00000  Uiso   1.00
C469   C     0.89268   0.57660   0.78474   0.00000  Uiso   1.00
C470   C     0.98791   0.75591   0.79413   0.00000  Uiso   1.00
C471   C     0.02524   0.76153   0.80270   0.00000  Uiso   1.00
C472   C     0.01614   0.77708   0.86640   0.00000  Uiso   1.00
C473   C     0.01968   0.80142   0.95976   0.00000  Uiso   1.00
C474   C     0.90745   0.75689   0.82671   0.00000  Uiso   1.00
C475   C     0.92279   0.78075   0.75973   0.00000  Uiso   1.00
C476   C     0.89658   0.80915   0.74979   0.00000  Uiso   1.00
C477   C     0.91682   0.82768   0.68470   0.00000  Uiso   1.00
C478   C     0.91308   0.71238   0.80599   0.00000  Uiso   1.00
C479   C     0.87870   0.68329   0.83495   0.00000  Uiso   1.00
C480   C     0.89077   0.64426   0.80881   0.00000  Uiso   1.00
C481   C     0.94306   0.76547   0.84731   0.00000  Uiso   1.00
C482   C     0.93389   0.78100   0.91102   0.00000  Uiso   1.00
C483   C     0.97121   0.78665   0.91968   0.00000  Uiso   1.00
H484   H     0.02493   0.73185   0.68740   0.00000  Uiso   1.00
H485   H     0.02263   0.78227   0.60032   0.00000  Uiso   1.00
H486   H     0.00476   0.65643   0.68547   0.00000  Uiso   1.00
H487   H     0.05994   0.75413   0.76153   0.00000  Uiso   1.00
H488   H     0.00030   0.84238   0.52722   0.00000  Uiso   1.00
H489   H     0.96261   0.57705   0.70679   0.00000  Uiso   1.00
H490   H     0.07899   0.78305   0.86717   0.00000  Uiso   1.00
H491   H     0.87253   0.76433   0.86812   0.00000  Uiso   1.00
H492   H     0.86187   0.81654   0.79096   0.00000  Uiso   1.00
H493   H     0.84400   0.69070   0.87611   0.00000  Uiso   1.00
H494   H     0.89919   0.78840   0.95216   0.00000  Uiso   1.00
H495   H     0.86982   0.87020   0.68195   0.00000  Uiso   1.00
H496   H     0.83213   0.60486   0.86152   0.00000  Uiso   1.00
H497   H     0.94851   0.81087   0.02190   0.00000  Uiso   1.00
O498   O     0.93079   0.89004   0.55056   0.00000  Uiso   1.00
O499   O     0.88135   0.54193   0.78615   0.00000  Uiso   1.00
O500   O     0.03403   0.81220   0.99657   0.00000  Uiso   1.00
N501   N     0.97106   0.84177   0.57423   0.00000  Uiso   1.00
N502   N     0.93582   0.59370   0.74211   0.00000  Uiso   1.00
N503   N     0.04462   0.78629   0.89206   0.00000  Uiso   1.00
N504   N     0.90085   0.85674   0.65749   0.00000  Uiso   1.00
N505   N     0.86561   0.60866   0.82537   0.00000  Uiso   1.00
N506   N     0.97441   0.80125   0.97532   0.00000  Uiso   1.00
C507   C     0.76979   0.62932   0.45876   0.00000  Uiso   1.00
C508   C     0.75942   0.64499   0.52972   0.00000  Uiso   1.00
C509   C     0.78930   0.66709   0.54205   0.00000  Uiso   1.00
C510   C     0.77332   0.67862   0.61067   0.00000  Uiso   1.00
C511   C     0.76394   0.70453   0.71259   0.00000  Uiso   1.00
C512   C     0.73215   0.64631   0.44790   0.00000  Uiso   1.00
C513   C     0.73911   0.66952   0.39143   0.00000  Uiso   1.00
C514   C     0.70018   0.68216   0.39116   0.00000  Uiso   1.00
C515   C     0.64846   0.71009   0.36603   0.00000  Uiso   1.00
C516   C     0.76196   0.58375   0.46713   0.00000  Uiso   1.00
C517   C     0.79397   0.55436   0.42681   0.00000  Uiso   1.00
C518   C     0.78013   0.51432   0.44273   0.00000  Uiso   1.00
C519   C     0.77469   0.44511   0.44745   0.00000  Uiso   1.00
C520   C     0.68829   0.61048   0.55868   0.00000  Uiso   1.00
C521   C     0.71515   0.63476   0.58399   0.00000  Uiso   1.00
C522   C     0.69912   0.64625   0.65261   0.00000  Uiso   1.00
C523   C     0.72897   0.66837   0.66504   0.00000  Uiso   1.00
C524   C     0.68788   0.63608   0.50217   0.00000  Uiso   1.00
C525   C     0.64893   0.64868   0.50198   0.00000  Uiso   1.00
C526   C     0.65583   0.67191   0.44553   0.00000  Uiso   1.00
C527   C     0.71769   0.57352   0.52140   0.00000  Uiso   1.00
C528   C     0.70379   0.53352   0.53737   0.00000  Uiso   1.00
C529   C     0.73578   0.50407   0.49710   0.00000  Uiso   1.00
H530   H     0.80426   0.63729   0.41650   0.00000  Uiso   1.00
H531   H     0.82355   0.67501   0.50003   0.00000  Uiso   1.00
H532   H     0.77337   0.67743   0.34943   0.00000  Uiso   1.00
H533   H     0.82822   0.56229   0.38482   0.00000  Uiso   1.00
H534   H     0.82541   0.71233   0.61658   0.00000  Uiso   1.00
H535   H     0.71960   0.71743   0.29901   0.00000  Uiso   1.00
H536   H     0.83527   0.47462   0.37363   0.00000  Uiso   1.00
H537   H     0.65382   0.60252   0.60094   0.00000  Uiso   1.00
H538   H     0.66486   0.63833   0.69460   0.00000  Uiso   1.00
H539   H     0.61468   0.64076   0.54399   0.00000  Uiso   1.00
H540   H     0.66953   0.52561   0.57938   0.00000  Uiso   1.00
H541   H     0.69662   0.68256   0.77450   0.00000  Uiso   1.00
H542   H     0.59080   0.68766   0.45692   0.00000  Uiso   1.00
H543   H     0.20647   0.94485   0.53154   0.00000  Uiso   1.00
O544   O     0.77099   0.72165   0.75382   0.00000  Uiso   1.00
O545   O     0.63217   0.72833   0.33718   0.00000  Uiso   1.00
O546   O     0.78392   0.40977   0.43508   0.00000  Uiso   1.00
N547   N     0.79359   0.70040   0.64090   0.00000  Uiso   1.00
N548   N     0.69466   0.70518   0.34399   0.00000  Uiso   1.00
N549   N     0.80280   0.47817   0.41374   0.00000  Uiso   1.00
N550   N     0.72429   0.68439   0.72587   0.00000  Uiso   1.00
N551   N     0.62536   0.68916   0.42897   0.00000  Uiso   1.00
N552   N     0.73349   0.46215   0.49871   0.00000  Uiso   1.00
C553   C     0.60342   0.96399   0.88762   0.00000  Uiso   1.00
C554   C     0.64975   0.94321   0.84239   0.00000  Uiso   1.00
C555   C     0.65703   0.90176   0.83468   0.00000  Uiso   1.00
C556   C     0.70197   0.88876   0.79091   0.00000  Uiso   1.00
C557   C     0.76837   0.85231   0.72594   0.00000  Uiso   1.00
C558   C     0.59727   0.99210   0.83887   0.00000  Uiso   1.00
C559   C     0.56043   0.99176   0.82822   0.00000  Uiso   1.00
C560   C     0.56119   0.01993   0.78150   0.00000  Uiso   1.00
C561   C     0.54611   0.05941   0.71112   0.00000  Uiso   1.00
C562   C     0.60906   0.99135   0.93770   0.00000  Uiso   1.00
C563   C     0.58212   0.99038   0.01015   0.00000  Uiso   1.00
C564   C     0.59280   0.01792   0.04663   0.00000  Uiso   1.00
C565   C     0.59602   0.05623   0.12969   0.00000  Uiso   1.00
C566   C     0.67028   0.01462   0.82358   0.00000  Uiso   1.00
C567   C     0.68606   0.97071   0.80761   0.00000  Uiso   1.00
C568   C     0.73100   0.95777   0.76384   0.00000  Uiso   1.00
C569   C     0.73835   0.91631   0.75607   0.00000  Uiso   1.00
C570   C     0.63358   0.01960   0.80409   0.00000  Uiso   1.00
C571   C     0.63440   0.04778   0.75738   0.00000  Uiso   1.00
C572   C     0.59757   0.04748   0.74666   0.00000  Uiso   1.00
C573   C     0.64537   0.01885   0.90292   0.00000  Uiso   1.00
C574   C     0.65609   0.04640   0.93930   0.00000  Uiso   1.00
C575   C     0.62918   0.04547   0.01179   0.00000  Uiso   1.00
H576   H     0.57515   0.94258   0.91469   0.00000  Uiso   1.00
H577   H     0.62892   0.88048   0.86160   0.00000  Uiso   1.00
H578   H     0.53233   0.97048   0.85515   0.00000  Uiso   1.00
H579   H     0.55402   0.96910   0.03705   0.00000  Uiso   1.00
H580   H     0.70455   0.82377   0.78738   0.00000  Uiso   1.00
H581   H     0.50087   0.01353   0.77380   0.00000  Uiso   1.00
H582   H     0.54661   0.01063   0.15736   0.00000  Uiso   1.00
H583   H     0.69855   0.03603   0.79650   0.00000  Uiso   1.00
H584   H     0.75909   0.97906   0.73693   0.00000  Uiso   1.00
H585   H     0.66250   0.06905   0.73047   0.00000  Uiso   1.00
H586   H     0.68419   0.06767   0.91237   0.00000  Uiso   1.00
H587   H     0.81020   0.90377   0.68619   0.00000  Uiso   1.00
H588   H     0.60652   0.09354   0.67261   0.00000  Uiso   1.00
H589   H     0.65227   0.09064   0.05616   0.00000  Uiso   1.00
O590   O     0.79497   0.82461   0.69971   0.00000  Uiso   1.00
O591   O     0.52776   0.07358   0.68190   0.00000  Uiso   1.00
O592   O     0.58777   0.06977   0.18512   0.00000  Uiso   1.00
N593   N     0.72110   0.85041   0.77175   0.00000  Uiso   1.00
N594   N     0.53069   0.02783   0.75905   0.00000  Uiso   1.00
N595   N     0.57344   0.02512   0.11764   0.00000  Uiso   1.00
N596   N     0.77795   0.89347   0.71730   0.00000  Uiso   1.00
N597   N     0.58754   0.07088   0.70459   0.00000  Uiso   1.00
N598   N     0.63029   0.06817   0.06319   0.00000  Uiso   1.00
C599   C     0.46718   0.63882   0.87478   0.00000  Uiso   1.00
C600   C     0.49352   0.67330   0.88377   0.00000  Uiso   1.00
C601   C     0.47735   0.69754   0.94265   0.00000  Uiso   1.00
C602   C     0.50672   0.72746   0.94060   0.00000  Uiso   1.00
C603   C     0.54095   0.78017   0.96352   0.00000  Uiso   1.00
C604   C     0.49747   0.60141   0.85737   0.00000  Uiso   1.00
C605   C     0.48461   0.56520   0.89405   0.00000  Uiso   1.00
C606   C     0.51730   0.53461   0.86977   0.00000  Uiso   1.00
C607   C     0.55765   0.47569   0.85168   0.00000  Uiso   1.00
C608   C     0.46599   0.64862   0.80896   0.00000  Uiso   1.00
C609   C     0.42666   0.65208   0.80493   0.00000  Uiso   1.00
C610   C     0.43285   0.66121   0.73989   0.00000  Uiso   1.00
C611   C     0.42432   0.67559   0.64663   0.00000  Uiso   1.00
C612   C     0.54810   0.64887   0.76644   0.00000  Uiso   1.00
C613   C     0.53748   0.67876   0.82493   0.00000  Uiso   1.00
C614   C     0.56688   0.70866   0.82279   0.00000  Uiso   1.00
C615   C     0.55075   0.73293   0.88165   0.00000  Uiso   1.00
C616   C     0.54142   0.60687   0.79853   0.00000  Uiso   1.00
C617   C     0.57414   0.57633   0.77419   0.00000  Uiso   1.00
C618   C     0.56133   0.54008   0.81082   0.00000  Uiso   1.00
C619   C     0.50994   0.65408   0.75012   0.00000  Uiso   1.00
C620   C     0.51619   0.66321   0.68507   0.00000  Uiso   1.00
C621   C     0.47688   0.66668   0.68094   0.00000  Uiso   1.00
H622   H     0.43296   0.63456   0.92059   0.00000  Uiso   1.00
H623   H     0.44333   0.69330   0.98818   0.00000  Uiso   1.00
H624   H     0.45059   0.56098   0.93958   0.00000  Uiso   1.00
H625   H     0.39266   0.64785   0.85048   0.00000  Uiso   1.00
H626   H     0.47423   0.76082   0.03717   0.00000  Uiso   1.00
H627   H     0.48953   0.48182   0.93468   0.00000  Uiso   1.00
H628   H     0.36736   0.66499   0.74679   0.00000  Uiso   1.00
H629   H     0.58232   0.65312   0.72063   0.00000  Uiso   1.00
H630   H     0.60089   0.71288   0.77724   0.00000  Uiso   1.00
H631   H     0.60815   0.58056   0.72865   0.00000  Uiso   1.00
H632   H     0.55021   0.66743   0.63954   0.00000  Uiso   1.00
H633   H     0.60211   0.77671   0.86597   0.00000  Uiso   1.00
H634   H     0.61741   0.49771   0.76348   0.00000  Uiso   1.00
H635   H     0.49524   0.68089   0.57559   0.00000  Uiso   1.00
O636   O     0.54770   0.80773   0.99243   0.00000  Uiso   1.00
O637   O     0.56776   0.44169   0.85796   0.00000  Uiso   1.00
O638   O     0.40748   0.68202   0.61145   0.00000  Uiso   1.00
N639   N     0.50177   0.75636   0.98910   0.00000  Uiso   1.00
N640   N     0.51608   0.49551   0.89329   0.00000  Uiso   1.00
N641   N     0.40186   0.66676   0.71762   0.00000  Uiso   1.00
N642   N     0.57058   0.76491   0.89698   0.00000  Uiso   1.00
N643   N     0.58489   0.50407   0.80117   0.00000  Uiso   1.00
N644   N     0.47067   0.67531   0.62550   0.00000  Uiso   1.00
C645   C     0.67227   0.73224   0.15678   0.00000  Uiso   1.00
C646   C     0.68094   0.74122   0.08392   0.00000  Uiso   1.00
C647   C     0.64934   0.75774   0.06903   0.00000  Uiso   1.00
C648   C     0.66393   0.76363   0.99900   0.00000  Uiso   1.00
C649   C     0.67061   0.77916   0.89395   0.00000  Uiso   1.00
C650   C     0.70930   0.75509   0.16233   0.00000  Uiso   1.00
C651   C     0.70154   0.78327   0.21337   0.00000  Uiso   1.00
C652   C     0.74001   0.80083   0.20935   0.00000  Uiso   1.00
C653   C     0.79072   0.83787   0.22606   0.00000  Uiso   1.00
C654   C     0.68283   0.68744   0.15701   0.00000  Uiso   1.00
C655   C     0.65284   0.65874   0.20359   0.00000  Uiso   1.00
C656   C     0.66903   0.61934   0.19509   0.00000  Uiso   1.00
C657   C     0.67865   0.55134   0.20354   0.00000  Uiso   1.00
C658   C     0.75436   0.71331   0.05888   0.00000  Uiso   1.00
C659   C     0.72553   0.73094   0.03074   0.00000  Uiso   1.00
C660   C     0.74017   0.73680   0.96071   0.00000  Uiso   1.00
C661   C     0.70860   0.75333   0.94572   0.00000  Uiso   1.00
C662   C     0.75389   0.74481   0.10915   0.00000  Uiso   1.00
C663   C     0.79237   0.76233   0.10505   0.00000  Uiso   1.00
C664   C     0.78468   0.79053   0.15607   0.00000  Uiso   1.00
C665   C     0.72743   0.67716   0.10383   0.00000  Uiso   1.00
C666   C     0.74367   0.63780   0.09526   0.00000  Uiso   1.00
C667   C     0.71370   0.60904   0.14182   0.00000  Uiso   1.00
H668   H     0.63755   0.74025   0.19819   0.00000  Uiso   1.00
H669   H     0.61484   0.76570   0.11020   0.00000  Uiso   1.00
H670   H     0.66703   0.79122   0.25452   0.00000  Uiso   1.00
H671   H     0.61833   0.66671   0.24473   0.00000  Uiso   1.00
H672   H     0.60932   0.78940   0.98921   0.00000  Uiso   1.00
H673   H     0.71937   0.84320   0.29353   0.00000  Uiso   1.00
H674   H     0.61668   0.58064   0.27289   0.00000  Uiso   1.00
H675   H     0.78908   0.70530   0.01748   0.00000  Uiso   1.00
H676   H     0.77468   0.72884   0.91957   0.00000  Uiso   1.00
H677   H     0.82687   0.75436   0.06389   0.00000  Uiso   1.00
H678   H     0.77817   0.62985   0.05411   0.00000  Uiso   1.00
H679   H     0.73906   0.75948   0.83448   0.00000  Uiso   1.00
H680   H     0.84911   0.81328   0.13881   0.00000  Uiso   1.00
H681   H     0.24642   0.05072   0.11817   0.00000  Uiso   1.00
O682   O     0.66198   0.79057   0.85070   0.00000  Uiso   1.00
O683   O     0.80637   0.86114   0.24997   0.00000  Uiso   1.00
O684   O     0.67164   0.51668   0.22289   0.00000  Uiso   1.00
N685   N     0.64183   0.77912   0.96623   0.00000  Uiso   1.00
N686   N     0.74472   0.82942   0.25074   0.00000  Uiso   1.00
N687   N     0.64872   0.58396   0.23146   0.00000  Uiso   1.00
N688   N     0.71164   0.76302   0.88297   0.00000  Uiso   1.00
N689   N     0.81453   0.81332   0.16749   0.00000  Uiso   1.00
N690   N     0.71853   0.56786   0.14821   0.00000  Uiso   1.00
C691   C     0.33732   0.53830   0.00481   0.00000  Uiso   1.00
C692   C     0.29134   0.55974   0.04932   0.00000  Uiso   1.00
C693   C     0.28476   0.60130   0.05591   0.00000  Uiso   1.00
C694   C     0.24003   0.61494   0.09917   0.00000  Uiso   1.00
C695   C     0.17422   0.65233   0.16292   0.00000  Uiso   1.00
C696   C     0.34287   0.51043   0.05442   0.00000  Uiso   1.00
C697   C     0.37962   0.51052   0.06528   0.00000  Uiso   1.00
C698   C     0.37828   0.48264   0.11282   0.00000  Uiso   1.00
C699   C     0.39249   0.44345   0.18445   0.00000  Uiso   1.00
C700   C     0.33134   0.51070   0.95533   0.00000  Uiso   1.00
C701   C     0.35841   0.51100   0.88288   0.00000  Uiso   1.00
C702   C     0.34737   0.48334   0.84700   0.00000  Uiso   1.00
C703   C     0.84369   0.94458   0.76478   0.00000  Uiso   1.00
C704   C     0.76958   0.98863   0.06992   0.00000  Uiso   1.00
C705   C     0.75454   0.03276   0.08468   0.00000  Uiso   1.00
C706   C     0.70981   0.04634   0.12794   0.00000  Uiso   1.00
C707   C     0.70317   0.08791   0.13459   0.00000  Uiso   1.00
C708   C     0.80608   0.98345   0.08978   0.00000  Uiso   1.00
C709   C     0.80468   0.95556   0.13731   0.00000  Uiso   1.00
C710   C     0.84142   0.95561   0.14825   0.00000  Uiso   1.00
C711   C     0.79455   0.98372   0.99069   0.00000  Uiso   1.00
C712   C     0.78347   0.95605   0.95492   0.00000  Uiso   1.00
C713   C     0.81051   0.95632   0.88243   0.00000  Uiso   1.00
H714   H     0.36597   0.55931   0.97728   0.00000  Uiso   1.00
H715   H     0.31324   0.62217   0.02853   0.00000  Uiso   1.00
H716   H     0.40809   0.53140   0.03790   0.00000  Uiso   1.00
H717   H     0.38688   0.53189   0.85553   0.00000  Uiso   1.00
H718   H     0.23856   0.67996   0.10097   0.00000  Uiso   1.00
H719   H     0.43857   0.48856   0.12070   0.00000  Uiso   1.00
H720   H     0.39384   0.48959   0.73614   0.00000  Uiso   1.00
H721   H     0.74094   0.96762   0.09746   0.00000  Uiso   1.00
H722   H     0.68135   0.02546   0.15530   0.00000  Uiso   1.00
H723   H     0.77620   0.93469   0.16467   0.00000  Uiso   1.00
H724   H     0.75499   0.93518   0.98230   0.00000  Uiso   1.00
H725   H     0.63151   0.10147   0.20387   0.00000  Uiso   1.00
H726   H     0.83152   0.91006   0.22359   0.00000  Uiso   1.00
H727   H     0.78679   0.91110   0.83903   0.00000  Uiso   1.00
O728   O     0.14809   0.68041   0.18832   0.00000  Uiso   1.00
O729   O     0.41050   0.42930   0.21419   0.00000  Uiso   1.00
O730   O     0.85182   0.93065   0.70966   0.00000  Uiso   1.00
N731   N     0.22154   0.65355   0.11724   0.00000  Uiso   1.00
N732   N     0.40853   0.47461   0.13569   0.00000  Uiso   1.00
N733   N     0.36673   0.47556   0.77616   0.00000  Uiso   1.00
N734   N     0.66394   0.11131   0.17261   0.00000  Uiso   1.00
N735   N     0.85093   0.93237   0.19106   0.00000  Uiso   1.00
N736   N     0.80913   0.93333   0.83152   0.00000  Uiso   1.00
C737   C     0.49002   0.76071   0.22880   0.00000  Uiso   1.00
C738   C     0.46764   0.72880   0.20655   0.00000  Uiso   1.00
C739   C     0.48793   0.71032   0.14147   0.00000  Uiso   1.00
C740   C     0.46175   0.68190   0.13142   0.00000  Uiso   1.00
C741   C     0.43381   0.63383   0.08878   0.00000  Uiso   1.00
C742   C     0.45792   0.79718   0.25281   0.00000  Uiso   1.00
C743   C     0.47005   0.83618   0.22662   0.00000  Uiso   1.00
C744   C     0.43569   0.86531   0.25554   0.00000  Uiso   1.00
C745   C     0.39268   0.92340   0.28474   0.00000  Uiso   1.00
C746   C     0.48791   0.74409   0.29413   0.00000  Uiso   1.00
C747   C     0.52524   0.73847   0.30270   0.00000  Uiso   1.00
C748   C     0.51614   0.72292   0.36640   0.00000  Uiso   1.00
C749   C     0.51968   0.69858   0.45976   0.00000  Uiso   1.00
C750   C     0.40745   0.74311   0.32671   0.00000  Uiso   1.00
C751   C     0.42279   0.71925   0.25973   0.00000  Uiso   1.00
C752   C     0.39658   0.69085   0.24979   0.00000  Uiso   1.00
C753   C     0.41682   0.67232   0.18470   0.00000  Uiso   1.00
C754   C     0.41308   0.78762   0.30599   0.00000  Uiso   1.00
C755   C     0.37870   0.81671   0.33495   0.00000  Uiso   1.00
C756   C     0.39077   0.85574   0.30881   0.00000  Uiso   1.00
C757   C     0.44306   0.73453   0.34731   0.00000  Uiso   1.00
C758   C     0.43389   0.71900   0.41102   0.00000  Uiso   1.00
C759   C     0.47121   0.71335   0.41968   0.00000  Uiso   1.00
H760   H     0.52493   0.76815   0.18740   0.00000  Uiso   1.00
H761   H     0.52263   0.71773   0.10032   0.00000  Uiso   1.00
H762   H     0.50476   0.84357   0.18547   0.00000  Uiso   1.00
H763   H     0.55994   0.74587   0.26153   0.00000  Uiso   1.00
H764   H     0.50030   0.65762   0.02722   0.00000  Uiso   1.00
H765   H     0.46261   0.92295   0.20679   0.00000  Uiso   1.00
H766   H     0.57899   0.71695   0.36717   0.00000  Uiso   1.00
H767   H     0.37253   0.73567   0.36812   0.00000  Uiso   1.00
H768   H     0.36187   0.68346   0.29096   0.00000  Uiso   1.00
H769   H     0.34400   0.80930   0.37611   0.00000  Uiso   1.00
H770   H     0.39919   0.71160   0.45216   0.00000  Uiso   1.00
H771   H     0.36982   0.62980   0.18195   0.00000  Uiso   1.00
H772   H     0.33213   0.89514   0.36152   0.00000  Uiso   1.00
H773   H     0.44851   0.68913   0.52190   0.00000  Uiso   1.00
O774   O     0.43079   0.60996   0.05056   0.00000  Uiso   1.00
O775   O     0.38135   0.95807   0.28615   0.00000  Uiso   1.00
O776   O     0.53403   0.68780   0.49657   0.00000  Uiso   1.00
N777   N     0.47106   0.65823   0.07423   0.00000  Uiso   1.00
N778   N     0.43582   0.90630   0.24211   0.00000  Uiso   1.00
N779   N     0.54462   0.71371   0.39206   0.00000  Uiso   1.00
N780   N     0.40085   0.64326   0.15749   0.00000  Uiso   1.00
N781   N     0.36561   0.89134   0.32537   0.00000  Uiso   1.00
N782   N     0.47441   0.69875   0.47532   0.00000  Uiso   1.00
C783   C     0.26979   0.87068   0.95876   0.00000  Uiso   1.00
C784   C     0.25942   0.85501   0.02972   0.00000  Uiso   1.00
C785   C     0.28930   0.83291   0.04205   0.00000  Uiso   1.00
C786   C     0.27332   0.82138   0.11067   0.00000  Uiso   1.00
C787   C     0.26394   0.79547   0.21259   0.00000  Uiso   1.00
C788   C     0.23215   0.85369   0.94790   0.00000  Uiso   1.00
C789   C     0.23911   0.83048   0.89143   0.00000  Uiso   1.00
C790   C     0.20018   0.81784   0.89116   0.00000  Uiso   1.00
C791   C     0.14846   0.78991   0.86603   0.00000  Uiso   1.00
C792   C     0.26196   0.91625   0.96713   0.00000  Uiso   1.00
C793   C     0.29397   0.94564   0.92681   0.00000  Uiso   1.00
C794   C     0.28013   0.98568   0.94273   0.00000  Uiso   1.00
C795   C     0.27469   0.05489   0.94745   0.00000  Uiso   1.00
C796   C     0.18829   0.88952   0.05868   0.00000  Uiso   1.00
C797   C     0.21515   0.86524   0.08399   0.00000  Uiso   1.00
C798   C     0.19912   0.85375   0.15261   0.00000  Uiso   1.00
C799   C     0.22897   0.83163   0.16504   0.00000  Uiso   1.00
C800   C     0.18788   0.86392   0.00217   0.00000  Uiso   1.00
C801   C     0.14893   0.85132   0.00198   0.00000  Uiso   1.00
C802   C     0.15583   0.82809   0.94553   0.00000  Uiso   1.00
C803   C     0.21769   0.92648   0.02140   0.00000  Uiso   1.00
C804   C     0.20379   0.96648   0.03737   0.00000  Uiso   1.00
C805   C     0.23578   0.99593   0.99710   0.00000  Uiso   1.00
H806   H     0.30426   0.86271   0.91650   0.00000  Uiso   1.00
H807   H     0.32355   0.82499   0.00003   0.00000  Uiso   1.00
H808   H     0.27337   0.82257   0.84943   0.00000  Uiso   1.00
H809   H     0.32822   0.93771   0.88482   0.00000  Uiso   1.00
H810   H     0.32541   0.78767   0.11658   0.00000  Uiso   1.00
H811   H     0.21960   0.78257   0.79901   0.00000  Uiso   1.00
H812   H     0.33527   0.02538   0.87363   0.00000  Uiso   1.00
H813   H     0.15382   0.89748   0.10094   0.00000  Uiso   1.00
H814   H     0.16486   0.86167   0.19460   0.00000  Uiso   1.00
H815   H     0.11468   0.85924   0.04399   0.00000  Uiso   1.00
H816   H     0.16953   0.97439   0.07938   0.00000  Uiso   1.00
H817   H     0.19662   0.81744   0.27450   0.00000  Uiso   1.00
H818   H     0.09080   0.81234   0.95692   0.00000  Uiso   1.00
H819   H     0.70647   0.55515   0.03154   0.00000  Uiso   1.00
O820   O     0.27099   0.77835   0.25382   0.00000  Uiso   1.00
O821   O     0.13217   0.77167   0.83718   0.00000  Uiso   1.00
O822   O     0.28392   0.09023   0.93508   0.00000  Uiso   1.00
N823   N     0.29359   0.79960   0.14090   0.00000  Uiso   1.00
N824   N     0.19466   0.79482   0.84399   0.00000  Uiso   1.00
N825   N     0.30280   0.02183   0.91374   0.00000  Uiso   1.00
N826   N     0.22429   0.81561   0.22587   0.00000  Uiso   1.00
N827   N     0.12536   0.81084   0.92897   0.00000  Uiso   1.00
N828   N     0.23349   0.03785   0.99871   0.00000  Uiso   1.00
C829   C     0.10342   0.46399   0.88762   0.00000  Uiso   1.00
C830   C     0.14975   0.44321   0.84239   0.00000  Uiso   1.00
C831   C     0.15703   0.40176   0.83468   0.00000  Uiso   1.00
C832   C     0.20197   0.38876   0.79091   0.00000  Uiso   1.00
C833   C     0.26837   0.35231   0.72594   0.00000  Uiso   1.00
C834   C     0.09727   0.49210   0.83887   0.00000  Uiso   1.00
C835   C     0.06043   0.49176   0.82822   0.00000  Uiso   1.00
C836   C     0.06119   0.51993   0.78150   0.00000  Uiso   1.00
C837   C     0.04611   0.55941   0.71112   0.00000  Uiso   1.00
C838   C     0.10906   0.49135   0.93770   0.00000  Uiso   1.00
C839   C     0.08212   0.49038   0.01015   0.00000  Uiso   1.00
C840   C     0.09280   0.51792   0.04663   0.00000  Uiso   1.00
C841   C     0.09602   0.55623   0.12969   0.00000  Uiso   1.00
C842   C     0.17028   0.51462   0.82358   0.00000  Uiso   1.00
C843   C     0.18606   0.47071   0.80761   0.00000  Uiso   1.00
C844   C     0.23100   0.45777   0.76384   0.00000  Uiso   1.00
C845   C     0.23835   0.41631   0.75607   0.00000  Uiso   1.00
C846   C     0.13358   0.51960   0.80409   0.00000  Uiso   1.00
C847   C     0.13440   0.54778   0.75738   0.00000  Uiso   1.00
C848   C     0.09757   0.54748   0.74666   0.00000  Uiso   1.00
C849   C     0.14537   0.51885   0.90292   0.00000  Uiso   1.00
C850   C     0.15609   0.54640   0.93930   0.00000  Uiso   1.00
C851   C     0.12918   0.54547   0.01179   0.00000  Uiso   1.00
H852   H     0.07515   0.44258   0.91469   0.00000  Uiso   1.00
H853   H     0.12892   0.38048   0.86160   0.00000  Uiso   1.00
H854   H     0.03233   0.47048   0.85515   0.00000  Uiso   1.00
H855   H     0.05402   0.46910   0.03705   0.00000  Uiso   1.00
H856   H     0.20455   0.32377   0.78738   0.00000  Uiso   1.00
H857   H     0.00087   0.51353   0.77380   0.00000  Uiso   1.00
H858   H     0.04661   0.51063   0.15736   0.00000  Uiso   1.00
H859   H     0.19855   0.53603   0.79650   0.00000  Uiso   1.00
H860   H     0.25909   0.47906   0.73693   0.00000  Uiso   1.00
H861   H     0.16250   0.56905   0.73047   0.00000  Uiso   1.00
H862   H     0.18419   0.56767   0.91237   0.00000  Uiso   1.00
H863   H     0.31020   0.40377   0.68619   0.00000  Uiso   1.00
H864   H     0.10652   0.59354   0.67261   0.00000  Uiso   1.00
H865   H     0.15227   0.59064   0.05616   0.00000  Uiso   1.00
O866   O     0.29497   0.32461   0.69971   0.00000  Uiso   1.00
O867   O     0.02776   0.57358   0.68190   0.00000  Uiso   1.00
O868   O     0.08777   0.56977   0.18512   0.00000  Uiso   1.00
N869   N     0.22110   0.35041   0.77175   0.00000  Uiso   1.00
N870   N     0.03069   0.52783   0.75905   0.00000  Uiso   1.00
N871   N     0.07344   0.52512   0.11764   0.00000  Uiso   1.00
N872   N     0.27795   0.39347   0.71730   0.00000  Uiso   1.00
N873   N     0.08754   0.57088   0.70459   0.00000  Uiso   1.00
N874   N     0.13029   0.56817   0.06319   0.00000  Uiso   1.00
C875   C     0.96718   0.13882   0.87478   0.00000  Uiso   1.00
C876   C     0.99352   0.17330   0.88377   0.00000  Uiso   1.00
C877   C     0.97735   0.19754   0.94265   0.00000  Uiso   1.00
C878   C     0.00672   0.22746   0.94060   0.00000  Uiso   1.00
C879   C     0.04095   0.28017   0.96352   0.00000  Uiso   1.00
C880   C     0.99747   0.10141   0.85737   0.00000  Uiso   1.00
C881   C     0.98461   0.06520   0.89405   0.00000  Uiso   1.00
C882   C     0.01730   0.03461   0.86977   0.00000  Uiso   1.00
C883   C     0.05765   0.97569   0.85168   0.00000  Uiso   1.00
C884   C     0.96599   0.14862   0.80896   0.00000  Uiso   1.00
C885   C     0.92666   0.15208   0.80493   0.00000  Uiso   1.00
C886   C     0.93285   0.16121   0.73989   0.00000  Uiso   1.00
C887   C     0.92432   0.17559   0.64663   0.00000  Uiso   1.00
C888   C     0.04810   0.14887   0.76644   0.00000  Uiso   1.00
C889   C     0.03748   0.17876   0.82493   0.00000  Uiso   1.00
C890   C     0.06688   0.20866   0.82279   0.00000  Uiso   1.00
C891   C     0.05075   0.23293   0.88165   0.00000  Uiso   1.00
C892   C     0.04142   0.10687   0.79853   0.00000  Uiso   1.00
C893   C     0.07414   0.07633   0.77419   0.00000  Uiso   1.00
C894   C     0.06133   0.04008   0.81082   0.00000  Uiso   1.00
C895   C     0.00994   0.15408   0.75012   0.00000  Uiso   1.00
C896   C     0.01619   0.16321   0.68507   0.00000  Uiso   1.00
C897   C     0.97688   0.16668   0.68094   0.00000  Uiso   1.00
H898   H     0.93296   0.13456   0.92059   0.00000  Uiso   1.00
H899   H     0.94333   0.19330   0.98818   0.00000  Uiso   1.00
H900   H     0.95059   0.06098   0.93958   0.00000  Uiso   1.00
H901   H     0.89266   0.14785   0.85048   0.00000  Uiso   1.00
H902   H     0.97423   0.26082   0.03717   0.00000  Uiso   1.00
H903   H     0.98953   0.98182   0.93468   0.00000  Uiso   1.00
H904   H     0.86736   0.16499   0.74679   0.00000  Uiso   1.00
H905   H     0.08232   0.15312   0.72063   0.00000  Uiso   1.00
H906   H     0.10089   0.21288   0.77724   0.00000  Uiso   1.00
H907   H     0.10815   0.08056   0.72865   0.00000  Uiso   1.00
H908   H     0.05021   0.16743   0.63954   0.00000  Uiso   1.00
H909   H     0.10211   0.27671   0.86597   0.00000  Uiso   1.00
H910   H     0.11741   0.99771   0.76348   0.00000  Uiso   1.00
H911   H     0.99524   0.18089   0.57559   0.00000  Uiso   1.00
O912   O     0.04770   0.30773   0.99243   0.00000  Uiso   1.00
O913   O     0.06776   0.94169   0.85796   0.00000  Uiso   1.00
O914   O     0.90748   0.18202   0.61145   0.00000  Uiso   1.00
N915   N     0.00177   0.25636   0.98910   0.00000  Uiso   1.00
N916   N     0.01608   0.99551   0.89329   0.00000  Uiso   1.00
N917   N     0.90186   0.16676   0.71762   0.00000  Uiso   1.00
N918   N     0.07058   0.26491   0.89698   0.00000  Uiso   1.00
N919   N     0.08489   0.00407   0.80117   0.00000  Uiso   1.00
N920   N     0.97067   0.17531   0.62550   0.00000  Uiso   1.00
C921   C     0.17227   0.23224   0.15678   0.00000  Uiso   1.00
C922   C     0.18094   0.24122   0.08392   0.00000  Uiso   1.00
C923   C     0.14934   0.25774   0.06903   0.00000  Uiso   1.00
C924   C     0.16393   0.26363   0.99900   0.00000  Uiso   1.00
C925   C     0.17061   0.27916   0.89395   0.00000  Uiso   1.00
C926   C     0.20930   0.25509   0.16233   0.00000  Uiso   1.00
C927   C     0.20154   0.28327   0.21337   0.00000  Uiso   1.00
C928   C     0.24001   0.30083   0.20935   0.00000  Uiso   1.00
C929   C     0.29072   0.33787   0.22606   0.00000  Uiso   1.00
C930   C     0.18283   0.18744   0.15701   0.00000  Uiso   1.00
C931   C     0.15284   0.15874   0.20359   0.00000  Uiso   1.00
C932   C     0.16903   0.11934   0.19509   0.00000  Uiso   1.00
C933   C     0.17865   0.05134   0.20354   0.00000  Uiso   1.00
C934   C     0.25436   0.21331   0.05888   0.00000  Uiso   1.00
C935   C     0.22553   0.23094   0.03074   0.00000  Uiso   1.00
C936   C     0.24017   0.23680   0.96071   0.00000  Uiso   1.00
C937   C     0.20860   0.25333   0.94572   0.00000  Uiso   1.00
C938   C     0.25389   0.24481   0.10915   0.00000  Uiso   1.00
C939   C     0.29237   0.26233   0.10505   0.00000  Uiso   1.00
C940   C     0.28468   0.29053   0.15607   0.00000  Uiso   1.00
C941   C     0.22743   0.17716   0.10383   0.00000  Uiso   1.00
C942   C     0.24367   0.13780   0.09526   0.00000  Uiso   1.00
C943   C     0.21370   0.10904   0.14182   0.00000  Uiso   1.00
H944   H     0.13755   0.24025   0.19819   0.00000  Uiso   1.00
H945   H     0.11484   0.26570   0.11020   0.00000  Uiso   1.00
H946   H     0.16703   0.29122   0.25452   0.00000  Uiso   1.00
H947   H     0.11833   0.16671   0.24473   0.00000  Uiso   1.00
H948   H     0.10932   0.28940   0.98921   0.00000  Uiso   1.00
H949   H     0.21937   0.34320   0.29353   0.00000  Uiso   1.00
H950   H     0.11668   0.08064   0.27289   0.00000  Uiso   1.00
H951   H     0.28908   0.20530   0.01748   0.00000  Uiso   1.00
H952   H     0.27468   0.22884   0.91957   0.00000  Uiso   1.00
H953   H     0.32687   0.25436   0.06389   0.00000  Uiso   1.00
H954   H     0.27817   0.12985   0.05411   0.00000  Uiso   1.00
H955   H     0.23906   0.25948   0.83448   0.00000  Uiso   1.00
H956   H     0.34911   0.31328   0.13881   0.00000  Uiso   1.00
H957   H     0.74642   0.55072   0.11817   0.00000  Uiso   1.00
O958   O     0.16198   0.29057   0.85070   0.00000  Uiso   1.00
O959   O     0.30637   0.36114   0.24997   0.00000  Uiso   1.00
O960   O     0.17164   0.01668   0.22289   0.00000  Uiso   1.00
N961   N     0.14183   0.27912   0.96623   0.00000  Uiso   1.00
N962   N     0.24472   0.32942   0.25074   0.00000  Uiso   1.00
N963   N     0.14872   0.08396   0.23146   0.00000  Uiso   1.00
N964   N     0.21164   0.26302   0.88297   0.00000  Uiso   1.00
N965   N     0.31453   0.31332   0.16749   0.00000  Uiso   1.00
N966   N     0.21853   0.06786   0.14821   0.00000  Uiso   1.00
C967   C     0.83732   0.03830   0.00481   0.00000  Uiso   1.00
C968   C     0.79134   0.05974   0.04932   0.00000  Uiso   1.00
C969   C     0.78476   0.10130   0.05591   0.00000  Uiso   1.00
C970   C     0.74003   0.11494   0.09917   0.00000  Uiso   1.00
C971   C     0.67422   0.15233   0.16292   0.00000  Uiso   1.00
C972   C     0.84287   0.01043   0.05442   0.00000  Uiso   1.00
C973   C     0.87962   0.01052   0.06528   0.00000  Uiso   1.00
C974   C     0.87828   0.98264   0.11282   0.00000  Uiso   1.00
C975   C     0.89249   0.94345   0.18445   0.00000  Uiso   1.00
C976   C     0.83134   0.01070   0.95533   0.00000  Uiso   1.00
C977   C     0.85841   0.01100   0.88288   0.00000  Uiso   1.00
C978   C     0.84737   0.98334   0.84700   0.00000  Uiso   1.00
C979   C     0.34369   0.44458   0.76478   0.00000  Uiso   1.00
C980   C     0.26958   0.48863   0.06992   0.00000  Uiso   1.00
C981   C     0.25454   0.53276   0.08468   0.00000  Uiso   1.00
C982   C     0.20981   0.54634   0.12794   0.00000  Uiso   1.00
C983   C     0.20317   0.58791   0.13459   0.00000  Uiso   1.00
C984   C     0.30608   0.48345   0.08978   0.00000  Uiso   1.00
C985   C     0.30468   0.45556   0.13731   0.00000  Uiso   1.00
C986   C     0.34142   0.45561   0.14825   0.00000  Uiso   1.00
C987   C     0.29455   0.48372   0.99069   0.00000  Uiso   1.00
C988   C     0.28347   0.45605   0.95492   0.00000  Uiso   1.00
C989   C     0.31051   0.45632   0.88243   0.00000  Uiso   1.00
H990   H     0.86597   0.05931   0.97728   0.00000  Uiso   1.00
H991   H     0.81324   0.12217   0.02853   0.00000  Uiso   1.00
H992   H     0.90809   0.03140   0.03790   0.00000  Uiso   1.00
H993   H     0.88688   0.03189   0.85553   0.00000  Uiso   1.00
H994   H     0.73856   0.17996   0.10097   0.00000  Uiso   1.00
H995   H     0.93857   0.98856   0.12070   0.00000  Uiso   1.00
H996   H     0.89384   0.98959   0.73614   0.00000  Uiso   1.00
H997   H     0.24094   0.46762   0.09746   0.00000  Uiso   1.00
H998   H     0.18135   0.52546   0.15530   0.00000  Uiso   1.00
H999   H     0.27620   0.43469   0.16467   0.00000  Uiso   1.00
H1000  H     0.25499   0.43518   0.98230   0.00000  Uiso   1.00
H1001  H     0.13151   0.60147   0.20387   0.00000  Uiso   1.00
H1002  H     0.33152   0.41006   0.22359   0.00000  Uiso   1.00
H1003  H     0.28679   0.41110   0.83903   0.00000  Uiso   1.00
O1004  O     0.64809   0.18041   0.18832   0.00000  Uiso   1.00
O1005  O     0.91050   0.92930   0.21419   0.00000  Uiso   1.00
O1006  O     0.35182   0.43065   0.70966   0.00000  Uiso   1.00
N1007  N     0.72154   0.15355   0.11724   0.00000  Uiso   1.00
N1008  N     0.90853   0.97461   0.13569   0.00000  Uiso   1.00
N1009  N     0.86673   0.97556   0.77616   0.00000  Uiso   1.00
N1010  N     0.16394   0.61131   0.17261   0.00000  Uiso   1.00
N1011  N     0.35093   0.43237   0.19106   0.00000  Uiso   1.00
N1012  N     0.30913   0.43333   0.83152   0.00000  Uiso   1.00
C1013  C     0.99002   0.26071   0.22880   0.00000  Uiso   1.00
C1014  C     0.96764   0.22880   0.20655   0.00000  Uiso   1.00
C1015  C     0.98793   0.21032   0.14147   0.00000  Uiso   1.00
C1016  C     0.96175   0.18190   0.13142   0.00000  Uiso   1.00
C1017  C     0.93381   0.13383   0.08878   0.00000  Uiso   1.00
C1018  C     0.95792   0.29718   0.25281   0.00000  Uiso   1.00
C1019  C     0.97005   0.33618   0.22662   0.00000  Uiso   1.00
C1020  C     0.93569   0.36531   0.25554   0.00000  Uiso   1.00
C1021  C     0.89268   0.42340   0.28474   0.00000  Uiso   1.00
C1022  C     0.98791   0.24409   0.29413   0.00000  Uiso   1.00
C1023  C     0.02524   0.23847   0.30270   0.00000  Uiso   1.00
C1024  C     0.01614   0.22292   0.36640   0.00000  Uiso   1.00
C1025  C     0.01968   0.19858   0.45976   0.00000  Uiso   1.00
C1026  C     0.90745   0.24311   0.32671   0.00000  Uiso   1.00
C1027  C     0.92279   0.21925   0.25973   0.00000  Uiso   1.00
C1028  C     0.89658   0.19085   0.24979   0.00000  Uiso   1.00
C1029  C     0.91682   0.17232   0.18470   0.00000  Uiso   1.00
C1030  C     0.91308   0.28762   0.30599   0.00000  Uiso   1.00
C1031  C     0.87870   0.31671   0.33495   0.00000  Uiso   1.00
C1032  C     0.89077   0.35574   0.30881   0.00000  Uiso   1.00
C1033  C     0.94306   0.23453   0.34731   0.00000  Uiso   1.00
C1034  C     0.93389   0.21900   0.41102   0.00000  Uiso   1.00
C1035  C     0.97121   0.21335   0.41968   0.00000  Uiso   1.00
H1036  H     0.02493   0.26815   0.18740   0.00000  Uiso   1.00
H1037  H     0.02263   0.21773   0.10032   0.00000  Uiso   1.00
H1038  H     0.00476   0.34357   0.18547   0.00000  Uiso   1.00
H1039  H     0.05994   0.24587   0.26153   0.00000  Uiso   1.00
H1040  H     0.00030   0.15762   0.02722   0.00000  Uiso   1.00
H1041  H     0.96261   0.42295   0.20679   0.00000  Uiso   1.00
H1042  H     0.07899   0.21695   0.36717   0.00000  Uiso   1.00
H1043  H     0.87253   0.23567   0.36812   0.00000  Uiso   1.00
H1044  H     0.86187   0.18346   0.29096   0.00000  Uiso   1.00
H1045  H     0.84400   0.30930   0.37611   0.00000  Uiso   1.00
H1046  H     0.89919   0.21160   0.45216   0.00000  Uiso   1.00
H1047  H     0.86982   0.12980   0.18195   0.00000  Uiso   1.00
H1048  H     0.83213   0.39514   0.36152   0.00000  Uiso   1.00
H1049  H     0.94851   0.18913   0.52190   0.00000  Uiso   1.00
O1050  O     0.93079   0.10996   0.05056   0.00000  Uiso   1.00
O1051  O     0.88135   0.45807   0.28615   0.00000  Uiso   1.00
O1052  O     0.03403   0.18780   0.49657   0.00000  Uiso   1.00
N1053  N     0.97106   0.15823   0.07423   0.00000  Uiso   1.00
N1054  N     0.93582   0.40630   0.24211   0.00000  Uiso   1.00
N1055  N     0.04462   0.21371   0.39206   0.00000  Uiso   1.00
N1056  N     0.90085   0.14326   0.15749   0.00000  Uiso   1.00
N1057  N     0.86561   0.39134   0.32537   0.00000  Uiso   1.00
N1058  N     0.97441   0.19875   0.47532   0.00000  Uiso   1.00
C1059  C     0.76979   0.37068   0.95876   0.00000  Uiso   1.00
C1060  C     0.75942   0.35501   0.02972   0.00000  Uiso   1.00
C1061  C     0.78930   0.33291   0.04205   0.00000  Uiso   1.00
C1062  C     0.77332   0.32138   0.11067   0.00000  Uiso   1.00
C1063  C     0.76394   0.29547   0.21259   0.00000  Uiso   1.00
C1064  C     0.73215   0.35369   0.94790   0.00000  Uiso   1.00
C1065  C     0.73911   0.33048   0.89143   0.00000  Uiso   1.00
C1066  C     0.70018   0.31784   0.89116   0.00000  Uiso   1.00
C1067  C     0.64846   0.28991   0.86603   0.00000  Uiso   1.00
C1068  C     0.76196   0.41625   0.96713   0.00000  Uiso   1.00
C1069  C     0.79397   0.44564   0.92681   0.00000  Uiso   1.00
C1070  C     0.78013   0.48568   0.94273   0.00000  Uiso   1.00
C1071  C     0.77469   0.55489   0.94745   0.00000  Uiso   1.00
C1072  C     0.68829   0.38952   0.05868   0.00000  Uiso   1.00
C1073  C     0.71515   0.36524   0.08399   0.00000  Uiso   1.00
C1074  C     0.69912   0.35375   0.15261   0.00000  Uiso   1.00
C1075  C     0.72897   0.33163   0.16504   0.00000  Uiso   1.00
C1076  C     0.68788   0.36392   0.00217   0.00000  Uiso   1.00
C1077  C     0.64893   0.35132   0.00198   0.00000  Uiso   1.00
C1078  C     0.65583   0.32809   0.94553   0.00000  Uiso   1.00
C1079  C     0.71769   0.42648   0.02140   0.00000  Uiso   1.00
C1080  C     0.70379   0.46648   0.03737   0.00000  Uiso   1.00
C1081  C     0.73578   0.49593   0.99710   0.00000  Uiso   1.00
H1082  H     0.80426   0.36271   0.91650   0.00000  Uiso   1.00
H1083  H     0.82355   0.32499   0.00003   0.00000  Uiso   1.00
H1084  H     0.77337   0.32257   0.84943   0.00000  Uiso   1.00
H1085  H     0.82822   0.43771   0.88482   0.00000  Uiso   1.00
H1086  H     0.82541   0.28767   0.11658   0.00000  Uiso   1.00
H1087  H     0.71960   0.28257   0.79901   0.00000  Uiso   1.00
H1088  H     0.83527   0.52538   0.87363   0.00000  Uiso   1.00
H1089  H     0.65382   0.39748   0.10094   0.00000  Uiso   1.00
H1090  H     0.66486   0.36167   0.19460   0.00000  Uiso   1.00
H1091  H     0.61468   0.35924   0.04399   0.00000  Uiso   1.00
H1092  H     0.66953   0.47439   0.07938   0.00000  Uiso   1.00
H1093  H     0.69662   0.31744   0.27450   0.00000  Uiso   1.00
H1094  H     0.59080   0.31234   0.95692   0.00000  Uiso   1.00
H1095  H     0.20647   0.05515   0.03154   0.00000  Uiso   1.00
O1096  O     0.77099   0.27835   0.25382   0.00000  Uiso   1.00
O1097  O     0.63217   0.27167   0.83718   0.00000  Uiso   1.00
O1098  O     0.78392   0.59023   0.93508   0.00000  Uiso   1.00
N1099  N     0.79359   0.29960   0.14090   0.00000  Uiso   1.00
N1100  N     0.69466   0.29482   0.84399   0.00000  Uiso   1.00
N1101  N     0.80280   0.52183   0.91374   0.00000  Uiso   1.00
N1102  N     0.72429   0.31561   0.22587   0.00000  Uiso   1.00
N1103  N     0.62536   0.31084   0.92897   0.00000  Uiso   1.00
N1104  N     0.73349   0.53785   0.99871   0.00000  Uiso   1.00
