data_job_00575
_audit_creation_date              2018-12-19
_audit_creation_method            'Materials Studio'
_symmetry_space_group_name_H-M    'P1'
_symmetry_Int_Tables_number       1
_symmetry_cell_setting            triclinic
loop_
_symmetry_equiv_pos_as_xyz
  x,y,z
_cell_length_a                    21.8941
_cell_length_b                    47.2128
_cell_length_c                    8.5020
_cell_angle_alpha                 90.0000
_cell_angle_beta                  90.0000
_cell_angle_gamma                 90.0000
loop_
_atom_site_label
_atom_site_type_symbol
_atom_site_fract_x
_atom_site_fract_y
_atom_site_fract_z
_atom_site_U_iso_or_equiv
_atom_site_adp_type
_atom_site_occupancy
C1     C     0.09284   0.30182   0.38630   0.00000  Uiso   1.00
C2     C     0.08576   0.27218   0.45521   0.00000  Uiso   1.00
C3     C     0.04248   0.25230   0.41013   0.00000  Uiso   1.00
C4     C     0.04350   0.22640   0.48748   0.00000  Uiso   1.00
C5     C     0.02597   0.18126   0.57657   0.00000  Uiso   1.00
C6     C     0.08819   0.32222   0.52481   0.00000  Uiso   1.00
C7     C     0.04696   0.34442   0.53823   0.00000  Uiso   1.00
C8     C     0.05003   0.36065   0.67417   0.00000  Uiso   1.00
C9     C     0.03630   0.39322   0.87125   0.00000  Uiso   1.00
C10    C     0.15857   0.30376   0.32796   0.00000  Uiso   1.00
C11    C     0.17652   0.31045   0.17587   0.00000  Uiso   1.00
C12    C     0.23886   0.31115   0.14607   0.00000  Uiso   1.00
C13    C     0.33440   0.31506   0.03752   0.00000  Uiso   1.00
C14    C     0.17162   0.29118   0.60383   0.00000  Uiso   1.00
C15    C     0.12855   0.26640   0.57337   0.00000  Uiso   1.00
C16    C     0.12964   0.24053   0.65081   0.00000  Uiso   1.00
C17    C     0.08637   0.22062   0.60585   0.00000  Uiso   1.00
C18    C     0.13097   0.31645   0.64297   0.00000  Uiso   1.00
C19    C     0.13412   0.33266   0.77891   0.00000  Uiso   1.00
C20    C     0.09290   0.35487   0.79254   0.00000  Uiso   1.00
C21    C     0.20136   0.29799   0.44611   0.00000  Uiso   1.00
C22    C     0.26368   0.29868   0.41655   0.00000  Uiso   1.00
C23    C     0.28172   0.30537   0.26445   0.00000  Uiso   1.00
H24    H     0.05953   0.30631   0.29431   0.00000  Uiso   1.00
H25    H     0.00937   0.25677   0.31869   0.00000  Uiso   1.00
H26    H     0.01385   0.34888   0.44676   0.00000  Uiso   1.00
H27    H     0.14339   0.31492   0.08446   0.00000  Uiso   1.00
H28    H     0.97261   0.19931   0.39787   0.00000  Uiso   1.00
H29    H     0.98208   0.39353   0.66790   0.00000  Uiso   1.00
H30    H     0.25525   0.32191   0.90391   0.00000  Uiso   1.00
H31    H     0.20494   0.28669   0.69583   0.00000  Uiso   1.00
H32    H     0.16276   0.23607   0.74224   0.00000  Uiso   1.00
H33    H     0.16724   0.32818   0.87032   0.00000  Uiso   1.00
H34    H     0.29678   0.29421   0.50802   0.00000  Uiso   1.00
H35    H     0.09710   0.18250   0.74165   0.00000  Uiso   1.00
H36    H     0.10657   0.37673   0.01167   0.00000  Uiso   1.00
H37    H     0.37974   0.30510   0.24768   0.00000  Uiso   1.00
O38    O     0.00447   0.15797   0.59309   0.00000  Uiso   1.00
O39    O     0.01690   0.41278   0.94733   0.00000  Uiso   1.00
O40    O     0.37529   0.31881   0.94499   0.00000  Uiso   1.00
N41    N     0.00771   0.20230   0.47239   0.00000  Uiso   1.00
N42    N     0.01655   0.38388   0.72486   0.00000  Uiso   1.00
N43    N     0.27194   0.31693   0.01060   0.00000  Uiso   1.00
N44    N     0.07470   0.19326   0.65737   0.00000  Uiso   1.00
N45    N     0.08354   0.37484   0.90984   0.00000  Uiso   1.00
N46    N     0.33893   0.30788   0.19558   0.00000  Uiso   1.00
C47    C     0.09284   0.80182   0.88630   0.00000  Uiso   1.00
C48    C     0.08576   0.77218   0.95521   0.00000  Uiso   1.00
C49    C     0.04248   0.75230   0.91013   0.00000  Uiso   1.00
C50    C     0.04350   0.72640   0.98748   0.00000  Uiso   1.00
C51    C     0.02597   0.68126   0.07657   0.00000  Uiso   1.00
C52    C     0.08819   0.82222   0.02481   0.00000  Uiso   1.00
C53    C     0.04696   0.84442   0.03823   0.00000  Uiso   1.00
C54    C     0.05003   0.86065   0.17417   0.00000  Uiso   1.00
C55    C     0.03630   0.89322   0.37125   0.00000  Uiso   1.00
C56    C     0.15857   0.80376   0.82796   0.00000  Uiso   1.00
C57    C     0.17652   0.81045   0.67587   0.00000  Uiso   1.00
C58    C     0.23886   0.81115   0.64607   0.00000  Uiso   1.00
C59    C     0.33440   0.81506   0.53752   0.00000  Uiso   1.00
C60    C     0.17162   0.79118   0.10383   0.00000  Uiso   1.00
C61    C     0.12855   0.76640   0.07337   0.00000  Uiso   1.00
C62    C     0.12964   0.74053   0.15081   0.00000  Uiso   1.00
C63    C     0.08637   0.72062   0.10585   0.00000  Uiso   1.00
C64    C     0.13097   0.81645   0.14297   0.00000  Uiso   1.00
C65    C     0.13412   0.83266   0.27891   0.00000  Uiso   1.00
C66    C     0.09290   0.85487   0.29254   0.00000  Uiso   1.00
C67    C     0.20136   0.79799   0.94611   0.00000  Uiso   1.00
C68    C     0.26368   0.79868   0.91655   0.00000  Uiso   1.00
C69    C     0.28172   0.80537   0.76445   0.00000  Uiso   1.00
H70    H     0.05953   0.80631   0.79431   0.00000  Uiso   1.00
H71    H     0.00937   0.75677   0.81869   0.00000  Uiso   1.00
H72    H     0.01385   0.84888   0.94676   0.00000  Uiso   1.00
H73    H     0.14339   0.81492   0.58446   0.00000  Uiso   1.00
H74    H     0.97261   0.69931   0.89787   0.00000  Uiso   1.00
H75    H     0.98208   0.89353   0.16790   0.00000  Uiso   1.00
H76    H     0.25525   0.82191   0.40391   0.00000  Uiso   1.00
H77    H     0.20494   0.78669   0.19583   0.00000  Uiso   1.00
H78    H     0.16276   0.73607   0.24224   0.00000  Uiso   1.00
H79    H     0.16724   0.82818   0.37032   0.00000  Uiso   1.00
H80    H     0.29678   0.79421   0.00802   0.00000  Uiso   1.00
H81    H     0.09710   0.68250   0.24165   0.00000  Uiso   1.00
H82    H     0.10657   0.87673   0.51167   0.00000  Uiso   1.00
H83    H     0.37974   0.80510   0.74768   0.00000  Uiso   1.00
O84    O     0.00447   0.65797   0.09309   0.00000  Uiso   1.00
O85    O     0.01690   0.91278   0.44733   0.00000  Uiso   1.00
O86    O     0.37529   0.81881   0.44499   0.00000  Uiso   1.00
N87    N     0.00771   0.70230   0.97239   0.00000  Uiso   1.00
N88    N     0.01655   0.88388   0.22486   0.00000  Uiso   1.00
N89    N     0.27194   0.81693   0.51060   0.00000  Uiso   1.00
N90    N     0.07470   0.69326   0.15737   0.00000  Uiso   1.00
N91    N     0.08354   0.87484   0.40984   0.00000  Uiso   1.00
N92    N     0.33893   0.80788   0.69558   0.00000  Uiso   1.00
C93    C     0.59284   0.30182   0.88630   0.00000  Uiso   1.00
C94    C     0.58576   0.27218   0.95521   0.00000  Uiso   1.00
C95    C     0.54248   0.25230   0.91013   0.00000  Uiso   1.00
C96    C     0.54350   0.22640   0.98748   0.00000  Uiso   1.00
C97    C     0.52597   0.18126   0.07657   0.00000  Uiso   1.00
C98    C     0.58819   0.32222   0.02481   0.00000  Uiso   1.00
C99    C     0.54696   0.34442   0.03823   0.00000  Uiso   1.00
C100   C     0.55003   0.36065   0.17417   0.00000  Uiso   1.00
C101   C     0.53630   0.39322   0.37125   0.00000  Uiso   1.00
C102   C     0.65857   0.30376   0.82796   0.00000  Uiso   1.00
C103   C     0.67652   0.31045   0.67587   0.00000  Uiso   1.00
C104   C     0.73886   0.31115   0.64607   0.00000  Uiso   1.00
C105   C     0.83440   0.31506   0.53752   0.00000  Uiso   1.00
C106   C     0.67162   0.29118   0.10383   0.00000  Uiso   1.00
C107   C     0.62855   0.26640   0.07337   0.00000  Uiso   1.00
C108   C     0.62964   0.24053   0.15081   0.00000  Uiso   1.00
C109   C     0.58637   0.22062   0.10585   0.00000  Uiso   1.00
C110   C     0.63097   0.31645   0.14297   0.00000  Uiso   1.00
C111   C     0.63412   0.33266   0.27891   0.00000  Uiso   1.00
C112   C     0.59290   0.35487   0.29254   0.00000  Uiso   1.00
C113   C     0.70136   0.29799   0.94611   0.00000  Uiso   1.00
C114   C     0.76368   0.29868   0.91655   0.00000  Uiso   1.00
C115   C     0.78172   0.30537   0.76445   0.00000  Uiso   1.00
H116   H     0.55953   0.30631   0.79431   0.00000  Uiso   1.00
H117   H     0.50937   0.25677   0.81869   0.00000  Uiso   1.00
H118   H     0.51385   0.34888   0.94676   0.00000  Uiso   1.00
H119   H     0.64339   0.31492   0.58446   0.00000  Uiso   1.00
H120   H     0.47261   0.19931   0.89787   0.00000  Uiso   1.00
H121   H     0.48208   0.39353   0.16790   0.00000  Uiso   1.00
H122   H     0.75525   0.32191   0.40391   0.00000  Uiso   1.00
H123   H     0.70494   0.28669   0.19583   0.00000  Uiso   1.00
H124   H     0.66276   0.23607   0.24224   0.00000  Uiso   1.00
H125   H     0.66724   0.32818   0.37032   0.00000  Uiso   1.00
H126   H     0.79678   0.29421   0.00802   0.00000  Uiso   1.00
H127   H     0.59710   0.18250   0.24165   0.00000  Uiso   1.00
H128   H     0.60657   0.37673   0.51167   0.00000  Uiso   1.00
H129   H     0.87974   0.30510   0.74768   0.00000  Uiso   1.00
O130   O     0.50447   0.15797   0.09309   0.00000  Uiso   1.00
O131   O     0.51690   0.41278   0.44733   0.00000  Uiso   1.00
O132   O     0.87529   0.31881   0.44499   0.00000  Uiso   1.00
N133   N     0.50771   0.20230   0.97239   0.00000  Uiso   1.00
N134   N     0.51655   0.38388   0.22486   0.00000  Uiso   1.00
N135   N     0.77194   0.31693   0.51060   0.00000  Uiso   1.00
N136   N     0.57470   0.19326   0.15737   0.00000  Uiso   1.00
N137   N     0.58354   0.37484   0.40984   0.00000  Uiso   1.00
N138   N     0.83893   0.30788   0.69558   0.00000  Uiso   1.00
C139   C     0.59284   0.80182   0.38630   0.00000  Uiso   1.00
C140   C     0.58576   0.77218   0.45521   0.00000  Uiso   1.00
C141   C     0.54248   0.75230   0.41013   0.00000  Uiso   1.00
C142   C     0.54350   0.72640   0.48748   0.00000  Uiso   1.00
C143   C     0.52597   0.68126   0.57657   0.00000  Uiso   1.00
C144   C     0.58819   0.82222   0.52481   0.00000  Uiso   1.00
C145   C     0.54696   0.84442   0.53823   0.00000  Uiso   1.00
C146   C     0.55003   0.86065   0.67417   0.00000  Uiso   1.00
C147   C     0.53630   0.89322   0.87125   0.00000  Uiso   1.00
C148   C     0.65857   0.80376   0.32796   0.00000  Uiso   1.00
C149   C     0.67652   0.81045   0.17587   0.00000  Uiso   1.00
C150   C     0.73886   0.81115   0.14607   0.00000  Uiso   1.00
C151   C     0.83440   0.81506   0.03752   0.00000  Uiso   1.00
C152   C     0.67162   0.79118   0.60383   0.00000  Uiso   1.00
C153   C     0.62855   0.76640   0.57337   0.00000  Uiso   1.00
C154   C     0.62964   0.74053   0.65081   0.00000  Uiso   1.00
C155   C     0.58637   0.72062   0.60585   0.00000  Uiso   1.00
C156   C     0.63097   0.81645   0.64297   0.00000  Uiso   1.00
C157   C     0.63412   0.83266   0.77891   0.00000  Uiso   1.00
C158   C     0.59290   0.85487   0.79254   0.00000  Uiso   1.00
C159   C     0.70136   0.79799   0.44611   0.00000  Uiso   1.00
C160   C     0.76368   0.79868   0.41655   0.00000  Uiso   1.00
C161   C     0.78172   0.80537   0.26445   0.00000  Uiso   1.00
H162   H     0.55953   0.80631   0.29431   0.00000  Uiso   1.00
H163   H     0.50937   0.75677   0.31869   0.00000  Uiso   1.00
H164   H     0.51385   0.84888   0.44676   0.00000  Uiso   1.00
H165   H     0.64339   0.81492   0.08446   0.00000  Uiso   1.00
H166   H     0.47261   0.69931   0.39787   0.00000  Uiso   1.00
H167   H     0.48208   0.89353   0.66790   0.00000  Uiso   1.00
H168   H     0.75525   0.82191   0.90391   0.00000  Uiso   1.00
H169   H     0.70494   0.78669   0.69583   0.00000  Uiso   1.00
H170   H     0.66276   0.73607   0.74224   0.00000  Uiso   1.00
H171   H     0.66724   0.82818   0.87032   0.00000  Uiso   1.00
H172   H     0.79678   0.79421   0.50802   0.00000  Uiso   1.00
H173   H     0.59710   0.68250   0.74165   0.00000  Uiso   1.00
H174   H     0.60657   0.87673   0.01167   0.00000  Uiso   1.00
H175   H     0.87974   0.80510   0.24768   0.00000  Uiso   1.00
O176   O     0.50447   0.65797   0.59309   0.00000  Uiso   1.00
O177   O     0.51690   0.91278   0.94733   0.00000  Uiso   1.00
O178   O     0.87529   0.81881   0.94499   0.00000  Uiso   1.00
N179   N     0.50771   0.70230   0.47239   0.00000  Uiso   1.00
N180   N     0.51655   0.88388   0.72486   0.00000  Uiso   1.00
N181   N     0.77194   0.81693   0.01060   0.00000  Uiso   1.00
N182   N     0.57470   0.69326   0.65737   0.00000  Uiso   1.00
N183   N     0.58354   0.87484   0.90984   0.00000  Uiso   1.00
N184   N     0.83893   0.80788   0.19558   0.00000  Uiso   1.00
C185   C     0.90716   0.69818   0.38630   0.00000  Uiso   1.00
C186   C     0.91424   0.72782   0.45521   0.00000  Uiso   1.00
C187   C     0.95752   0.74770   0.41013   0.00000  Uiso   1.00
C188   C     0.95650   0.77360   0.48748   0.00000  Uiso   1.00
C189   C     0.97403   0.81874   0.57657   0.00000  Uiso   1.00
C190   C     0.91181   0.67778   0.52481   0.00000  Uiso   1.00
C191   C     0.95304   0.65558   0.53823   0.00000  Uiso   1.00
C192   C     0.94997   0.63935   0.67417   0.00000  Uiso   1.00
C193   C     0.96370   0.60678   0.87125   0.00000  Uiso   1.00
C194   C     0.84143   0.69624   0.32796   0.00000  Uiso   1.00
C195   C     0.82348   0.68955   0.17587   0.00000  Uiso   1.00
C196   C     0.76114   0.68885   0.14607   0.00000  Uiso   1.00
C197   C     0.66560   0.68494   0.03752   0.00000  Uiso   1.00
C198   C     0.82838   0.70882   0.60383   0.00000  Uiso   1.00
C199   C     0.87145   0.73360   0.57337   0.00000  Uiso   1.00
C200   C     0.87036   0.75947   0.65081   0.00000  Uiso   1.00
C201   C     0.91363   0.77938   0.60585   0.00000  Uiso   1.00
C202   C     0.86903   0.68355   0.64297   0.00000  Uiso   1.00
C203   C     0.86588   0.66734   0.77891   0.00000  Uiso   1.00
C204   C     0.90710   0.64513   0.79254   0.00000  Uiso   1.00
C205   C     0.79864   0.70201   0.44611   0.00000  Uiso   1.00
C206   C     0.73632   0.70132   0.41655   0.00000  Uiso   1.00
C207   C     0.71828   0.69463   0.26445   0.00000  Uiso   1.00
H208   H     0.94047   0.69369   0.29431   0.00000  Uiso   1.00
H209   H     0.99063   0.74323   0.31869   0.00000  Uiso   1.00
H210   H     0.98615   0.65112   0.44676   0.00000  Uiso   1.00
H211   H     0.85661   0.68508   0.08446   0.00000  Uiso   1.00
H212   H     0.02739   0.80069   0.39787   0.00000  Uiso   1.00
H213   H     0.01792   0.60647   0.66790   0.00000  Uiso   1.00
H214   H     0.74475   0.67809   0.90391   0.00000  Uiso   1.00
H215   H     0.79506   0.71331   0.69583   0.00000  Uiso   1.00
H216   H     0.83724   0.76393   0.74224   0.00000  Uiso   1.00
H217   H     0.83276   0.67182   0.87032   0.00000  Uiso   1.00
H218   H     0.70322   0.70579   0.50802   0.00000  Uiso   1.00
H219   H     0.90290   0.81750   0.74165   0.00000  Uiso   1.00
H220   H     0.89343   0.62327   0.01167   0.00000  Uiso   1.00
H221   H     0.62026   0.69490   0.24768   0.00000  Uiso   1.00
O222   O     0.99553   0.84203   0.59309   0.00000  Uiso   1.00
O223   O     0.98310   0.58722   0.94733   0.00000  Uiso   1.00
O224   O     0.62471   0.68119   0.94499   0.00000  Uiso   1.00
N225   N     0.99229   0.79770   0.47239   0.00000  Uiso   1.00
N226   N     0.98345   0.61612   0.72486   0.00000  Uiso   1.00
N227   N     0.72806   0.68307   0.01060   0.00000  Uiso   1.00
N228   N     0.92530   0.80674   0.65737   0.00000  Uiso   1.00
N229   N     0.91646   0.62516   0.90984   0.00000  Uiso   1.00
N230   N     0.66107   0.69212   0.19558   0.00000  Uiso   1.00
C231   C     0.90716   0.19818   0.88630   0.00000  Uiso   1.00
C232   C     0.91424   0.22782   0.95521   0.00000  Uiso   1.00
C233   C     0.95752   0.24770   0.91013   0.00000  Uiso   1.00
C234   C     0.95650   0.27360   0.98748   0.00000  Uiso   1.00
C235   C     0.97403   0.31874   0.07657   0.00000  Uiso   1.00
C236   C     0.91181   0.17778   0.02481   0.00000  Uiso   1.00
C237   C     0.95304   0.15558   0.03823   0.00000  Uiso   1.00
C238   C     0.94997   0.13935   0.17417   0.00000  Uiso   1.00
C239   C     0.96370   0.10678   0.37125   0.00000  Uiso   1.00
C240   C     0.84143   0.19624   0.82796   0.00000  Uiso   1.00
C241   C     0.82348   0.18955   0.67587   0.00000  Uiso   1.00
C242   C     0.76114   0.18885   0.64607   0.00000  Uiso   1.00
C243   C     0.66560   0.18494   0.53752   0.00000  Uiso   1.00
C244   C     0.82838   0.20882   0.10383   0.00000  Uiso   1.00
C245   C     0.87145   0.23360   0.07337   0.00000  Uiso   1.00
C246   C     0.87036   0.25947   0.15081   0.00000  Uiso   1.00
C247   C     0.91363   0.27938   0.10585   0.00000  Uiso   1.00
C248   C     0.86903   0.18355   0.14297   0.00000  Uiso   1.00
C249   C     0.86588   0.16734   0.27891   0.00000  Uiso   1.00
C250   C     0.90710   0.14513   0.29254   0.00000  Uiso   1.00
C251   C     0.79864   0.20201   0.94611   0.00000  Uiso   1.00
C252   C     0.73632   0.20132   0.91655   0.00000  Uiso   1.00
C253   C     0.71828   0.19463   0.76445   0.00000  Uiso   1.00
H254   H     0.94047   0.19369   0.79431   0.00000  Uiso   1.00
H255   H     0.99063   0.24323   0.81869   0.00000  Uiso   1.00
H256   H     0.98615   0.15112   0.94676   0.00000  Uiso   1.00
H257   H     0.85661   0.18508   0.58446   0.00000  Uiso   1.00
H258   H     0.02739   0.30069   0.89787   0.00000  Uiso   1.00
H259   H     0.01792   0.10647   0.16790   0.00000  Uiso   1.00
H260   H     0.74475   0.17809   0.40391   0.00000  Uiso   1.00
H261   H     0.79506   0.21331   0.19583   0.00000  Uiso   1.00
H262   H     0.83724   0.26393   0.24224   0.00000  Uiso   1.00
H263   H     0.83276   0.17182   0.37032   0.00000  Uiso   1.00
H264   H     0.70322   0.20579   0.00802   0.00000  Uiso   1.00
H265   H     0.90290   0.31750   0.24165   0.00000  Uiso   1.00
H266   H     0.89343   0.12327   0.51167   0.00000  Uiso   1.00
H267   H     0.62026   0.19490   0.74768   0.00000  Uiso   1.00
O268   O     0.99553   0.34203   0.09309   0.00000  Uiso   1.00
O269   O     0.98310   0.08722   0.44733   0.00000  Uiso   1.00
O270   O     0.62471   0.18119   0.44499   0.00000  Uiso   1.00
N271   N     0.99229   0.29770   0.97239   0.00000  Uiso   1.00
N272   N     0.98345   0.11612   0.22486   0.00000  Uiso   1.00
N273   N     0.72806   0.18307   0.51060   0.00000  Uiso   1.00
N274   N     0.92530   0.30674   0.15737   0.00000  Uiso   1.00
N275   N     0.91646   0.12516   0.40984   0.00000  Uiso   1.00
N276   N     0.66107   0.19212   0.69558   0.00000  Uiso   1.00
C277   C     0.40716   0.69818   0.88630   0.00000  Uiso   1.00
C278   C     0.41424   0.72782   0.95521   0.00000  Uiso   1.00
C279   C     0.45752   0.74770   0.91013   0.00000  Uiso   1.00
C280   C     0.45650   0.77360   0.98748   0.00000  Uiso   1.00
C281   C     0.47403   0.81874   0.07657   0.00000  Uiso   1.00
C282   C     0.41181   0.67778   0.02481   0.00000  Uiso   1.00
C283   C     0.45304   0.65558   0.03823   0.00000  Uiso   1.00
C284   C     0.44997   0.63935   0.17417   0.00000  Uiso   1.00
C285   C     0.46370   0.60678   0.37125   0.00000  Uiso   1.00
C286   C     0.34143   0.69624   0.82796   0.00000  Uiso   1.00
C287   C     0.32348   0.68955   0.67587   0.00000  Uiso   1.00
C288   C     0.26114   0.68885   0.64607   0.00000  Uiso   1.00
C289   C     0.16560   0.68494   0.53752   0.00000  Uiso   1.00
C290   C     0.32838   0.70882   0.10383   0.00000  Uiso   1.00
C291   C     0.37145   0.73360   0.07337   0.00000  Uiso   1.00
C292   C     0.37036   0.75947   0.15081   0.00000  Uiso   1.00
C293   C     0.41363   0.77938   0.10585   0.00000  Uiso   1.00
C294   C     0.36903   0.68355   0.14297   0.00000  Uiso   1.00
C295   C     0.36588   0.66734   0.27891   0.00000  Uiso   1.00
C296   C     0.40710   0.64513   0.29254   0.00000  Uiso   1.00
C297   C     0.29864   0.70201   0.94611   0.00000  Uiso   1.00
C298   C     0.23632   0.70132   0.91655   0.00000  Uiso   1.00
C299   C     0.21828   0.69463   0.76445   0.00000  Uiso   1.00
H300   H     0.44047   0.69369   0.79431   0.00000  Uiso   1.00
H301   H     0.49063   0.74323   0.81869   0.00000  Uiso   1.00
H302   H     0.48615   0.65112   0.94676   0.00000  Uiso   1.00
H303   H     0.35661   0.68508   0.58446   0.00000  Uiso   1.00
H304   H     0.52739   0.80069   0.89787   0.00000  Uiso   1.00
H305   H     0.51792   0.60647   0.16790   0.00000  Uiso   1.00
H306   H     0.24475   0.67809   0.40391   0.00000  Uiso   1.00
H307   H     0.29506   0.71331   0.19583   0.00000  Uiso   1.00
H308   H     0.33724   0.76393   0.24224   0.00000  Uiso   1.00
H309   H     0.33276   0.67182   0.37032   0.00000  Uiso   1.00
H310   H     0.20322   0.70579   0.00802   0.00000  Uiso   1.00
H311   H     0.40290   0.81750   0.24165   0.00000  Uiso   1.00
H312   H     0.39343   0.62327   0.51167   0.00000  Uiso   1.00
H313   H     0.12026   0.69490   0.74768   0.00000  Uiso   1.00
O314   O     0.49553   0.84203   0.09309   0.00000  Uiso   1.00
O315   O     0.48310   0.58722   0.44733   0.00000  Uiso   1.00
O316   O     0.12471   0.68119   0.44499   0.00000  Uiso   1.00
N317   N     0.49229   0.79770   0.97239   0.00000  Uiso   1.00
N318   N     0.48345   0.61612   0.22486   0.00000  Uiso   1.00
N319   N     0.22806   0.68307   0.51060   0.00000  Uiso   1.00
N320   N     0.42530   0.80674   0.15737   0.00000  Uiso   1.00
N321   N     0.41646   0.62516   0.40984   0.00000  Uiso   1.00
N322   N     0.16107   0.69212   0.69558   0.00000  Uiso   1.00
C323   C     0.40716   0.19818   0.38630   0.00000  Uiso   1.00
C324   C     0.41424   0.22782   0.45521   0.00000  Uiso   1.00
C325   C     0.45752   0.24770   0.41013   0.00000  Uiso   1.00
C326   C     0.45650   0.27360   0.48748   0.00000  Uiso   1.00
C327   C     0.47403   0.31874   0.57657   0.00000  Uiso   1.00
C328   C     0.41181   0.17778   0.52481   0.00000  Uiso   1.00
C329   C     0.45304   0.15558   0.53823   0.00000  Uiso   1.00
C330   C     0.44997   0.13935   0.67417   0.00000  Uiso   1.00
C331   C     0.46370   0.10678   0.87125   0.00000  Uiso   1.00
C332   C     0.34143   0.19624   0.32796   0.00000  Uiso   1.00
C333   C     0.32348   0.18955   0.17587   0.00000  Uiso   1.00
C334   C     0.26114   0.18885   0.14607   0.00000  Uiso   1.00
C335   C     0.16560   0.18494   0.03752   0.00000  Uiso   1.00
C336   C     0.32838   0.20882   0.60383   0.00000  Uiso   1.00
C337   C     0.37145   0.23360   0.57337   0.00000  Uiso   1.00
C338   C     0.37036   0.25947   0.65081   0.00000  Uiso   1.00
C339   C     0.41363   0.27938   0.60585   0.00000  Uiso   1.00
C340   C     0.36903   0.18355   0.64297   0.00000  Uiso   1.00
C341   C     0.36588   0.16734   0.77891   0.00000  Uiso   1.00
C342   C     0.40710   0.14513   0.79254   0.00000  Uiso   1.00
C343   C     0.29864   0.20201   0.44611   0.00000  Uiso   1.00
C344   C     0.23632   0.20132   0.41655   0.00000  Uiso   1.00
C345   C     0.21828   0.19463   0.26445   0.00000  Uiso   1.00
H346   H     0.44047   0.19369   0.29431   0.00000  Uiso   1.00
H347   H     0.49063   0.24323   0.31869   0.00000  Uiso   1.00
H348   H     0.48615   0.15112   0.44676   0.00000  Uiso   1.00
H349   H     0.35661   0.18508   0.08446   0.00000  Uiso   1.00
H350   H     0.52739   0.30069   0.39787   0.00000  Uiso   1.00
H351   H     0.51792   0.10647   0.66790   0.00000  Uiso   1.00
H352   H     0.24475   0.17809   0.90391   0.00000  Uiso   1.00
H353   H     0.29506   0.21331   0.69583   0.00000  Uiso   1.00
H354   H     0.33724   0.26393   0.74224   0.00000  Uiso   1.00
H355   H     0.33276   0.17182   0.87032   0.00000  Uiso   1.00
H356   H     0.20322   0.20579   0.50802   0.00000  Uiso   1.00
H357   H     0.40290   0.31750   0.74165   0.00000  Uiso   1.00
H358   H     0.39343   0.12327   0.01167   0.00000  Uiso   1.00
H359   H     0.12026   0.19490   0.24768   0.00000  Uiso   1.00
O360   O     0.49553   0.34203   0.59309   0.00000  Uiso   1.00
O361   O     0.48310   0.08722   0.94733   0.00000  Uiso   1.00
O362   O     0.12471   0.18119   0.94499   0.00000  Uiso   1.00
N363   N     0.49229   0.29770   0.47239   0.00000  Uiso   1.00
N364   N     0.48345   0.11612   0.72486   0.00000  Uiso   1.00
N365   N     0.22806   0.18307   0.01060   0.00000  Uiso   1.00
N366   N     0.42530   0.30674   0.65737   0.00000  Uiso   1.00
N367   N     0.41646   0.12516   0.90984   0.00000  Uiso   1.00
N368   N     0.16107   0.19212   0.19558   0.00000  Uiso   1.00
C369   C     0.34284   0.94818   0.63630   0.00000  Uiso   1.00
C370   C     0.33576   0.97782   0.70521   0.00000  Uiso   1.00
C371   C     0.29248   0.99770   0.66013   0.00000  Uiso   1.00
C372   C     0.29350   0.02360   0.73748   0.00000  Uiso   1.00
C373   C     0.27597   0.06874   0.82657   0.00000  Uiso   1.00
C374   C     0.33819   0.92778   0.77481   0.00000  Uiso   1.00
C375   C     0.29696   0.90558   0.78823   0.00000  Uiso   1.00
C376   C     0.30003   0.88935   0.92417   0.00000  Uiso   1.00
C377   C     0.28630   0.85678   0.12125   0.00000  Uiso   1.00
C378   C     0.40857   0.94624   0.57796   0.00000  Uiso   1.00
C379   C     0.42652   0.93955   0.42587   0.00000  Uiso   1.00
C380   C     0.48886   0.93885   0.39607   0.00000  Uiso   1.00
C381   C     0.58440   0.93494   0.28752   0.00000  Uiso   1.00
C382   C     0.42162   0.95882   0.85383   0.00000  Uiso   1.00
C383   C     0.37855   0.98360   0.82337   0.00000  Uiso   1.00
C384   C     0.37964   0.00947   0.90081   0.00000  Uiso   1.00
C385   C     0.33637   0.02938   0.85585   0.00000  Uiso   1.00
C386   C     0.38097   0.93355   0.89297   0.00000  Uiso   1.00
C387   C     0.38412   0.91734   0.02891   0.00000  Uiso   1.00
C388   C     0.34290   0.89513   0.04254   0.00000  Uiso   1.00
C389   C     0.45136   0.95201   0.69611   0.00000  Uiso   1.00
C390   C     0.51368   0.95132   0.66655   0.00000  Uiso   1.00
C391   C     0.53172   0.94463   0.51445   0.00000  Uiso   1.00
H392   H     0.30953   0.94369   0.54431   0.00000  Uiso   1.00
H393   H     0.25937   0.99323   0.56869   0.00000  Uiso   1.00
H394   H     0.26385   0.90112   0.69676   0.00000  Uiso   1.00
H395   H     0.39339   0.93508   0.33446   0.00000  Uiso   1.00
H396   H     0.22261   0.05069   0.64787   0.00000  Uiso   1.00
H397   H     0.23208   0.85647   0.91790   0.00000  Uiso   1.00
H398   H     0.50525   0.92809   0.15391   0.00000  Uiso   1.00
H399   H     0.45494   0.96331   0.94583   0.00000  Uiso   1.00
H400   H     0.41276   0.01393   0.99224   0.00000  Uiso   1.00
H401   H     0.41724   0.92182   0.12032   0.00000  Uiso   1.00
H402   H     0.54678   0.95579   0.75802   0.00000  Uiso   1.00
H403   H     0.34710   0.06750   0.99165   0.00000  Uiso   1.00
H404   H     0.35657   0.87327   0.26167   0.00000  Uiso   1.00
H405   H     0.62974   0.94490   0.49768   0.00000  Uiso   1.00
O406   O     0.25447   0.09203   0.84309   0.00000  Uiso   1.00
O407   O     0.26690   0.83722   0.19733   0.00000  Uiso   1.00
O408   O     0.62529   0.93119   0.19499   0.00000  Uiso   1.00
N409   N     0.25771   0.04770   0.72239   0.00000  Uiso   1.00
N410   N     0.26655   0.86612   0.97486   0.00000  Uiso   1.00
N411   N     0.52194   0.93307   0.26060   0.00000  Uiso   1.00
N412   N     0.32470   0.05674   0.90737   0.00000  Uiso   1.00
N413   N     0.33354   0.87516   0.15984   0.00000  Uiso   1.00
N414   N     0.58893   0.94212   0.44558   0.00000  Uiso   1.00
C415   C     0.34284   0.44818   0.13630   0.00000  Uiso   1.00
C416   C     0.33576   0.47782   0.20521   0.00000  Uiso   1.00
C417   C     0.29248   0.49770   0.16013   0.00000  Uiso   1.00
C418   C     0.29350   0.52360   0.23748   0.00000  Uiso   1.00
C419   C     0.27597   0.56874   0.32657   0.00000  Uiso   1.00
C420   C     0.33819   0.42778   0.27481   0.00000  Uiso   1.00
C421   C     0.29696   0.40558   0.28823   0.00000  Uiso   1.00
C422   C     0.30003   0.38935   0.42417   0.00000  Uiso   1.00
C423   C     0.28630   0.35678   0.62125   0.00000  Uiso   1.00
C424   C     0.40857   0.44624   0.07796   0.00000  Uiso   1.00
C425   C     0.42652   0.43955   0.92587   0.00000  Uiso   1.00
C426   C     0.48886   0.43885   0.89607   0.00000  Uiso   1.00
C427   C     0.58440   0.43494   0.78752   0.00000  Uiso   1.00
C428   C     0.42162   0.45882   0.35383   0.00000  Uiso   1.00
C429   C     0.37855   0.48360   0.32337   0.00000  Uiso   1.00
C430   C     0.37964   0.50947   0.40081   0.00000  Uiso   1.00
C431   C     0.33637   0.52938   0.35585   0.00000  Uiso   1.00
C432   C     0.38097   0.43355   0.39297   0.00000  Uiso   1.00
C433   C     0.38412   0.41734   0.52891   0.00000  Uiso   1.00
C434   C     0.34290   0.39513   0.54254   0.00000  Uiso   1.00
C435   C     0.45136   0.45201   0.19611   0.00000  Uiso   1.00
C436   C     0.51368   0.45132   0.16655   0.00000  Uiso   1.00
C437   C     0.53172   0.44463   0.01445   0.00000  Uiso   1.00
H438   H     0.30953   0.44369   0.04431   0.00000  Uiso   1.00
H439   H     0.25937   0.49323   0.06869   0.00000  Uiso   1.00
H440   H     0.26385   0.40112   0.19676   0.00000  Uiso   1.00
H441   H     0.39339   0.43508   0.83446   0.00000  Uiso   1.00
H442   H     0.22261   0.55069   0.14787   0.00000  Uiso   1.00
H443   H     0.23208   0.35647   0.41790   0.00000  Uiso   1.00
H444   H     0.50525   0.42809   0.65391   0.00000  Uiso   1.00
H445   H     0.45494   0.46331   0.44583   0.00000  Uiso   1.00
H446   H     0.41276   0.51393   0.49224   0.00000  Uiso   1.00
H447   H     0.41724   0.42182   0.62032   0.00000  Uiso   1.00
H448   H     0.54678   0.45579   0.25802   0.00000  Uiso   1.00
H449   H     0.34710   0.56750   0.49165   0.00000  Uiso   1.00
H450   H     0.35657   0.37327   0.76167   0.00000  Uiso   1.00
H451   H     0.62974   0.44490   0.99768   0.00000  Uiso   1.00
O452   O     0.25447   0.59203   0.34309   0.00000  Uiso   1.00
O453   O     0.26690   0.33722   0.69733   0.00000  Uiso   1.00
O454   O     0.62529   0.43119   0.69499   0.00000  Uiso   1.00
N455   N     0.25771   0.54770   0.22239   0.00000  Uiso   1.00
N456   N     0.26655   0.36612   0.47486   0.00000  Uiso   1.00
N457   N     0.52194   0.43307   0.76060   0.00000  Uiso   1.00
N458   N     0.32470   0.55674   0.40737   0.00000  Uiso   1.00
N459   N     0.33354   0.37516   0.65984   0.00000  Uiso   1.00
N460   N     0.58893   0.44212   0.94558   0.00000  Uiso   1.00
C461   C     0.84284   0.94818   0.13630   0.00000  Uiso   1.00
C462   C     0.83576   0.97782   0.20521   0.00000  Uiso   1.00
C463   C     0.79248   0.99770   0.16013   0.00000  Uiso   1.00
C464   C     0.79350   0.02360   0.23748   0.00000  Uiso   1.00
C465   C     0.77597   0.06874   0.32657   0.00000  Uiso   1.00
C466   C     0.83819   0.92778   0.27481   0.00000  Uiso   1.00
C467   C     0.79696   0.90558   0.28823   0.00000  Uiso   1.00
C468   C     0.80003   0.88935   0.42417   0.00000  Uiso   1.00
C469   C     0.78630   0.85678   0.62125   0.00000  Uiso   1.00
C470   C     0.90857   0.94624   0.07796   0.00000  Uiso   1.00
C471   C     0.92652   0.93955   0.92587   0.00000  Uiso   1.00
C472   C     0.98886   0.93885   0.89607   0.00000  Uiso   1.00
C473   C     0.08440   0.93494   0.78752   0.00000  Uiso   1.00
C474   C     0.92162   0.95882   0.35383   0.00000  Uiso   1.00
C475   C     0.87855   0.98360   0.32337   0.00000  Uiso   1.00
C476   C     0.87964   0.00947   0.40081   0.00000  Uiso   1.00
C477   C     0.83637   0.02938   0.35585   0.00000  Uiso   1.00
C478   C     0.88097   0.93355   0.39297   0.00000  Uiso   1.00
C479   C     0.88412   0.91734   0.52891   0.00000  Uiso   1.00
C480   C     0.84290   0.89513   0.54254   0.00000  Uiso   1.00
C481   C     0.95136   0.95201   0.19611   0.00000  Uiso   1.00
C482   C     0.01368   0.95132   0.16655   0.00000  Uiso   1.00
C483   C     0.03172   0.94463   0.01445   0.00000  Uiso   1.00
H484   H     0.80953   0.94369   0.04431   0.00000  Uiso   1.00
H485   H     0.75937   0.99323   0.06869   0.00000  Uiso   1.00
H486   H     0.76385   0.90112   0.19676   0.00000  Uiso   1.00
H487   H     0.89339   0.93508   0.83446   0.00000  Uiso   1.00
H488   H     0.72261   0.05069   0.14787   0.00000  Uiso   1.00
H489   H     0.73208   0.85647   0.41790   0.00000  Uiso   1.00
H490   H     0.00525   0.92809   0.65391   0.00000  Uiso   1.00
H491   H     0.95494   0.96331   0.44583   0.00000  Uiso   1.00
H492   H     0.91276   0.01393   0.49224   0.00000  Uiso   1.00
H493   H     0.91724   0.92182   0.62032   0.00000  Uiso   1.00
H494   H     0.04678   0.95579   0.25802   0.00000  Uiso   1.00
H495   H     0.84710   0.06750   0.49165   0.00000  Uiso   1.00
H496   H     0.85657   0.87327   0.76167   0.00000  Uiso   1.00
H497   H     0.12974   0.94490   0.99768   0.00000  Uiso   1.00
O498   O     0.75447   0.09203   0.34309   0.00000  Uiso   1.00
O499   O     0.76690   0.83722   0.69733   0.00000  Uiso   1.00
O500   O     0.12529   0.93119   0.69499   0.00000  Uiso   1.00
N501   N     0.75771   0.04770   0.22239   0.00000  Uiso   1.00
N502   N     0.76655   0.86612   0.47486   0.00000  Uiso   1.00
N503   N     0.02194   0.93307   0.76060   0.00000  Uiso   1.00
N504   N     0.82470   0.05674   0.40737   0.00000  Uiso   1.00
N505   N     0.83354   0.87516   0.65984   0.00000  Uiso   1.00
N506   N     0.08893   0.94212   0.94558   0.00000  Uiso   1.00
C507   C     0.84284   0.44818   0.63630   0.00000  Uiso   1.00
C508   C     0.83576   0.47782   0.70521   0.00000  Uiso   1.00
C509   C     0.79248   0.49770   0.66013   0.00000  Uiso   1.00
C510   C     0.79350   0.52360   0.73748   0.00000  Uiso   1.00
C511   C     0.77597   0.56874   0.82657   0.00000  Uiso   1.00
C512   C     0.83819   0.42778   0.77481   0.00000  Uiso   1.00
C513   C     0.79696   0.40558   0.78823   0.00000  Uiso   1.00
C514   C     0.80003   0.38935   0.92417   0.00000  Uiso   1.00
C515   C     0.78630   0.35678   0.12125   0.00000  Uiso   1.00
C516   C     0.90857   0.44624   0.57796   0.00000  Uiso   1.00
C517   C     0.92652   0.43955   0.42587   0.00000  Uiso   1.00
C518   C     0.98886   0.43885   0.39607   0.00000  Uiso   1.00
C519   C     0.08440   0.43494   0.28752   0.00000  Uiso   1.00
C520   C     0.92162   0.45882   0.85383   0.00000  Uiso   1.00
C521   C     0.87855   0.48360   0.82337   0.00000  Uiso   1.00
C522   C     0.87964   0.50947   0.90081   0.00000  Uiso   1.00
C523   C     0.83637   0.52938   0.85585   0.00000  Uiso   1.00
C524   C     0.88097   0.43355   0.89297   0.00000  Uiso   1.00
C525   C     0.88412   0.41734   0.02891   0.00000  Uiso   1.00
C526   C     0.84290   0.39513   0.04254   0.00000  Uiso   1.00
C527   C     0.95136   0.45201   0.69611   0.00000  Uiso   1.00
C528   C     0.01368   0.45132   0.66655   0.00000  Uiso   1.00
C529   C     0.03172   0.44463   0.51445   0.00000  Uiso   1.00
H530   H     0.80953   0.44369   0.54431   0.00000  Uiso   1.00
H531   H     0.75937   0.49323   0.56869   0.00000  Uiso   1.00
H532   H     0.76385   0.40112   0.69676   0.00000  Uiso   1.00
H533   H     0.89339   0.43508   0.33446   0.00000  Uiso   1.00
H534   H     0.72261   0.55069   0.64787   0.00000  Uiso   1.00
H535   H     0.73208   0.35647   0.91790   0.00000  Uiso   1.00
H536   H     0.00525   0.42809   0.15391   0.00000  Uiso   1.00
H537   H     0.95494   0.46331   0.94583   0.00000  Uiso   1.00
H538   H     0.91276   0.51393   0.99224   0.00000  Uiso   1.00
H539   H     0.91724   0.42182   0.12032   0.00000  Uiso   1.00
H540   H     0.04678   0.45579   0.75802   0.00000  Uiso   1.00
H541   H     0.84710   0.56750   0.99165   0.00000  Uiso   1.00
H542   H     0.85657   0.37327   0.26167   0.00000  Uiso   1.00
H543   H     0.12974   0.44490   0.49768   0.00000  Uiso   1.00
O544   O     0.75447   0.59203   0.84309   0.00000  Uiso   1.00
O545   O     0.76690   0.33722   0.19733   0.00000  Uiso   1.00
O546   O     0.12529   0.43119   0.19499   0.00000  Uiso   1.00
N547   N     0.75771   0.54770   0.72239   0.00000  Uiso   1.00
N548   N     0.76655   0.36612   0.97486   0.00000  Uiso   1.00
N549   N     0.02194   0.43307   0.26060   0.00000  Uiso   1.00
N550   N     0.82470   0.55674   0.90737   0.00000  Uiso   1.00
N551   N     0.83354   0.37516   0.15984   0.00000  Uiso   1.00
N552   N     0.08893   0.44212   0.44558   0.00000  Uiso   1.00
C553   C     0.15716   0.55182   0.63630   0.00000  Uiso   1.00
C554   C     0.16424   0.52218   0.70521   0.00000  Uiso   1.00
C555   C     0.20752   0.50230   0.66013   0.00000  Uiso   1.00
C556   C     0.20650   0.47640   0.73748   0.00000  Uiso   1.00
C557   C     0.22403   0.43126   0.82657   0.00000  Uiso   1.00
C558   C     0.16181   0.57222   0.77481   0.00000  Uiso   1.00
C559   C     0.20304   0.59442   0.78823   0.00000  Uiso   1.00
C560   C     0.19997   0.61065   0.92417   0.00000  Uiso   1.00
C561   C     0.21370   0.64322   0.12125   0.00000  Uiso   1.00
C562   C     0.09143   0.55376   0.57796   0.00000  Uiso   1.00
C563   C     0.07348   0.56045   0.42587   0.00000  Uiso   1.00
C564   C     0.01114   0.56115   0.39607   0.00000  Uiso   1.00
C565   C     0.91560   0.56506   0.28752   0.00000  Uiso   1.00
C566   C     0.07838   0.54118   0.85383   0.00000  Uiso   1.00
C567   C     0.12145   0.51640   0.82337   0.00000  Uiso   1.00
C568   C     0.12036   0.49053   0.90081   0.00000  Uiso   1.00
C569   C     0.16363   0.47062   0.85585   0.00000  Uiso   1.00
C570   C     0.11903   0.56645   0.89297   0.00000  Uiso   1.00
C571   C     0.11588   0.58266   0.02891   0.00000  Uiso   1.00
C572   C     0.15710   0.60487   0.04254   0.00000  Uiso   1.00
C573   C     0.04864   0.54799   0.69611   0.00000  Uiso   1.00
C574   C     0.98632   0.54868   0.66655   0.00000  Uiso   1.00
C575   C     0.96828   0.55537   0.51445   0.00000  Uiso   1.00
H576   H     0.19047   0.55631   0.54431   0.00000  Uiso   1.00
H577   H     0.24063   0.50677   0.56869   0.00000  Uiso   1.00
H578   H     0.23615   0.59888   0.69676   0.00000  Uiso   1.00
H579   H     0.10661   0.56492   0.33446   0.00000  Uiso   1.00
H580   H     0.27739   0.44931   0.64787   0.00000  Uiso   1.00
H581   H     0.26792   0.64353   0.91790   0.00000  Uiso   1.00
H582   H     0.99475   0.57191   0.15391   0.00000  Uiso   1.00
H583   H     0.04506   0.53669   0.94583   0.00000  Uiso   1.00
H584   H     0.08724   0.48607   0.99224   0.00000  Uiso   1.00
H585   H     0.08276   0.57818   0.12032   0.00000  Uiso   1.00
H586   H     0.95322   0.54421   0.75802   0.00000  Uiso   1.00
H587   H     0.15290   0.43250   0.99165   0.00000  Uiso   1.00
H588   H     0.14343   0.62673   0.26167   0.00000  Uiso   1.00
H589   H     0.87026   0.55510   0.49768   0.00000  Uiso   1.00
O590   O     0.24553   0.40797   0.84309   0.00000  Uiso   1.00
O591   O     0.23310   0.66278   0.19733   0.00000  Uiso   1.00
O592   O     0.87471   0.56881   0.19499   0.00000  Uiso   1.00
N593   N     0.24229   0.45230   0.72239   0.00000  Uiso   1.00
N594   N     0.23345   0.63388   0.97486   0.00000  Uiso   1.00
N595   N     0.97806   0.56693   0.26060   0.00000  Uiso   1.00
N596   N     0.17530   0.44326   0.90737   0.00000  Uiso   1.00
N597   N     0.16646   0.62484   0.15984   0.00000  Uiso   1.00
N598   N     0.91107   0.55788   0.44558   0.00000  Uiso   1.00
C599   C     0.15716   0.05182   0.13630   0.00000  Uiso   1.00
C600   C     0.16424   0.02218   0.20521   0.00000  Uiso   1.00
C601   C     0.20752   0.00230   0.16013   0.00000  Uiso   1.00
C602   C     0.20650   0.97640   0.23748   0.00000  Uiso   1.00
C603   C     0.22403   0.93126   0.32657   0.00000  Uiso   1.00
C604   C     0.16181   0.07222   0.27481   0.00000  Uiso   1.00
C605   C     0.20304   0.09442   0.28823   0.00000  Uiso   1.00
C606   C     0.19997   0.11065   0.42417   0.00000  Uiso   1.00
C607   C     0.21370   0.14322   0.62125   0.00000  Uiso   1.00
C608   C     0.09143   0.05376   0.07796   0.00000  Uiso   1.00
C609   C     0.07348   0.06045   0.92587   0.00000  Uiso   1.00
C610   C     0.01114   0.06115   0.89607   0.00000  Uiso   1.00
C611   C     0.91560   0.06506   0.78752   0.00000  Uiso   1.00
C612   C     0.07838   0.04118   0.35383   0.00000  Uiso   1.00
C613   C     0.12145   0.01640   0.32337   0.00000  Uiso   1.00
C614   C     0.12036   0.99053   0.40081   0.00000  Uiso   1.00
C615   C     0.16363   0.97062   0.35585   0.00000  Uiso   1.00
C616   C     0.11903   0.06645   0.39297   0.00000  Uiso   1.00
C617   C     0.11588   0.08266   0.52891   0.00000  Uiso   1.00
C618   C     0.15710   0.10487   0.54254   0.00000  Uiso   1.00
C619   C     0.04864   0.04799   0.19611   0.00000  Uiso   1.00
C620   C     0.98632   0.04868   0.16655   0.00000  Uiso   1.00
C621   C     0.96828   0.05537   0.01445   0.00000  Uiso   1.00
H622   H     0.19047   0.05631   0.04431   0.00000  Uiso   1.00
H623   H     0.24063   0.00677   0.06869   0.00000  Uiso   1.00
H624   H     0.23615   0.09888   0.19676   0.00000  Uiso   1.00
H625   H     0.10661   0.06492   0.83446   0.00000  Uiso   1.00
H626   H     0.27739   0.94931   0.14787   0.00000  Uiso   1.00
H627   H     0.26792   0.14353   0.41790   0.00000  Uiso   1.00
H628   H     0.99475   0.07191   0.65391   0.00000  Uiso   1.00
H629   H     0.04506   0.03669   0.44583   0.00000  Uiso   1.00
H630   H     0.08724   0.98607   0.49224   0.00000  Uiso   1.00
H631   H     0.08276   0.07818   0.62032   0.00000  Uiso   1.00
H632   H     0.95322   0.04421   0.25802   0.00000  Uiso   1.00
H633   H     0.15290   0.93250   0.49165   0.00000  Uiso   1.00
H634   H     0.14343   0.12673   0.76167   0.00000  Uiso   1.00
H635   H     0.87026   0.05510   0.99768   0.00000  Uiso   1.00
O636   O     0.24553   0.90797   0.34309   0.00000  Uiso   1.00
O637   O     0.23310   0.16278   0.69733   0.00000  Uiso   1.00
O638   O     0.87471   0.06881   0.69499   0.00000  Uiso   1.00
N639   N     0.24229   0.95230   0.22239   0.00000  Uiso   1.00
N640   N     0.23345   0.13388   0.47486   0.00000  Uiso   1.00
N641   N     0.97806   0.06693   0.76060   0.00000  Uiso   1.00
N642   N     0.17530   0.94326   0.40737   0.00000  Uiso   1.00
N643   N     0.16646   0.12484   0.65984   0.00000  Uiso   1.00
N644   N     0.91107   0.05788   0.94558   0.00000  Uiso   1.00
C645   C     0.65716   0.55182   0.13630   0.00000  Uiso   1.00
C646   C     0.66424   0.52218   0.20521   0.00000  Uiso   1.00
C647   C     0.70752   0.50230   0.16013   0.00000  Uiso   1.00
C648   C     0.70650   0.47640   0.23748   0.00000  Uiso   1.00
C649   C     0.72403   0.43126   0.32657   0.00000  Uiso   1.00
C650   C     0.66181   0.57222   0.27481   0.00000  Uiso   1.00
C651   C     0.70304   0.59442   0.28823   0.00000  Uiso   1.00
C652   C     0.69997   0.61065   0.42417   0.00000  Uiso   1.00
C653   C     0.71370   0.64322   0.62125   0.00000  Uiso   1.00
C654   C     0.59143   0.55376   0.07796   0.00000  Uiso   1.00
C655   C     0.57348   0.56045   0.92587   0.00000  Uiso   1.00
C656   C     0.51114   0.56115   0.89607   0.00000  Uiso   1.00
C657   C     0.41560   0.56506   0.78752   0.00000  Uiso   1.00
C658   C     0.57838   0.54118   0.35383   0.00000  Uiso   1.00
C659   C     0.62145   0.51640   0.32337   0.00000  Uiso   1.00
C660   C     0.62036   0.49053   0.40081   0.00000  Uiso   1.00
C661   C     0.66363   0.47062   0.35585   0.00000  Uiso   1.00
C662   C     0.61903   0.56645   0.39297   0.00000  Uiso   1.00
C663   C     0.61588   0.58266   0.52891   0.00000  Uiso   1.00
C664   C     0.65710   0.60487   0.54254   0.00000  Uiso   1.00
C665   C     0.54864   0.54799   0.19611   0.00000  Uiso   1.00
C666   C     0.48632   0.54868   0.16655   0.00000  Uiso   1.00
C667   C     0.46828   0.55537   0.01445   0.00000  Uiso   1.00
H668   H     0.69047   0.55631   0.04431   0.00000  Uiso   1.00
H669   H     0.74063   0.50677   0.06869   0.00000  Uiso   1.00
H670   H     0.73615   0.59888   0.19676   0.00000  Uiso   1.00
H671   H     0.60661   0.56492   0.83446   0.00000  Uiso   1.00
H672   H     0.77739   0.44931   0.14787   0.00000  Uiso   1.00
H673   H     0.76792   0.64353   0.41790   0.00000  Uiso   1.00
H674   H     0.49475   0.57191   0.65391   0.00000  Uiso   1.00
H675   H     0.54506   0.53669   0.44583   0.00000  Uiso   1.00
H676   H     0.58724   0.48607   0.49224   0.00000  Uiso   1.00
H677   H     0.58276   0.57818   0.62032   0.00000  Uiso   1.00
H678   H     0.45322   0.54421   0.25802   0.00000  Uiso   1.00
H679   H     0.65290   0.43250   0.49165   0.00000  Uiso   1.00
H680   H     0.64343   0.62673   0.76167   0.00000  Uiso   1.00
H681   H     0.37026   0.55510   0.99768   0.00000  Uiso   1.00
O682   O     0.74553   0.40797   0.34309   0.00000  Uiso   1.00
O683   O     0.73310   0.66278   0.69733   0.00000  Uiso   1.00
O684   O     0.37471   0.56881   0.69499   0.00000  Uiso   1.00
N685   N     0.74229   0.45230   0.22239   0.00000  Uiso   1.00
N686   N     0.73345   0.63388   0.47486   0.00000  Uiso   1.00
N687   N     0.47806   0.56693   0.76060   0.00000  Uiso   1.00
N688   N     0.67530   0.44326   0.40737   0.00000  Uiso   1.00
N689   N     0.66646   0.62484   0.65984   0.00000  Uiso   1.00
N690   N     0.41107   0.55788   0.94558   0.00000  Uiso   1.00
C691   C     0.65716   0.05182   0.63630   0.00000  Uiso   1.00
C692   C     0.66424   0.02218   0.70521   0.00000  Uiso   1.00
C693   C     0.70752   0.00230   0.66013   0.00000  Uiso   1.00
C694   C     0.70650   0.97640   0.73748   0.00000  Uiso   1.00
C695   C     0.72403   0.93126   0.82657   0.00000  Uiso   1.00
C696   C     0.66181   0.07222   0.77481   0.00000  Uiso   1.00
C697   C     0.70304   0.09442   0.78823   0.00000  Uiso   1.00
C698   C     0.69997   0.11065   0.92417   0.00000  Uiso   1.00
C699   C     0.71370   0.14322   0.12125   0.00000  Uiso   1.00
C700   C     0.59143   0.05376   0.57796   0.00000  Uiso   1.00
C701   C     0.57348   0.06045   0.42587   0.00000  Uiso   1.00
C702   C     0.51114   0.06115   0.39607   0.00000  Uiso   1.00
C703   C     0.41560   0.06506   0.28752   0.00000  Uiso   1.00
C704   C     0.57838   0.04118   0.85383   0.00000  Uiso   1.00
C705   C     0.62145   0.01640   0.82337   0.00000  Uiso   1.00
C706   C     0.62036   0.99053   0.90081   0.00000  Uiso   1.00
C707   C     0.66363   0.97062   0.85585   0.00000  Uiso   1.00
C708   C     0.61903   0.06645   0.89297   0.00000  Uiso   1.00
C709   C     0.61588   0.08266   0.02891   0.00000  Uiso   1.00
C710   C     0.65710   0.10487   0.04254   0.00000  Uiso   1.00
C711   C     0.54864   0.04799   0.69611   0.00000  Uiso   1.00
C712   C     0.48632   0.04868   0.66655   0.00000  Uiso   1.00
C713   C     0.46828   0.05537   0.51445   0.00000  Uiso   1.00
H714   H     0.69047   0.05631   0.54431   0.00000  Uiso   1.00
H715   H     0.74063   0.00677   0.56869   0.00000  Uiso   1.00
H716   H     0.73615   0.09888   0.69676   0.00000  Uiso   1.00
H717   H     0.60661   0.06492   0.33446   0.00000  Uiso   1.00
H718   H     0.77739   0.94931   0.64787   0.00000  Uiso   1.00
H719   H     0.76792   0.14353   0.91790   0.00000  Uiso   1.00
H720   H     0.49475   0.07191   0.15391   0.00000  Uiso   1.00
H721   H     0.54506   0.03669   0.94583   0.00000  Uiso   1.00
H722   H     0.58724   0.98607   0.99224   0.00000  Uiso   1.00
H723   H     0.58276   0.07818   0.12032   0.00000  Uiso   1.00
H724   H     0.45322   0.04421   0.75802   0.00000  Uiso   1.00
H725   H     0.65290   0.93250   0.99165   0.00000  Uiso   1.00
H726   H     0.64343   0.12673   0.26167   0.00000  Uiso   1.00
H727   H     0.37026   0.05510   0.49768   0.00000  Uiso   1.00
O728   O     0.74553   0.90797   0.84309   0.00000  Uiso   1.00
O729   O     0.73310   0.16278   0.19733   0.00000  Uiso   1.00
O730   O     0.37471   0.06881   0.19499   0.00000  Uiso   1.00
N731   N     0.74229   0.95230   0.72239   0.00000  Uiso   1.00
N732   N     0.73345   0.13388   0.97486   0.00000  Uiso   1.00
N733   N     0.47806   0.06693   0.26060   0.00000  Uiso   1.00
N734   N     0.67530   0.94326   0.90737   0.00000  Uiso   1.00
N735   N     0.66646   0.12484   0.15984   0.00000  Uiso   1.00
N736   N     0.41107   0.05788   0.44558   0.00000  Uiso   1.00
