data_job_01698
_audit_creation_date              2018-12-19
_audit_creation_method            'Materials Studio'
_symmetry_space_group_name_H-M    'P1'
_symmetry_Int_Tables_number       1
_symmetry_cell_setting            triclinic
loop_
_symmetry_equiv_pos_as_xyz
  x,y,z
_cell_length_a                    17.5488
_cell_length_b                    17.5488
_cell_length_c                    35.0469
_cell_angle_alpha                 90.0000
_cell_angle_beta                  90.0000
_cell_angle_gamma                 90.0000
loop_
_atom_site_label
_atom_site_type_symbol
_atom_site_fract_x
_atom_site_fract_y
_atom_site_fract_z
_atom_site_U_iso_or_equiv
_atom_site_adp_type
_atom_site_occupancy
C1     C     0.33184   0.49429   0.25091   0.00000  Uiso   1.00
C2     C     0.26688   0.49358   0.27981   0.00000  Uiso   1.00
C3     C     0.26129   0.53996   0.31176   0.00000  Uiso   1.00
C4     C     0.19742   0.53055   0.33465   0.00000  Uiso   1.00
C5     C     0.10512   0.53762   0.38087   0.00000  Uiso   1.00
C6     C     0.36274   0.41310   0.24973   0.00000  Uiso   1.00
C7     C     0.43773   0.39182   0.25638   0.00000  Uiso   1.00
C8     C     0.45455   0.31466   0.25395   0.00000  Uiso   1.00
C9     C     0.51108   0.19680   0.25344   0.00000  Uiso   1.00
C10    C     0.29500   0.50820   0.21212   0.00000  Uiso   1.00
C11    C     0.31305   0.56687   0.18716   0.00000  Uiso   1.00
C12    C     0.27285   0.56977   0.15306   0.00000  Uiso   1.00
C13    C     0.22421   0.59957   0.09417   0.00000  Uiso   1.00
C14    C     0.22836   0.39511   0.23476   0.00000  Uiso   1.00
C15    C     0.21068   0.43971   0.27103   0.00000  Uiso   1.00
C16    C     0.14679   0.43023   0.29389   0.00000  Uiso   1.00
C17    C     0.14110   0.47659   0.32587   0.00000  Uiso   1.00
C18    C     0.30653   0.35923   0.24095   0.00000  Uiso   1.00
C19    C     0.32324   0.28209   0.23851   0.00000  Uiso   1.00
C20    C     0.39825   0.26069   0.24517   0.00000  Uiso   1.00
C21    C     0.23879   0.45433   0.20335   0.00000  Uiso   1.00
C22    C     0.19856   0.45714   0.16929   0.00000  Uiso   1.00
C23    C     0.21655   0.51580   0.14428   0.00000  Uiso   1.00
H24    H     0.37560   0.53622   0.25774   0.00000  Uiso   1.00
H25    H     0.30480   0.58164   0.31854   0.00000  Uiso   1.00
H26    H     0.48122   0.43352   0.26317   0.00000  Uiso   1.00
H27    H     0.35655   0.60855   0.19395   0.00000  Uiso   1.00
H28    H     0.20153   0.60821   0.38208   0.00000  Uiso   1.00
H29    H     0.57352   0.29590   0.26532   0.00000  Uiso   1.00
H30    H     0.31064   0.66498   0.11937   0.00000  Uiso   1.00
H31    H     0.18460   0.35316   0.22793   0.00000  Uiso   1.00
H32    H     0.10331   0.38853   0.28709   0.00000  Uiso   1.00
H33    H     0.27973   0.24042   0.23172   0.00000  Uiso   1.00
H34    H     0.15507   0.41544   0.16251   0.00000  Uiso   1.00
H35    H     0.03799   0.45148   0.35656   0.00000  Uiso   1.00
H36    H     0.40999   0.13917   0.23980   0.00000  Uiso   1.00
H37    H     0.14711   0.50825   0.09385   0.00000  Uiso   1.00
O38    O     0.06974   0.55640   0.40879   0.00000  Uiso   1.00
O39    O     0.55779   0.14667   0.25559   0.00000  Uiso   1.00
O40    O     0.21289   0.63089   0.06411   0.00000  Uiso   1.00
N41    N     0.17419   0.56648   0.36795   0.00000  Uiso   1.00
N42    N     0.52198   0.27449   0.25879   0.00000  Uiso   1.00
N43    N     0.27622   0.61953   0.12234   0.00000  Uiso   1.00
N44    N     0.08619   0.48214   0.35422   0.00000  Uiso   1.00
N45    N     0.43398   0.19015   0.24506   0.00000  Uiso   1.00
N46    N     0.18822   0.53520   0.10861   0.00000  Uiso   1.00
C47    C     0.83184   0.99429   0.75091   0.00000  Uiso   1.00
C48    C     0.76688   0.99358   0.77981   0.00000  Uiso   1.00
C49    C     0.76129   0.03996   0.81176   0.00000  Uiso   1.00
C50    C     0.69742   0.03055   0.83465   0.00000  Uiso   1.00
C51    C     0.60512   0.03762   0.88087   0.00000  Uiso   1.00
C52    C     0.86274   0.91310   0.74973   0.00000  Uiso   1.00
C53    C     0.93773   0.89182   0.75638   0.00000  Uiso   1.00
C54    C     0.95455   0.81466   0.75395   0.00000  Uiso   1.00
C55    C     0.01108   0.69680   0.75344   0.00000  Uiso   1.00
C56    C     0.79500   0.00820   0.71212   0.00000  Uiso   1.00
C57    C     0.81305   0.06687   0.68716   0.00000  Uiso   1.00
C58    C     0.77285   0.06977   0.65306   0.00000  Uiso   1.00
C59    C     0.72421   0.09957   0.59417   0.00000  Uiso   1.00
C60    C     0.72836   0.89511   0.73476   0.00000  Uiso   1.00
C61    C     0.71068   0.93971   0.77103   0.00000  Uiso   1.00
C62    C     0.64679   0.93023   0.79389   0.00000  Uiso   1.00
C63    C     0.64110   0.97659   0.82587   0.00000  Uiso   1.00
C64    C     0.80653   0.85923   0.74095   0.00000  Uiso   1.00
C65    C     0.82324   0.78209   0.73851   0.00000  Uiso   1.00
C66    C     0.89825   0.76069   0.74517   0.00000  Uiso   1.00
C67    C     0.73879   0.95433   0.70335   0.00000  Uiso   1.00
C68    C     0.69856   0.95714   0.66929   0.00000  Uiso   1.00
C69    C     0.71655   0.01580   0.64428   0.00000  Uiso   1.00
H70    H     0.87560   0.03622   0.75774   0.00000  Uiso   1.00
H71    H     0.80480   0.08164   0.81854   0.00000  Uiso   1.00
H72    H     0.98122   0.93352   0.76317   0.00000  Uiso   1.00
H73    H     0.85655   0.10855   0.69395   0.00000  Uiso   1.00
H74    H     0.70153   0.10821   0.88208   0.00000  Uiso   1.00
H75    H     0.07352   0.79590   0.76532   0.00000  Uiso   1.00
H76    H     0.81064   0.16498   0.61937   0.00000  Uiso   1.00
H77    H     0.68460   0.85316   0.72793   0.00000  Uiso   1.00
H78    H     0.60331   0.88853   0.78709   0.00000  Uiso   1.00
H79    H     0.77973   0.74042   0.73172   0.00000  Uiso   1.00
H80    H     0.65507   0.91544   0.66251   0.00000  Uiso   1.00
H81    H     0.53799   0.95148   0.85656   0.00000  Uiso   1.00
H82    H     0.90999   0.63917   0.73980   0.00000  Uiso   1.00
H83    H     0.64711   0.00825   0.59385   0.00000  Uiso   1.00
O84    O     0.56974   0.05640   0.90879   0.00000  Uiso   1.00
O85    O     0.05779   0.64667   0.75559   0.00000  Uiso   1.00
O86    O     0.71289   0.13089   0.56411   0.00000  Uiso   1.00
N87    N     0.67419   0.06648   0.86795   0.00000  Uiso   1.00
N88    N     0.02198   0.77449   0.75879   0.00000  Uiso   1.00
N89    N     0.77622   0.11953   0.62234   0.00000  Uiso   1.00
N90    N     0.58619   0.98214   0.85422   0.00000  Uiso   1.00
N91    N     0.93398   0.69015   0.74506   0.00000  Uiso   1.00
N92    N     0.68822   0.03520   0.60861   0.00000  Uiso   1.00
C93    C     0.16816   0.00571   0.75091   0.00000  Uiso   1.00
C94    C     0.23312   0.00642   0.77981   0.00000  Uiso   1.00
C95    C     0.23871   0.96004   0.81176   0.00000  Uiso   1.00
C96    C     0.30258   0.96945   0.83465   0.00000  Uiso   1.00
C97    C     0.39488   0.96238   0.88087   0.00000  Uiso   1.00
C98    C     0.13726   0.08690   0.74973   0.00000  Uiso   1.00
C99    C     0.06227   0.10818   0.75638   0.00000  Uiso   1.00
C100   C     0.04545   0.18534   0.75395   0.00000  Uiso   1.00
C101   C     0.98892   0.30320   0.75344   0.00000  Uiso   1.00
C102   C     0.20500   0.99180   0.71212   0.00000  Uiso   1.00
C103   C     0.18695   0.93313   0.68716   0.00000  Uiso   1.00
C104   C     0.22715   0.93023   0.65306   0.00000  Uiso   1.00
C105   C     0.27579   0.90043   0.59417   0.00000  Uiso   1.00
C106   C     0.27164   0.10489   0.73476   0.00000  Uiso   1.00
C107   C     0.28932   0.06029   0.77103   0.00000  Uiso   1.00
C108   C     0.35321   0.06977   0.79389   0.00000  Uiso   1.00
C109   C     0.35890   0.02341   0.82587   0.00000  Uiso   1.00
C110   C     0.19347   0.14077   0.74095   0.00000  Uiso   1.00
C111   C     0.17676   0.21791   0.73851   0.00000  Uiso   1.00
C112   C     0.10175   0.23931   0.74517   0.00000  Uiso   1.00
C113   C     0.26121   0.04567   0.70335   0.00000  Uiso   1.00
C114   C     0.30144   0.04286   0.66929   0.00000  Uiso   1.00
C115   C     0.28345   0.98420   0.64428   0.00000  Uiso   1.00
H116   H     0.12440   0.96378   0.75774   0.00000  Uiso   1.00
H117   H     0.19520   0.91836   0.81854   0.00000  Uiso   1.00
H118   H     0.01878   0.06648   0.76317   0.00000  Uiso   1.00
H119   H     0.14345   0.89145   0.69395   0.00000  Uiso   1.00
H120   H     0.29847   0.89179   0.88208   0.00000  Uiso   1.00
H121   H     0.92648   0.20410   0.76532   0.00000  Uiso   1.00
H122   H     0.18936   0.83502   0.61937   0.00000  Uiso   1.00
H123   H     0.31540   0.14684   0.72793   0.00000  Uiso   1.00
H124   H     0.39669   0.11147   0.78709   0.00000  Uiso   1.00
H125   H     0.22027   0.25958   0.73172   0.00000  Uiso   1.00
H126   H     0.34493   0.08456   0.66251   0.00000  Uiso   1.00
H127   H     0.46201   0.04852   0.85656   0.00000  Uiso   1.00
H128   H     0.09001   0.36083   0.73980   0.00000  Uiso   1.00
H129   H     0.35289   0.99175   0.59385   0.00000  Uiso   1.00
O130   O     0.43026   0.94360   0.90879   0.00000  Uiso   1.00
O131   O     0.94221   0.35333   0.75559   0.00000  Uiso   1.00
O132   O     0.28711   0.86911   0.56411   0.00000  Uiso   1.00
N133   N     0.32581   0.93352   0.86795   0.00000  Uiso   1.00
N134   N     0.97802   0.22551   0.75879   0.00000  Uiso   1.00
N135   N     0.22378   0.88047   0.62234   0.00000  Uiso   1.00
N136   N     0.41381   0.01786   0.85422   0.00000  Uiso   1.00
N137   N     0.06602   0.30985   0.74506   0.00000  Uiso   1.00
N138   N     0.31178   0.96480   0.60861   0.00000  Uiso   1.00
C139   C     0.66816   0.50571   0.25091   0.00000  Uiso   1.00
C140   C     0.73312   0.50642   0.27981   0.00000  Uiso   1.00
C141   C     0.73871   0.46004   0.31176   0.00000  Uiso   1.00
C142   C     0.80258   0.46945   0.33465   0.00000  Uiso   1.00
C143   C     0.89488   0.46238   0.38087   0.00000  Uiso   1.00
C144   C     0.63726   0.58690   0.24973   0.00000  Uiso   1.00
C145   C     0.56227   0.60818   0.25638   0.00000  Uiso   1.00
C146   C     0.54545   0.68534   0.25395   0.00000  Uiso   1.00
C147   C     0.48892   0.80320   0.25344   0.00000  Uiso   1.00
C148   C     0.70500   0.49180   0.21212   0.00000  Uiso   1.00
C149   C     0.68695   0.43313   0.18716   0.00000  Uiso   1.00
C150   C     0.72715   0.43023   0.15306   0.00000  Uiso   1.00
C151   C     0.77579   0.40043   0.09417   0.00000  Uiso   1.00
C152   C     0.77164   0.60489   0.23476   0.00000  Uiso   1.00
C153   C     0.78932   0.56029   0.27103   0.00000  Uiso   1.00
C154   C     0.85321   0.56977   0.29389   0.00000  Uiso   1.00
C155   C     0.85890   0.52341   0.32587   0.00000  Uiso   1.00
C156   C     0.69347   0.64077   0.24095   0.00000  Uiso   1.00
C157   C     0.67676   0.71791   0.23851   0.00000  Uiso   1.00
C158   C     0.60175   0.73931   0.24517   0.00000  Uiso   1.00
C159   C     0.76121   0.54567   0.20335   0.00000  Uiso   1.00
C160   C     0.80144   0.54286   0.16929   0.00000  Uiso   1.00
C161   C     0.78345   0.48420   0.14428   0.00000  Uiso   1.00
H162   H     0.62440   0.46378   0.25774   0.00000  Uiso   1.00
H163   H     0.69520   0.41836   0.31854   0.00000  Uiso   1.00
H164   H     0.51878   0.56648   0.26317   0.00000  Uiso   1.00
H165   H     0.64345   0.39145   0.19395   0.00000  Uiso   1.00
H166   H     0.79847   0.39179   0.38208   0.00000  Uiso   1.00
H167   H     0.42648   0.70410   0.26532   0.00000  Uiso   1.00
H168   H     0.68936   0.33502   0.11937   0.00000  Uiso   1.00
H169   H     0.81540   0.64684   0.22793   0.00000  Uiso   1.00
H170   H     0.89669   0.61147   0.28709   0.00000  Uiso   1.00
H171   H     0.72027   0.75958   0.23172   0.00000  Uiso   1.00
H172   H     0.84493   0.58456   0.16251   0.00000  Uiso   1.00
H173   H     0.96201   0.54852   0.35656   0.00000  Uiso   1.00
H174   H     0.59001   0.86083   0.23980   0.00000  Uiso   1.00
H175   H     0.85289   0.49175   0.09385   0.00000  Uiso   1.00
O176   O     0.93026   0.44360   0.40879   0.00000  Uiso   1.00
O177   O     0.44221   0.85333   0.25559   0.00000  Uiso   1.00
O178   O     0.78711   0.36911   0.06411   0.00000  Uiso   1.00
N179   N     0.82581   0.43352   0.36795   0.00000  Uiso   1.00
N180   N     0.47802   0.72551   0.25879   0.00000  Uiso   1.00
N181   N     0.72378   0.38047   0.12234   0.00000  Uiso   1.00
N182   N     0.91381   0.51786   0.35422   0.00000  Uiso   1.00
N183   N     0.56602   0.80985   0.24506   0.00000  Uiso   1.00
N184   N     0.81178   0.46480   0.10861   0.00000  Uiso   1.00
C185   C     0.50571   0.83184   0.50091   0.00000  Uiso   1.00
C186   C     0.50642   0.76688   0.52981   0.00000  Uiso   1.00
C187   C     0.46004   0.76129   0.56176   0.00000  Uiso   1.00
C188   C     0.46945   0.69742   0.58465   0.00000  Uiso   1.00
C189   C     0.46238   0.60512   0.63087   0.00000  Uiso   1.00
C190   C     0.58690   0.86274   0.49973   0.00000  Uiso   1.00
C191   C     0.60818   0.93773   0.50638   0.00000  Uiso   1.00
C192   C     0.68534   0.95455   0.50395   0.00000  Uiso   1.00
C193   C     0.80320   0.01108   0.50344   0.00000  Uiso   1.00
C194   C     0.49180   0.79500   0.46212   0.00000  Uiso   1.00
C195   C     0.43313   0.81305   0.43716   0.00000  Uiso   1.00
C196   C     0.43023   0.77285   0.40306   0.00000  Uiso   1.00
C197   C     0.40043   0.72421   0.34417   0.00000  Uiso   1.00
C198   C     0.60489   0.72836   0.48476   0.00000  Uiso   1.00
C199   C     0.56029   0.71068   0.52103   0.00000  Uiso   1.00
C200   C     0.56977   0.64679   0.54389   0.00000  Uiso   1.00
C201   C     0.52341   0.64110   0.57587   0.00000  Uiso   1.00
C202   C     0.64077   0.80653   0.49095   0.00000  Uiso   1.00
C203   C     0.71791   0.82324   0.48851   0.00000  Uiso   1.00
C204   C     0.73931   0.89825   0.49517   0.00000  Uiso   1.00
C205   C     0.54567   0.73879   0.45335   0.00000  Uiso   1.00
C206   C     0.54286   0.69856   0.41929   0.00000  Uiso   1.00
C207   C     0.48420   0.71655   0.39428   0.00000  Uiso   1.00
H208   H     0.46378   0.87560   0.50774   0.00000  Uiso   1.00
H209   H     0.41836   0.80480   0.56854   0.00000  Uiso   1.00
H210   H     0.56648   0.98122   0.51317   0.00000  Uiso   1.00
H211   H     0.39145   0.85655   0.44395   0.00000  Uiso   1.00
H212   H     0.39179   0.70153   0.63208   0.00000  Uiso   1.00
H213   H     0.70410   0.07352   0.51532   0.00000  Uiso   1.00
H214   H     0.33502   0.81064   0.36937   0.00000  Uiso   1.00
H215   H     0.64684   0.68460   0.47793   0.00000  Uiso   1.00
H216   H     0.61147   0.60331   0.53709   0.00000  Uiso   1.00
H217   H     0.75958   0.77973   0.48172   0.00000  Uiso   1.00
H218   H     0.58456   0.65507   0.41251   0.00000  Uiso   1.00
H219   H     0.54852   0.53799   0.60656   0.00000  Uiso   1.00
H220   H     0.86083   0.90999   0.48980   0.00000  Uiso   1.00
H221   H     0.49175   0.64711   0.34385   0.00000  Uiso   1.00
O222   O     0.44360   0.56974   0.65879   0.00000  Uiso   1.00
O223   O     0.85333   0.05779   0.50559   0.00000  Uiso   1.00
O224   O     0.36911   0.71289   0.31411   0.00000  Uiso   1.00
N225   N     0.43352   0.67419   0.61795   0.00000  Uiso   1.00
N226   N     0.72551   0.02198   0.50879   0.00000  Uiso   1.00
N227   N     0.38047   0.77622   0.37234   0.00000  Uiso   1.00
N228   N     0.51786   0.58619   0.60422   0.00000  Uiso   1.00
N229   N     0.80985   0.93398   0.49506   0.00000  Uiso   1.00
N230   N     0.46480   0.68822   0.35861   0.00000  Uiso   1.00
C231   C     0.00571   0.33184   0.00091   0.00000  Uiso   1.00
C232   C     0.00642   0.26688   0.02981   0.00000  Uiso   1.00
C233   C     0.96004   0.26129   0.06176   0.00000  Uiso   1.00
C234   C     0.96945   0.19742   0.08465   0.00000  Uiso   1.00
C235   C     0.96238   0.10512   0.13087   0.00000  Uiso   1.00
C236   C     0.08690   0.36274   0.99973   0.00000  Uiso   1.00
C237   C     0.10818   0.43773   0.00638   0.00000  Uiso   1.00
C238   C     0.18534   0.45455   0.00395   0.00000  Uiso   1.00
C239   C     0.30320   0.51108   0.00344   0.00000  Uiso   1.00
C240   C     0.99180   0.29500   0.96212   0.00000  Uiso   1.00
C241   C     0.93313   0.31305   0.93716   0.00000  Uiso   1.00
C242   C     0.93023   0.27285   0.90306   0.00000  Uiso   1.00
C243   C     0.90043   0.22421   0.84417   0.00000  Uiso   1.00
C244   C     0.10489   0.22836   0.98476   0.00000  Uiso   1.00
C245   C     0.06029   0.21068   0.02103   0.00000  Uiso   1.00
C246   C     0.06977   0.14679   0.04389   0.00000  Uiso   1.00
C247   C     0.02341   0.14110   0.07587   0.00000  Uiso   1.00
C248   C     0.14077   0.30653   0.99095   0.00000  Uiso   1.00
C249   C     0.21791   0.32324   0.98851   0.00000  Uiso   1.00
C250   C     0.23931   0.39825   0.99517   0.00000  Uiso   1.00
C251   C     0.04567   0.23879   0.95335   0.00000  Uiso   1.00
C252   C     0.04286   0.19856   0.91929   0.00000  Uiso   1.00
C253   C     0.98420   0.21655   0.89428   0.00000  Uiso   1.00
H254   H     0.96378   0.37560   0.00774   0.00000  Uiso   1.00
H255   H     0.91836   0.30480   0.06854   0.00000  Uiso   1.00
H256   H     0.06648   0.48122   0.01317   0.00000  Uiso   1.00
H257   H     0.89145   0.35655   0.94395   0.00000  Uiso   1.00
H258   H     0.89179   0.20153   0.13208   0.00000  Uiso   1.00
H259   H     0.20410   0.57352   0.01532   0.00000  Uiso   1.00
H260   H     0.83502   0.31064   0.86937   0.00000  Uiso   1.00
H261   H     0.14684   0.18460   0.97793   0.00000  Uiso   1.00
H262   H     0.11147   0.10331   0.03709   0.00000  Uiso   1.00
H263   H     0.25958   0.27973   0.98172   0.00000  Uiso   1.00
H264   H     0.08456   0.15507   0.91251   0.00000  Uiso   1.00
H265   H     0.04852   0.03799   0.10656   0.00000  Uiso   1.00
H266   H     0.36083   0.40999   0.98980   0.00000  Uiso   1.00
H267   H     0.99175   0.14711   0.84385   0.00000  Uiso   1.00
O268   O     0.94360   0.06974   0.15879   0.00000  Uiso   1.00
O269   O     0.35333   0.55779   0.00559   0.00000  Uiso   1.00
O270   O     0.86911   0.21289   0.81411   0.00000  Uiso   1.00
N271   N     0.93352   0.17419   0.11795   0.00000  Uiso   1.00
N272   N     0.22551   0.52198   0.00879   0.00000  Uiso   1.00
N273   N     0.88047   0.27622   0.87234   0.00000  Uiso   1.00
N274   N     0.01786   0.08619   0.10422   0.00000  Uiso   1.00
N275   N     0.30985   0.43398   0.99506   0.00000  Uiso   1.00
N276   N     0.96480   0.18822   0.85861   0.00000  Uiso   1.00
C277   C     0.99429   0.66816   0.00091   0.00000  Uiso   1.00
C278   C     0.99358   0.73312   0.02981   0.00000  Uiso   1.00
C279   C     0.03996   0.73871   0.06176   0.00000  Uiso   1.00
C280   C     0.03055   0.80258   0.08465   0.00000  Uiso   1.00
C281   C     0.03762   0.89488   0.13087   0.00000  Uiso   1.00
C282   C     0.91310   0.63726   0.99973   0.00000  Uiso   1.00
C283   C     0.89182   0.56227   0.00638   0.00000  Uiso   1.00
C284   C     0.81466   0.54545   0.00395   0.00000  Uiso   1.00
C285   C     0.69680   0.48892   0.00344   0.00000  Uiso   1.00
C286   C     0.00820   0.70500   0.96212   0.00000  Uiso   1.00
C287   C     0.06687   0.68695   0.93716   0.00000  Uiso   1.00
C288   C     0.06977   0.72715   0.90306   0.00000  Uiso   1.00
C289   C     0.09957   0.77579   0.84417   0.00000  Uiso   1.00
C290   C     0.89511   0.77164   0.98476   0.00000  Uiso   1.00
C291   C     0.93971   0.78932   0.02103   0.00000  Uiso   1.00
C292   C     0.93023   0.85321   0.04389   0.00000  Uiso   1.00
C293   C     0.97659   0.85890   0.07587   0.00000  Uiso   1.00
C294   C     0.85923   0.69347   0.99095   0.00000  Uiso   1.00
C295   C     0.78209   0.67676   0.98851   0.00000  Uiso   1.00
C296   C     0.76069   0.60175   0.99517   0.00000  Uiso   1.00
C297   C     0.95433   0.76121   0.95335   0.00000  Uiso   1.00
C298   C     0.95714   0.80144   0.91929   0.00000  Uiso   1.00
C299   C     0.01580   0.78345   0.89428   0.00000  Uiso   1.00
H300   H     0.03622   0.62440   0.00774   0.00000  Uiso   1.00
H301   H     0.08164   0.69520   0.06854   0.00000  Uiso   1.00
H302   H     0.93352   0.51878   0.01317   0.00000  Uiso   1.00
H303   H     0.10855   0.64345   0.94395   0.00000  Uiso   1.00
H304   H     0.10821   0.79847   0.13208   0.00000  Uiso   1.00
H305   H     0.79590   0.42648   0.01532   0.00000  Uiso   1.00
H306   H     0.16498   0.68936   0.86937   0.00000  Uiso   1.00
H307   H     0.85316   0.81540   0.97793   0.00000  Uiso   1.00
H308   H     0.88853   0.89669   0.03709   0.00000  Uiso   1.00
H309   H     0.74042   0.72027   0.98172   0.00000  Uiso   1.00
H310   H     0.91544   0.84493   0.91251   0.00000  Uiso   1.00
H311   H     0.95148   0.96201   0.10656   0.00000  Uiso   1.00
H312   H     0.63917   0.59001   0.98980   0.00000  Uiso   1.00
H313   H     0.00825   0.85289   0.84385   0.00000  Uiso   1.00
O314   O     0.05640   0.93026   0.15879   0.00000  Uiso   1.00
O315   O     0.64667   0.44221   0.00559   0.00000  Uiso   1.00
O316   O     0.13089   0.78711   0.81411   0.00000  Uiso   1.00
N317   N     0.06648   0.82581   0.11795   0.00000  Uiso   1.00
N318   N     0.77449   0.47802   0.00879   0.00000  Uiso   1.00
N319   N     0.11953   0.72378   0.87234   0.00000  Uiso   1.00
N320   N     0.98214   0.91381   0.10422   0.00000  Uiso   1.00
N321   N     0.69015   0.56602   0.99506   0.00000  Uiso   1.00
N322   N     0.03520   0.81178   0.85861   0.00000  Uiso   1.00
C323   C     0.49429   0.16816   0.50091   0.00000  Uiso   1.00
C324   C     0.49358   0.23312   0.52981   0.00000  Uiso   1.00
C325   C     0.53996   0.23871   0.56176   0.00000  Uiso   1.00
C326   C     0.53055   0.30258   0.58465   0.00000  Uiso   1.00
C327   C     0.53762   0.39488   0.63087   0.00000  Uiso   1.00
C328   C     0.41310   0.13726   0.49973   0.00000  Uiso   1.00
C329   C     0.39182   0.06227   0.50638   0.00000  Uiso   1.00
C330   C     0.31466   0.04545   0.50395   0.00000  Uiso   1.00
C331   C     0.19680   0.98892   0.50344   0.00000  Uiso   1.00
C332   C     0.50820   0.20500   0.46212   0.00000  Uiso   1.00
C333   C     0.56687   0.18695   0.43716   0.00000  Uiso   1.00
C334   C     0.56977   0.22715   0.40306   0.00000  Uiso   1.00
C335   C     0.59957   0.27579   0.34417   0.00000  Uiso   1.00
C336   C     0.39511   0.27164   0.48476   0.00000  Uiso   1.00
C337   C     0.43971   0.28932   0.52103   0.00000  Uiso   1.00
C338   C     0.43023   0.35321   0.54389   0.00000  Uiso   1.00
C339   C     0.47659   0.35890   0.57587   0.00000  Uiso   1.00
C340   C     0.35923   0.19347   0.49095   0.00000  Uiso   1.00
C341   C     0.28209   0.17676   0.48851   0.00000  Uiso   1.00
C342   C     0.26069   0.10175   0.49517   0.00000  Uiso   1.00
C343   C     0.45433   0.26121   0.45335   0.00000  Uiso   1.00
C344   C     0.45714   0.30144   0.41929   0.00000  Uiso   1.00
C345   C     0.51580   0.28345   0.39428   0.00000  Uiso   1.00
H346   H     0.53622   0.12440   0.50774   0.00000  Uiso   1.00
H347   H     0.58164   0.19520   0.56854   0.00000  Uiso   1.00
H348   H     0.43352   0.01878   0.51317   0.00000  Uiso   1.00
H349   H     0.60855   0.14345   0.44395   0.00000  Uiso   1.00
H350   H     0.60821   0.29847   0.63208   0.00000  Uiso   1.00
H351   H     0.29590   0.92648   0.51532   0.00000  Uiso   1.00
H352   H     0.66498   0.18936   0.36937   0.00000  Uiso   1.00
H353   H     0.35316   0.31540   0.47793   0.00000  Uiso   1.00
H354   H     0.38853   0.39669   0.53709   0.00000  Uiso   1.00
H355   H     0.24042   0.22027   0.48172   0.00000  Uiso   1.00
H356   H     0.41544   0.34493   0.41251   0.00000  Uiso   1.00
H357   H     0.45148   0.46201   0.60656   0.00000  Uiso   1.00
H358   H     0.13917   0.09001   0.48980   0.00000  Uiso   1.00
H359   H     0.50825   0.35289   0.34385   0.00000  Uiso   1.00
O360   O     0.55640   0.43026   0.65879   0.00000  Uiso   1.00
O361   O     0.14667   0.94221   0.50559   0.00000  Uiso   1.00
O362   O     0.63089   0.28711   0.31411   0.00000  Uiso   1.00
N363   N     0.56648   0.32581   0.61795   0.00000  Uiso   1.00
N364   N     0.27449   0.97802   0.50879   0.00000  Uiso   1.00
N365   N     0.61953   0.22378   0.37234   0.00000  Uiso   1.00
N366   N     0.48214   0.41381   0.60422   0.00000  Uiso   1.00
N367   N     0.19015   0.06602   0.49506   0.00000  Uiso   1.00
N368   N     0.53520   0.31178   0.35861   0.00000  Uiso   1.00
C369   C     0.66816   0.00571   0.99909   0.00000  Uiso   1.00
C370   C     0.73312   0.00642   0.97019   0.00000  Uiso   1.00
C371   C     0.73871   0.96004   0.93824   0.00000  Uiso   1.00
C372   C     0.80258   0.96945   0.91535   0.00000  Uiso   1.00
C373   C     0.89488   0.96238   0.86913   0.00000  Uiso   1.00
C374   C     0.63726   0.08690   0.00027   0.00000  Uiso   1.00
C375   C     0.56227   0.10818   0.99362   0.00000  Uiso   1.00
C376   C     0.54545   0.18534   0.99605   0.00000  Uiso   1.00
C377   C     0.48892   0.30320   0.99656   0.00000  Uiso   1.00
C378   C     0.70500   0.99180   0.03788   0.00000  Uiso   1.00
C379   C     0.68695   0.93313   0.06284   0.00000  Uiso   1.00
C380   C     0.72715   0.93023   0.09694   0.00000  Uiso   1.00
C381   C     0.77579   0.90043   0.15583   0.00000  Uiso   1.00
C382   C     0.77164   0.10489   0.01524   0.00000  Uiso   1.00
C383   C     0.78932   0.06029   0.97897   0.00000  Uiso   1.00
C384   C     0.85321   0.06977   0.95611   0.00000  Uiso   1.00
C385   C     0.85890   0.02341   0.92413   0.00000  Uiso   1.00
C386   C     0.69347   0.14077   0.00905   0.00000  Uiso   1.00
C387   C     0.67676   0.21791   0.01149   0.00000  Uiso   1.00
C388   C     0.60175   0.23931   0.00483   0.00000  Uiso   1.00
C389   C     0.76121   0.04567   0.04665   0.00000  Uiso   1.00
C390   C     0.80144   0.04286   0.08071   0.00000  Uiso   1.00
C391   C     0.78345   0.98420   0.10572   0.00000  Uiso   1.00
H392   H     0.62440   0.96378   0.99226   0.00000  Uiso   1.00
H393   H     0.69520   0.91836   0.93146   0.00000  Uiso   1.00
H394   H     0.51878   0.06648   0.98683   0.00000  Uiso   1.00
H395   H     0.64345   0.89145   0.05605   0.00000  Uiso   1.00
H396   H     0.79847   0.89179   0.86792   0.00000  Uiso   1.00
H397   H     0.42648   0.20410   0.98468   0.00000  Uiso   1.00
H398   H     0.68936   0.83502   0.13063   0.00000  Uiso   1.00
H399   H     0.81540   0.14684   0.02207   0.00000  Uiso   1.00
H400   H     0.89669   0.11147   0.96291   0.00000  Uiso   1.00
H401   H     0.72027   0.25958   0.01828   0.00000  Uiso   1.00
H402   H     0.84493   0.08456   0.08749   0.00000  Uiso   1.00
H403   H     0.96201   0.04852   0.89344   0.00000  Uiso   1.00
H404   H     0.59001   0.36083   0.01020   0.00000  Uiso   1.00
H405   H     0.85289   0.99175   0.15615   0.00000  Uiso   1.00
O406   O     0.93026   0.94360   0.84121   0.00000  Uiso   1.00
O407   O     0.44221   0.35333   0.99441   0.00000  Uiso   1.00
O408   O     0.78711   0.86911   0.18589   0.00000  Uiso   1.00
N409   N     0.82581   0.93352   0.88205   0.00000  Uiso   1.00
N410   N     0.47802   0.22551   0.99121   0.00000  Uiso   1.00
N411   N     0.72378   0.88047   0.12766   0.00000  Uiso   1.00
N412   N     0.91381   0.01786   0.89578   0.00000  Uiso   1.00
N413   N     0.56602   0.30985   0.00494   0.00000  Uiso   1.00
N414   N     0.81178   0.96480   0.14139   0.00000  Uiso   1.00
C415   C     0.16816   0.50571   0.49909   0.00000  Uiso   1.00
C416   C     0.23312   0.50642   0.47019   0.00000  Uiso   1.00
C417   C     0.23871   0.46004   0.43824   0.00000  Uiso   1.00
C418   C     0.30258   0.46945   0.41535   0.00000  Uiso   1.00
C419   C     0.39488   0.46238   0.36913   0.00000  Uiso   1.00
C420   C     0.13726   0.58690   0.50027   0.00000  Uiso   1.00
C421   C     0.06227   0.60818   0.49362   0.00000  Uiso   1.00
C422   C     0.04545   0.68534   0.49605   0.00000  Uiso   1.00
C423   C     0.98892   0.80320   0.49656   0.00000  Uiso   1.00
C424   C     0.20500   0.49180   0.53788   0.00000  Uiso   1.00
C425   C     0.18695   0.43313   0.56284   0.00000  Uiso   1.00
C426   C     0.22715   0.43023   0.59694   0.00000  Uiso   1.00
C427   C     0.27579   0.40043   0.65583   0.00000  Uiso   1.00
C428   C     0.27164   0.60489   0.51524   0.00000  Uiso   1.00
C429   C     0.28932   0.56029   0.47897   0.00000  Uiso   1.00
C430   C     0.35321   0.56977   0.45611   0.00000  Uiso   1.00
C431   C     0.35890   0.52341   0.42413   0.00000  Uiso   1.00
C432   C     0.19347   0.64077   0.50905   0.00000  Uiso   1.00
C433   C     0.17676   0.71791   0.51149   0.00000  Uiso   1.00
C434   C     0.10175   0.73931   0.50483   0.00000  Uiso   1.00
C435   C     0.26121   0.54567   0.54665   0.00000  Uiso   1.00
C436   C     0.30144   0.54286   0.58071   0.00000  Uiso   1.00
C437   C     0.28345   0.48420   0.60572   0.00000  Uiso   1.00
H438   H     0.12440   0.46378   0.49226   0.00000  Uiso   1.00
H439   H     0.19520   0.41836   0.43146   0.00000  Uiso   1.00
H440   H     0.01878   0.56648   0.48683   0.00000  Uiso   1.00
H441   H     0.14345   0.39145   0.55605   0.00000  Uiso   1.00
H442   H     0.29847   0.39179   0.36792   0.00000  Uiso   1.00
H443   H     0.92648   0.70410   0.48468   0.00000  Uiso   1.00
H444   H     0.18936   0.33502   0.63063   0.00000  Uiso   1.00
H445   H     0.31540   0.64684   0.52207   0.00000  Uiso   1.00
H446   H     0.39669   0.61147   0.46291   0.00000  Uiso   1.00
H447   H     0.22027   0.75958   0.51828   0.00000  Uiso   1.00
H448   H     0.34493   0.58456   0.58749   0.00000  Uiso   1.00
H449   H     0.46201   0.54852   0.39344   0.00000  Uiso   1.00
H450   H     0.09001   0.86083   0.51020   0.00000  Uiso   1.00
H451   H     0.35289   0.49175   0.65615   0.00000  Uiso   1.00
O452   O     0.43026   0.44360   0.34121   0.00000  Uiso   1.00
O453   O     0.94221   0.85333   0.49441   0.00000  Uiso   1.00
O454   O     0.28711   0.36911   0.68589   0.00000  Uiso   1.00
N455   N     0.32581   0.43352   0.38205   0.00000  Uiso   1.00
N456   N     0.97802   0.72551   0.49121   0.00000  Uiso   1.00
N457   N     0.22378   0.38047   0.62766   0.00000  Uiso   1.00
N458   N     0.41381   0.51786   0.39578   0.00000  Uiso   1.00
N459   N     0.06602   0.80985   0.50494   0.00000  Uiso   1.00
N460   N     0.31178   0.46480   0.64139   0.00000  Uiso   1.00
C461   C     0.83184   0.49429   0.49909   0.00000  Uiso   1.00
C462   C     0.76688   0.49358   0.47019   0.00000  Uiso   1.00
C463   C     0.76129   0.53996   0.43824   0.00000  Uiso   1.00
C464   C     0.69742   0.53055   0.41535   0.00000  Uiso   1.00
C465   C     0.60512   0.53762   0.36913   0.00000  Uiso   1.00
C466   C     0.86274   0.41310   0.50027   0.00000  Uiso   1.00
C467   C     0.93773   0.39182   0.49362   0.00000  Uiso   1.00
C468   C     0.95455   0.31466   0.49605   0.00000  Uiso   1.00
C469   C     0.01108   0.19680   0.49656   0.00000  Uiso   1.00
C470   C     0.79500   0.50820   0.53788   0.00000  Uiso   1.00
C471   C     0.81305   0.56687   0.56284   0.00000  Uiso   1.00
C472   C     0.77285   0.56977   0.59694   0.00000  Uiso   1.00
C473   C     0.72421   0.59957   0.65583   0.00000  Uiso   1.00
C474   C     0.72836   0.39511   0.51524   0.00000  Uiso   1.00
C475   C     0.71068   0.43971   0.47897   0.00000  Uiso   1.00
C476   C     0.64679   0.43023   0.45611   0.00000  Uiso   1.00
C477   C     0.64110   0.47659   0.42413   0.00000  Uiso   1.00
C478   C     0.80653   0.35923   0.50905   0.00000  Uiso   1.00
C479   C     0.82324   0.28209   0.51149   0.00000  Uiso   1.00
C480   C     0.89825   0.26069   0.50483   0.00000  Uiso   1.00
C481   C     0.73879   0.45433   0.54665   0.00000  Uiso   1.00
C482   C     0.69856   0.45714   0.58071   0.00000  Uiso   1.00
C483   C     0.71655   0.51580   0.60572   0.00000  Uiso   1.00
H484   H     0.87560   0.53622   0.49226   0.00000  Uiso   1.00
H485   H     0.80480   0.58164   0.43146   0.00000  Uiso   1.00
H486   H     0.98122   0.43352   0.48683   0.00000  Uiso   1.00
H487   H     0.85655   0.60855   0.55605   0.00000  Uiso   1.00
H488   H     0.70153   0.60821   0.36792   0.00000  Uiso   1.00
H489   H     0.07352   0.29590   0.48468   0.00000  Uiso   1.00
H490   H     0.81064   0.66498   0.63063   0.00000  Uiso   1.00
H491   H     0.68460   0.35316   0.52207   0.00000  Uiso   1.00
H492   H     0.60331   0.38853   0.46291   0.00000  Uiso   1.00
H493   H     0.77973   0.24042   0.51828   0.00000  Uiso   1.00
H494   H     0.65507   0.41544   0.58749   0.00000  Uiso   1.00
H495   H     0.53799   0.45148   0.39344   0.00000  Uiso   1.00
H496   H     0.90999   0.13917   0.51020   0.00000  Uiso   1.00
H497   H     0.64711   0.50825   0.65615   0.00000  Uiso   1.00
O498   O     0.56974   0.55640   0.34121   0.00000  Uiso   1.00
O499   O     0.05779   0.14667   0.49441   0.00000  Uiso   1.00
O500   O     0.71289   0.63089   0.68589   0.00000  Uiso   1.00
N501   N     0.67419   0.56648   0.38205   0.00000  Uiso   1.00
N502   N     0.02198   0.27449   0.49121   0.00000  Uiso   1.00
N503   N     0.77622   0.61953   0.62766   0.00000  Uiso   1.00
N504   N     0.58619   0.48214   0.39578   0.00000  Uiso   1.00
N505   N     0.93398   0.19015   0.50494   0.00000  Uiso   1.00
N506   N     0.68822   0.53520   0.64139   0.00000  Uiso   1.00
C507   C     0.33184   0.99429   0.99909   0.00000  Uiso   1.00
C508   C     0.26688   0.99358   0.97019   0.00000  Uiso   1.00
C509   C     0.26129   0.03996   0.93824   0.00000  Uiso   1.00
C510   C     0.19742   0.03055   0.91535   0.00000  Uiso   1.00
C511   C     0.10512   0.03762   0.86913   0.00000  Uiso   1.00
C512   C     0.36274   0.91310   0.00027   0.00000  Uiso   1.00
C513   C     0.43773   0.89182   0.99362   0.00000  Uiso   1.00
C514   C     0.45455   0.81466   0.99605   0.00000  Uiso   1.00
C515   C     0.51108   0.69680   0.99656   0.00000  Uiso   1.00
C516   C     0.29500   0.00820   0.03788   0.00000  Uiso   1.00
C517   C     0.31305   0.06687   0.06284   0.00000  Uiso   1.00
C518   C     0.27285   0.06977   0.09694   0.00000  Uiso   1.00
C519   C     0.22421   0.09957   0.15583   0.00000  Uiso   1.00
C520   C     0.22836   0.89511   0.01524   0.00000  Uiso   1.00
C521   C     0.21068   0.93971   0.97897   0.00000  Uiso   1.00
C522   C     0.14679   0.93023   0.95611   0.00000  Uiso   1.00
C523   C     0.14110   0.97659   0.92413   0.00000  Uiso   1.00
C524   C     0.30653   0.85923   0.00905   0.00000  Uiso   1.00
C525   C     0.32324   0.78209   0.01149   0.00000  Uiso   1.00
C526   C     0.39825   0.76069   0.00483   0.00000  Uiso   1.00
C527   C     0.23879   0.95433   0.04665   0.00000  Uiso   1.00
C528   C     0.19856   0.95714   0.08071   0.00000  Uiso   1.00
C529   C     0.21655   0.01580   0.10572   0.00000  Uiso   1.00
H530   H     0.37560   0.03622   0.99226   0.00000  Uiso   1.00
H531   H     0.30480   0.08164   0.93146   0.00000  Uiso   1.00
H532   H     0.48122   0.93352   0.98683   0.00000  Uiso   1.00
H533   H     0.35655   0.10855   0.05605   0.00000  Uiso   1.00
H534   H     0.20153   0.10821   0.86792   0.00000  Uiso   1.00
H535   H     0.57352   0.79590   0.98468   0.00000  Uiso   1.00
H536   H     0.31064   0.16498   0.13063   0.00000  Uiso   1.00
H537   H     0.18460   0.85316   0.02207   0.00000  Uiso   1.00
H538   H     0.10331   0.88853   0.96291   0.00000  Uiso   1.00
H539   H     0.27973   0.74042   0.01828   0.00000  Uiso   1.00
H540   H     0.15507   0.91544   0.08749   0.00000  Uiso   1.00
H541   H     0.03799   0.95148   0.89344   0.00000  Uiso   1.00
H542   H     0.40999   0.63917   0.01020   0.00000  Uiso   1.00
H543   H     0.14711   0.00825   0.15615   0.00000  Uiso   1.00
O544   O     0.06974   0.05640   0.84121   0.00000  Uiso   1.00
O545   O     0.55779   0.64667   0.99441   0.00000  Uiso   1.00
O546   O     0.21289   0.13089   0.18589   0.00000  Uiso   1.00
N547   N     0.17419   0.06648   0.88205   0.00000  Uiso   1.00
N548   N     0.52198   0.77449   0.99121   0.00000  Uiso   1.00
N549   N     0.27622   0.11953   0.12766   0.00000  Uiso   1.00
N550   N     0.08619   0.98214   0.89578   0.00000  Uiso   1.00
N551   N     0.43398   0.69015   0.00494   0.00000  Uiso   1.00
N552   N     0.18822   0.03520   0.14139   0.00000  Uiso   1.00
C553   C     0.49429   0.66816   0.74909   0.00000  Uiso   1.00
C554   C     0.49358   0.73312   0.72019   0.00000  Uiso   1.00
C555   C     0.53996   0.73871   0.68824   0.00000  Uiso   1.00
C556   C     0.53055   0.80258   0.66535   0.00000  Uiso   1.00
C557   C     0.53762   0.89488   0.61913   0.00000  Uiso   1.00
C558   C     0.41310   0.63726   0.75027   0.00000  Uiso   1.00
C559   C     0.39182   0.56227   0.74362   0.00000  Uiso   1.00
C560   C     0.31466   0.54545   0.74605   0.00000  Uiso   1.00
C561   C     0.19680   0.48892   0.74656   0.00000  Uiso   1.00
C562   C     0.50820   0.70500   0.78788   0.00000  Uiso   1.00
C563   C     0.56687   0.68695   0.81284   0.00000  Uiso   1.00
C564   C     0.56977   0.72715   0.84694   0.00000  Uiso   1.00
C565   C     0.59957   0.77579   0.90583   0.00000  Uiso   1.00
C566   C     0.39511   0.77164   0.76524   0.00000  Uiso   1.00
C567   C     0.43971   0.78932   0.72897   0.00000  Uiso   1.00
C568   C     0.43023   0.85321   0.70611   0.00000  Uiso   1.00
C569   C     0.47659   0.85890   0.67413   0.00000  Uiso   1.00
C570   C     0.35923   0.69347   0.75905   0.00000  Uiso   1.00
C571   C     0.28209   0.67676   0.76149   0.00000  Uiso   1.00
C572   C     0.26069   0.60175   0.75483   0.00000  Uiso   1.00
C573   C     0.45433   0.76121   0.79665   0.00000  Uiso   1.00
C574   C     0.45714   0.80144   0.83071   0.00000  Uiso   1.00
C575   C     0.51580   0.78345   0.85572   0.00000  Uiso   1.00
H576   H     0.53622   0.62440   0.74226   0.00000  Uiso   1.00
H577   H     0.58164   0.69520   0.68146   0.00000  Uiso   1.00
H578   H     0.43352   0.51878   0.73683   0.00000  Uiso   1.00
H579   H     0.60855   0.64345   0.80605   0.00000  Uiso   1.00
H580   H     0.60821   0.79847   0.61792   0.00000  Uiso   1.00
H581   H     0.29590   0.42648   0.73468   0.00000  Uiso   1.00
H582   H     0.66498   0.68936   0.88063   0.00000  Uiso   1.00
H583   H     0.35316   0.81540   0.77207   0.00000  Uiso   1.00
H584   H     0.38853   0.89669   0.71291   0.00000  Uiso   1.00
H585   H     0.24042   0.72027   0.76828   0.00000  Uiso   1.00
H586   H     0.41544   0.84493   0.83749   0.00000  Uiso   1.00
H587   H     0.45148   0.96201   0.64344   0.00000  Uiso   1.00
H588   H     0.13917   0.59001   0.76020   0.00000  Uiso   1.00
H589   H     0.50825   0.85289   0.90615   0.00000  Uiso   1.00
O590   O     0.55640   0.93026   0.59121   0.00000  Uiso   1.00
O591   O     0.14667   0.44221   0.74441   0.00000  Uiso   1.00
O592   O     0.63089   0.78711   0.93589   0.00000  Uiso   1.00
N593   N     0.56648   0.82581   0.63205   0.00000  Uiso   1.00
N594   N     0.27449   0.47802   0.74121   0.00000  Uiso   1.00
N595   N     0.61953   0.72378   0.87766   0.00000  Uiso   1.00
N596   N     0.48214   0.91381   0.64578   0.00000  Uiso   1.00
N597   N     0.19015   0.56602   0.75494   0.00000  Uiso   1.00
N598   N     0.53520   0.81178   0.89139   0.00000  Uiso   1.00
C599   C     0.99429   0.16816   0.24909   0.00000  Uiso   1.00
C600   C     0.99358   0.23312   0.22019   0.00000  Uiso   1.00
C601   C     0.03996   0.23871   0.18824   0.00000  Uiso   1.00
C602   C     0.03055   0.30258   0.16535   0.00000  Uiso   1.00
C603   C     0.03762   0.39488   0.11913   0.00000  Uiso   1.00
C604   C     0.91310   0.13726   0.25027   0.00000  Uiso   1.00
C605   C     0.89182   0.06227   0.24362   0.00000  Uiso   1.00
C606   C     0.81466   0.04545   0.24605   0.00000  Uiso   1.00
C607   C     0.69680   0.98892   0.24656   0.00000  Uiso   1.00
C608   C     0.00820   0.20500   0.28788   0.00000  Uiso   1.00
C609   C     0.06687   0.18695   0.31284   0.00000  Uiso   1.00
C610   C     0.06977   0.22715   0.34694   0.00000  Uiso   1.00
C611   C     0.09957   0.27579   0.40583   0.00000  Uiso   1.00
C612   C     0.89511   0.27164   0.26524   0.00000  Uiso   1.00
C613   C     0.93971   0.28932   0.22897   0.00000  Uiso   1.00
C614   C     0.93023   0.35321   0.20611   0.00000  Uiso   1.00
C615   C     0.97659   0.35890   0.17413   0.00000  Uiso   1.00
C616   C     0.85923   0.19347   0.25905   0.00000  Uiso   1.00
C617   C     0.78209   0.17676   0.26149   0.00000  Uiso   1.00
C618   C     0.76069   0.10175   0.25483   0.00000  Uiso   1.00
C619   C     0.95433   0.26121   0.29665   0.00000  Uiso   1.00
C620   C     0.95714   0.30144   0.33071   0.00000  Uiso   1.00
C621   C     0.01580   0.28345   0.35572   0.00000  Uiso   1.00
H622   H     0.03622   0.12440   0.24226   0.00000  Uiso   1.00
H623   H     0.08164   0.19520   0.18146   0.00000  Uiso   1.00
H624   H     0.93352   0.01878   0.23683   0.00000  Uiso   1.00
H625   H     0.10855   0.14345   0.30605   0.00000  Uiso   1.00
H626   H     0.10821   0.29847   0.11792   0.00000  Uiso   1.00
H627   H     0.79590   0.92648   0.23468   0.00000  Uiso   1.00
H628   H     0.16498   0.18936   0.38063   0.00000  Uiso   1.00
H629   H     0.85316   0.31540   0.27207   0.00000  Uiso   1.00
H630   H     0.88853   0.39669   0.21291   0.00000  Uiso   1.00
H631   H     0.74042   0.22027   0.26828   0.00000  Uiso   1.00
H632   H     0.91544   0.34493   0.33749   0.00000  Uiso   1.00
H633   H     0.95148   0.46201   0.14344   0.00000  Uiso   1.00
H634   H     0.63917   0.09001   0.26020   0.00000  Uiso   1.00
H635   H     0.00825   0.35289   0.40615   0.00000  Uiso   1.00
O636   O     0.05640   0.43026   0.09121   0.00000  Uiso   1.00
O637   O     0.64667   0.94221   0.24441   0.00000  Uiso   1.00
O638   O     0.13089   0.28711   0.43589   0.00000  Uiso   1.00
N639   N     0.06648   0.32581   0.13205   0.00000  Uiso   1.00
N640   N     0.77449   0.97802   0.24121   0.00000  Uiso   1.00
N641   N     0.11953   0.22378   0.37766   0.00000  Uiso   1.00
N642   N     0.98214   0.41381   0.14578   0.00000  Uiso   1.00
N643   N     0.69015   0.06602   0.25494   0.00000  Uiso   1.00
N644   N     0.03520   0.31178   0.39139   0.00000  Uiso   1.00
C645   C     0.00571   0.83184   0.24909   0.00000  Uiso   1.00
C646   C     0.00642   0.76688   0.22019   0.00000  Uiso   1.00
C647   C     0.96004   0.76129   0.18824   0.00000  Uiso   1.00
C648   C     0.96945   0.69742   0.16535   0.00000  Uiso   1.00
C649   C     0.96238   0.60512   0.11913   0.00000  Uiso   1.00
C650   C     0.08690   0.86274   0.25027   0.00000  Uiso   1.00
C651   C     0.10818   0.93773   0.24362   0.00000  Uiso   1.00
C652   C     0.18534   0.95455   0.24605   0.00000  Uiso   1.00
C653   C     0.30320   0.01108   0.24656   0.00000  Uiso   1.00
C654   C     0.99180   0.79500   0.28788   0.00000  Uiso   1.00
C655   C     0.93313   0.81305   0.31284   0.00000  Uiso   1.00
C656   C     0.93023   0.77285   0.34694   0.00000  Uiso   1.00
C657   C     0.90043   0.72421   0.40583   0.00000  Uiso   1.00
C658   C     0.10489   0.72836   0.26524   0.00000  Uiso   1.00
C659   C     0.06029   0.71068   0.22897   0.00000  Uiso   1.00
C660   C     0.06977   0.64679   0.20611   0.00000  Uiso   1.00
C661   C     0.02341   0.64110   0.17413   0.00000  Uiso   1.00
C662   C     0.14077   0.80653   0.25905   0.00000  Uiso   1.00
C663   C     0.21791   0.82324   0.26149   0.00000  Uiso   1.00
C664   C     0.23931   0.89825   0.25483   0.00000  Uiso   1.00
C665   C     0.04567   0.73879   0.29665   0.00000  Uiso   1.00
C666   C     0.04286   0.69856   0.33071   0.00000  Uiso   1.00
C667   C     0.98420   0.71655   0.35572   0.00000  Uiso   1.00
H668   H     0.96378   0.87560   0.24226   0.00000  Uiso   1.00
H669   H     0.91836   0.80480   0.18146   0.00000  Uiso   1.00
H670   H     0.06648   0.98122   0.23683   0.00000  Uiso   1.00
H671   H     0.89145   0.85655   0.30605   0.00000  Uiso   1.00
H672   H     0.89179   0.70153   0.11792   0.00000  Uiso   1.00
H673   H     0.20410   0.07352   0.23468   0.00000  Uiso   1.00
H674   H     0.83502   0.81064   0.38063   0.00000  Uiso   1.00
H675   H     0.14684   0.68460   0.27207   0.00000  Uiso   1.00
H676   H     0.11147   0.60331   0.21291   0.00000  Uiso   1.00
H677   H     0.25958   0.77973   0.26828   0.00000  Uiso   1.00
H678   H     0.08456   0.65507   0.33749   0.00000  Uiso   1.00
H679   H     0.04852   0.53799   0.14344   0.00000  Uiso   1.00
H680   H     0.36083   0.90999   0.26020   0.00000  Uiso   1.00
H681   H     0.99175   0.64711   0.40615   0.00000  Uiso   1.00
O682   O     0.94360   0.56974   0.09121   0.00000  Uiso   1.00
O683   O     0.35333   0.05779   0.24441   0.00000  Uiso   1.00
O684   O     0.86911   0.71289   0.43589   0.00000  Uiso   1.00
N685   N     0.93352   0.67419   0.13205   0.00000  Uiso   1.00
N686   N     0.22551   0.02198   0.24121   0.00000  Uiso   1.00
N687   N     0.88047   0.77622   0.37766   0.00000  Uiso   1.00
N688   N     0.01786   0.58619   0.14578   0.00000  Uiso   1.00
N689   N     0.30985   0.93398   0.25494   0.00000  Uiso   1.00
N690   N     0.96480   0.68822   0.39139   0.00000  Uiso   1.00
C691   C     0.50571   0.33184   0.74909   0.00000  Uiso   1.00
C692   C     0.50642   0.26688   0.72019   0.00000  Uiso   1.00
C693   C     0.46004   0.26129   0.68824   0.00000  Uiso   1.00
C694   C     0.46945   0.19742   0.66535   0.00000  Uiso   1.00
C695   C     0.46238   0.10512   0.61913   0.00000  Uiso   1.00
C696   C     0.58690   0.36274   0.75027   0.00000  Uiso   1.00
C697   C     0.60818   0.43773   0.74362   0.00000  Uiso   1.00
C698   C     0.68534   0.45455   0.74605   0.00000  Uiso   1.00
C699   C     0.80320   0.51108   0.74656   0.00000  Uiso   1.00
C700   C     0.49180   0.29500   0.78788   0.00000  Uiso   1.00
C701   C     0.43313   0.31305   0.81284   0.00000  Uiso   1.00
C702   C     0.43023   0.27285   0.84694   0.00000  Uiso   1.00
C703   C     0.40043   0.22421   0.90583   0.00000  Uiso   1.00
C704   C     0.60489   0.22836   0.76524   0.00000  Uiso   1.00
C705   C     0.56029   0.21068   0.72897   0.00000  Uiso   1.00
C706   C     0.56977   0.14679   0.70611   0.00000  Uiso   1.00
C707   C     0.52341   0.14110   0.67413   0.00000  Uiso   1.00
C708   C     0.64077   0.30653   0.75905   0.00000  Uiso   1.00
C709   C     0.71791   0.32324   0.76149   0.00000  Uiso   1.00
C710   C     0.73931   0.39825   0.75483   0.00000  Uiso   1.00
C711   C     0.54567   0.23879   0.79665   0.00000  Uiso   1.00
C712   C     0.54286   0.19856   0.83071   0.00000  Uiso   1.00
C713   C     0.48420   0.21655   0.85572   0.00000  Uiso   1.00
H714   H     0.46378   0.37560   0.74226   0.00000  Uiso   1.00
H715   H     0.41836   0.30480   0.68146   0.00000  Uiso   1.00
H716   H     0.56648   0.48122   0.73683   0.00000  Uiso   1.00
H717   H     0.39145   0.35655   0.80605   0.00000  Uiso   1.00
H718   H     0.39179   0.20153   0.61792   0.00000  Uiso   1.00
H719   H     0.70410   0.57352   0.73468   0.00000  Uiso   1.00
H720   H     0.33502   0.31064   0.88063   0.00000  Uiso   1.00
H721   H     0.64684   0.18460   0.77207   0.00000  Uiso   1.00
H722   H     0.61147   0.10331   0.71291   0.00000  Uiso   1.00
H723   H     0.75958   0.27973   0.76828   0.00000  Uiso   1.00
H724   H     0.58456   0.15507   0.83749   0.00000  Uiso   1.00
H725   H     0.54852   0.03799   0.64344   0.00000  Uiso   1.00
H726   H     0.86083   0.40999   0.76020   0.00000  Uiso   1.00
H727   H     0.49175   0.14711   0.90615   0.00000  Uiso   1.00
O728   O     0.44360   0.06974   0.59121   0.00000  Uiso   1.00
O729   O     0.85333   0.55779   0.74441   0.00000  Uiso   1.00
O730   O     0.36911   0.21289   0.93589   0.00000  Uiso   1.00
N731   N     0.43352   0.17419   0.63205   0.00000  Uiso   1.00
N732   N     0.72551   0.52198   0.74121   0.00000  Uiso   1.00
N733   N     0.38047   0.27622   0.87766   0.00000  Uiso   1.00
N734   N     0.51786   0.08619   0.64578   0.00000  Uiso   1.00
N735   N     0.80985   0.43398   0.75494   0.00000  Uiso   1.00
N736   N     0.46480   0.18822   0.89139   0.00000  Uiso   1.00
