data_job_01136
_audit_creation_date              2018-12-19
_audit_creation_method            'Materials Studio'
_symmetry_space_group_name_H-M    'P1'
_symmetry_Int_Tables_number       1
_symmetry_cell_setting            triclinic
loop_
_symmetry_equiv_pos_as_xyz
  x,y,z
_cell_length_a                    52.5008
_cell_length_b                    12.5504
_cell_length_c                    16.5149
_cell_angle_alpha                 90.0000
_cell_angle_beta                  90.0000
_cell_angle_gamma                 90.0000
loop_
_atom_site_label
_atom_site_type_symbol
_atom_site_fract_x
_atom_site_fract_y
_atom_site_fract_z
_atom_site_U_iso_or_equiv
_atom_site_adp_type
_atom_site_occupancy
C1     C     0.42842   0.19115   0.40605   0.00000  Uiso   1.00
C2     C     0.42411   0.27475   0.34045   0.00000  Uiso   1.00
C3     C     0.41173   0.37149   0.35080   0.00000  Uiso   1.00
C4     C     0.40974   0.43691   0.28329   0.00000  Uiso   1.00
C5     C     0.40151   0.57131   0.19286   0.00000  Uiso   1.00
C6     C     0.41672   0.08826   0.37397   0.00000  Uiso   1.00
C7     C     0.39813   0.02819   0.41250   0.00000  Uiso   1.00
C8     C     0.38992   0.93660   0.37322   0.00000  Uiso   1.00
C9     C     0.37024   0.78142   0.33486   0.00000  Uiso   1.00
C10    C     0.45709   0.17217   0.40896   0.00000  Uiso   1.00
C11    C     0.47244   0.18263   0.47690   0.00000  Uiso   1.00
C12    C     0.49823   0.16166   0.46708   0.00000  Uiso   1.00
C13    C     0.54122   0.13677   0.48303   0.00000  Uiso   1.00
C14    C     0.44691   0.13530   0.26778   0.00000  Uiso   1.00
C15    C     0.43415   0.24441   0.26535   0.00000  Uiso   1.00
C16    C     0.43218   0.30970   0.19782   0.00000  Uiso   1.00
C17    C     0.41980   0.40652   0.20806   0.00000  Uiso   1.00
C18    C     0.42676   0.05792   0.29888   0.00000  Uiso   1.00
C19    C     0.41859   0.96639   0.25953   0.00000  Uiso   1.00
C20    C     0.39998   0.90620   0.29799   0.00000  Uiso   1.00
C21    C     0.46714   0.14184   0.33385   0.00000  Uiso   1.00
C22    C     0.49290   0.12084   0.32393   0.00000  Uiso   1.00
C23    C     0.50829   0.13127   0.39184   0.00000  Uiso   1.00
H24    H     0.42060   0.21477   0.46451   0.00000  Uiso   1.00
H25    H     0.40396   0.39494   0.40892   0.00000  Uiso   1.00
H26    H     0.39036   0.05168   0.47062   0.00000  Uiso   1.00
H27    H     0.46467   0.20610   0.53501   0.00000  Uiso   1.00
H28    H     0.38992   0.58129   0.31416   0.00000  Uiso   1.00
H29    H     0.36127   0.85749   0.44428   0.00000  Uiso   1.00
H30    H     0.51795   0.18313   0.58005   0.00000  Uiso   1.00
H31    H     0.45473   0.11168   0.20931   0.00000  Uiso   1.00
H32    H     0.43996   0.28620   0.13971   0.00000  Uiso   1.00
H33    H     0.42636   0.94294   0.20142   0.00000  Uiso   1.00
H34    H     0.50066   0.09737   0.26580   0.00000  Uiso   1.00
H35    H     0.41914   0.49304   0.09566   0.00000  Uiso   1.00
H36    H     0.39049   0.76923   0.22578   0.00000  Uiso   1.00
H37    H     0.54717   0.09487   0.36155   0.00000  Uiso   1.00
O38    O     0.39419   0.65381   0.16373   0.00000  Uiso   1.00
O39    O     0.35660   0.70421   0.33444   0.00000  Uiso   1.00
O40    O     0.56216   0.13144   0.51257   0.00000  Uiso   1.00
N41    N     0.39883   0.53658   0.27229   0.00000  Uiso   1.00
N42    N     0.37204   0.85988   0.39394   0.00000  Uiso   1.00
N43    N     0.51852   0.16429   0.52088   0.00000  Uiso   1.00
N44    N     0.41455   0.48909   0.15472   0.00000  Uiso   1.00
N45    N     0.38776   0.81239   0.27636   0.00000  Uiso   1.00
N46    N     0.53424   0.11680   0.40330   0.00000  Uiso   1.00
C47    C     0.42842   0.69115   0.90605   0.00000  Uiso   1.00
C48    C     0.42411   0.77475   0.84045   0.00000  Uiso   1.00
C49    C     0.41173   0.87149   0.85080   0.00000  Uiso   1.00
C50    C     0.40974   0.93691   0.78329   0.00000  Uiso   1.00
C51    C     0.40151   0.07131   0.69286   0.00000  Uiso   1.00
C52    C     0.41672   0.58826   0.87397   0.00000  Uiso   1.00
C53    C     0.39813   0.52819   0.91250   0.00000  Uiso   1.00
C54    C     0.38992   0.43660   0.87322   0.00000  Uiso   1.00
C55    C     0.37024   0.28142   0.83486   0.00000  Uiso   1.00
C56    C     0.45709   0.67217   0.90896   0.00000  Uiso   1.00
C57    C     0.47244   0.68263   0.97690   0.00000  Uiso   1.00
C58    C     0.49823   0.66166   0.96708   0.00000  Uiso   1.00
C59    C     0.54122   0.63677   0.98303   0.00000  Uiso   1.00
C60    C     0.44691   0.63530   0.76778   0.00000  Uiso   1.00
C61    C     0.43415   0.74441   0.76535   0.00000  Uiso   1.00
C62    C     0.43218   0.80970   0.69782   0.00000  Uiso   1.00
C63    C     0.41980   0.90652   0.70806   0.00000  Uiso   1.00
C64    C     0.42676   0.55792   0.79888   0.00000  Uiso   1.00
C65    C     0.41859   0.46639   0.75953   0.00000  Uiso   1.00
C66    C     0.39998   0.40620   0.79799   0.00000  Uiso   1.00
C67    C     0.46714   0.64184   0.83385   0.00000  Uiso   1.00
C68    C     0.49290   0.62084   0.82393   0.00000  Uiso   1.00
C69    C     0.50829   0.63127   0.89184   0.00000  Uiso   1.00
H70    H     0.42060   0.71477   0.96451   0.00000  Uiso   1.00
H71    H     0.40396   0.89494   0.90892   0.00000  Uiso   1.00
H72    H     0.39036   0.55168   0.97062   0.00000  Uiso   1.00
H73    H     0.46467   0.70610   0.03501   0.00000  Uiso   1.00
H74    H     0.38992   0.08129   0.81416   0.00000  Uiso   1.00
H75    H     0.36127   0.35749   0.94428   0.00000  Uiso   1.00
H76    H     0.51795   0.68313   0.08005   0.00000  Uiso   1.00
H77    H     0.45473   0.61168   0.70931   0.00000  Uiso   1.00
H78    H     0.43996   0.78620   0.63971   0.00000  Uiso   1.00
H79    H     0.42636   0.44294   0.70142   0.00000  Uiso   1.00
H80    H     0.50066   0.59737   0.76580   0.00000  Uiso   1.00
H81    H     0.41914   0.99304   0.59566   0.00000  Uiso   1.00
H82    H     0.39049   0.26923   0.72578   0.00000  Uiso   1.00
H83    H     0.54717   0.59487   0.86155   0.00000  Uiso   1.00
O84    O     0.39419   0.15381   0.66373   0.00000  Uiso   1.00
O85    O     0.35660   0.20421   0.83444   0.00000  Uiso   1.00
O86    O     0.56216   0.63144   0.01257   0.00000  Uiso   1.00
N87    N     0.39883   0.03658   0.77229   0.00000  Uiso   1.00
N88    N     0.37204   0.35988   0.89394   0.00000  Uiso   1.00
N89    N     0.51852   0.66429   0.02088   0.00000  Uiso   1.00
N90    N     0.41455   0.98909   0.65472   0.00000  Uiso   1.00
N91    N     0.38776   0.31239   0.77636   0.00000  Uiso   1.00
N92    N     0.53424   0.61680   0.90330   0.00000  Uiso   1.00
C93    C     0.92842   0.19115   0.90605   0.00000  Uiso   1.00
C94    C     0.92411   0.27475   0.84045   0.00000  Uiso   1.00
C95    C     0.91173   0.37149   0.85080   0.00000  Uiso   1.00
C96    C     0.90974   0.43691   0.78329   0.00000  Uiso   1.00
C97    C     0.90151   0.57131   0.69286   0.00000  Uiso   1.00
C98    C     0.91672   0.08826   0.87397   0.00000  Uiso   1.00
C99    C     0.89813   0.02819   0.91250   0.00000  Uiso   1.00
C100   C     0.88992   0.93660   0.87322   0.00000  Uiso   1.00
C101   C     0.87024   0.78142   0.83486   0.00000  Uiso   1.00
C102   C     0.95709   0.17217   0.90896   0.00000  Uiso   1.00
C103   C     0.97244   0.18263   0.97690   0.00000  Uiso   1.00
C104   C     0.99823   0.16166   0.96708   0.00000  Uiso   1.00
C105   C     0.04122   0.13677   0.98303   0.00000  Uiso   1.00
C106   C     0.94691   0.13530   0.76778   0.00000  Uiso   1.00
C107   C     0.93415   0.24441   0.76535   0.00000  Uiso   1.00
C108   C     0.93218   0.30970   0.69782   0.00000  Uiso   1.00
C109   C     0.91980   0.40652   0.70806   0.00000  Uiso   1.00
C110   C     0.92676   0.05792   0.79888   0.00000  Uiso   1.00
C111   C     0.91859   0.96639   0.75953   0.00000  Uiso   1.00
C112   C     0.89998   0.90620   0.79799   0.00000  Uiso   1.00
C113   C     0.96714   0.14184   0.83385   0.00000  Uiso   1.00
C114   C     0.99290   0.12084   0.82393   0.00000  Uiso   1.00
C115   C     0.00829   0.13127   0.89184   0.00000  Uiso   1.00
H116   H     0.92060   0.21477   0.96451   0.00000  Uiso   1.00
H117   H     0.90396   0.39494   0.90892   0.00000  Uiso   1.00
H118   H     0.89036   0.05168   0.97062   0.00000  Uiso   1.00
H119   H     0.96467   0.20610   0.03501   0.00000  Uiso   1.00
H120   H     0.88992   0.58129   0.81416   0.00000  Uiso   1.00
H121   H     0.86127   0.85749   0.94428   0.00000  Uiso   1.00
H122   H     0.01795   0.18313   0.08005   0.00000  Uiso   1.00
H123   H     0.95473   0.11168   0.70931   0.00000  Uiso   1.00
H124   H     0.93996   0.28620   0.63971   0.00000  Uiso   1.00
H125   H     0.92636   0.94294   0.70142   0.00000  Uiso   1.00
H126   H     0.00066   0.09737   0.76580   0.00000  Uiso   1.00
H127   H     0.91914   0.49304   0.59566   0.00000  Uiso   1.00
H128   H     0.89049   0.76923   0.72578   0.00000  Uiso   1.00
H129   H     0.04717   0.09487   0.86155   0.00000  Uiso   1.00
O130   O     0.89419   0.65381   0.66373   0.00000  Uiso   1.00
O131   O     0.85660   0.70421   0.83444   0.00000  Uiso   1.00
O132   O     0.06216   0.13144   0.01257   0.00000  Uiso   1.00
N133   N     0.89883   0.53658   0.77229   0.00000  Uiso   1.00
N134   N     0.87204   0.85988   0.89394   0.00000  Uiso   1.00
N135   N     0.01852   0.16429   0.02088   0.00000  Uiso   1.00
N136   N     0.91455   0.48909   0.65472   0.00000  Uiso   1.00
N137   N     0.88776   0.81239   0.77636   0.00000  Uiso   1.00
N138   N     0.03424   0.11680   0.90330   0.00000  Uiso   1.00
C139   C     0.92842   0.69115   0.40605   0.00000  Uiso   1.00
C140   C     0.92411   0.77475   0.34045   0.00000  Uiso   1.00
C141   C     0.91173   0.87149   0.35080   0.00000  Uiso   1.00
C142   C     0.90974   0.93691   0.28329   0.00000  Uiso   1.00
C143   C     0.90151   0.07131   0.19286   0.00000  Uiso   1.00
C144   C     0.91672   0.58826   0.37397   0.00000  Uiso   1.00
C145   C     0.89813   0.52819   0.41250   0.00000  Uiso   1.00
C146   C     0.88992   0.43660   0.37322   0.00000  Uiso   1.00
C147   C     0.87024   0.28142   0.33486   0.00000  Uiso   1.00
C148   C     0.95709   0.67217   0.40896   0.00000  Uiso   1.00
C149   C     0.97244   0.68263   0.47690   0.00000  Uiso   1.00
C150   C     0.99823   0.66166   0.46708   0.00000  Uiso   1.00
C151   C     0.04122   0.63677   0.48303   0.00000  Uiso   1.00
C152   C     0.94691   0.63530   0.26778   0.00000  Uiso   1.00
C153   C     0.93415   0.74441   0.26535   0.00000  Uiso   1.00
C154   C     0.93218   0.80970   0.19782   0.00000  Uiso   1.00
C155   C     0.91980   0.90652   0.20806   0.00000  Uiso   1.00
C156   C     0.92676   0.55792   0.29888   0.00000  Uiso   1.00
C157   C     0.91859   0.46639   0.25953   0.00000  Uiso   1.00
C158   C     0.89998   0.40620   0.29799   0.00000  Uiso   1.00
C159   C     0.96714   0.64184   0.33385   0.00000  Uiso   1.00
C160   C     0.99290   0.62084   0.32393   0.00000  Uiso   1.00
C161   C     0.00829   0.63127   0.39184   0.00000  Uiso   1.00
H162   H     0.92060   0.71477   0.46451   0.00000  Uiso   1.00
H163   H     0.90396   0.89494   0.40892   0.00000  Uiso   1.00
H164   H     0.89036   0.55168   0.47062   0.00000  Uiso   1.00
H165   H     0.96467   0.70610   0.53501   0.00000  Uiso   1.00
H166   H     0.88992   0.08129   0.31416   0.00000  Uiso   1.00
H167   H     0.86127   0.35749   0.44428   0.00000  Uiso   1.00
H168   H     0.01795   0.68313   0.58005   0.00000  Uiso   1.00
H169   H     0.95473   0.61168   0.20931   0.00000  Uiso   1.00
H170   H     0.93996   0.78620   0.13971   0.00000  Uiso   1.00
H171   H     0.92636   0.44294   0.20142   0.00000  Uiso   1.00
H172   H     0.00066   0.59737   0.26580   0.00000  Uiso   1.00
H173   H     0.91914   0.99304   0.09566   0.00000  Uiso   1.00
H174   H     0.89049   0.26923   0.22578   0.00000  Uiso   1.00
H175   H     0.04717   0.59487   0.36155   0.00000  Uiso   1.00
O176   O     0.89419   0.15381   0.16373   0.00000  Uiso   1.00
O177   O     0.85660   0.20421   0.33444   0.00000  Uiso   1.00
O178   O     0.06216   0.63144   0.51257   0.00000  Uiso   1.00
N179   N     0.89883   0.03658   0.27229   0.00000  Uiso   1.00
N180   N     0.87204   0.35988   0.39394   0.00000  Uiso   1.00
N181   N     0.01852   0.66429   0.52088   0.00000  Uiso   1.00
N182   N     0.91455   0.98909   0.15472   0.00000  Uiso   1.00
N183   N     0.88776   0.31239   0.27636   0.00000  Uiso   1.00
N184   N     0.03424   0.61680   0.40330   0.00000  Uiso   1.00
C185   C     0.57158   0.80885   0.40605   0.00000  Uiso   1.00
C186   C     0.57589   0.72525   0.34045   0.00000  Uiso   1.00
C187   C     0.58827   0.62851   0.35080   0.00000  Uiso   1.00
C188   C     0.59026   0.56309   0.28329   0.00000  Uiso   1.00
C189   C     0.59849   0.42869   0.19286   0.00000  Uiso   1.00
C190   C     0.58328   0.91174   0.37397   0.00000  Uiso   1.00
C191   C     0.60187   0.97181   0.41250   0.00000  Uiso   1.00
C192   C     0.61008   0.06340   0.37322   0.00000  Uiso   1.00
C193   C     0.62976   0.21858   0.33486   0.00000  Uiso   1.00
C194   C     0.54291   0.82783   0.40896   0.00000  Uiso   1.00
C195   C     0.52756   0.81737   0.47690   0.00000  Uiso   1.00
C196   C     0.50177   0.83834   0.46708   0.00000  Uiso   1.00
C197   C     0.45878   0.86323   0.48303   0.00000  Uiso   1.00
C198   C     0.55309   0.86470   0.26778   0.00000  Uiso   1.00
C199   C     0.56585   0.75559   0.26535   0.00000  Uiso   1.00
C200   C     0.56782   0.69030   0.19782   0.00000  Uiso   1.00
C201   C     0.58020   0.59348   0.20806   0.00000  Uiso   1.00
C202   C     0.57324   0.94208   0.29888   0.00000  Uiso   1.00
C203   C     0.58141   0.03361   0.25953   0.00000  Uiso   1.00
C204   C     0.60002   0.09380   0.29799   0.00000  Uiso   1.00
C205   C     0.53286   0.85816   0.33385   0.00000  Uiso   1.00
C206   C     0.50710   0.87916   0.32393   0.00000  Uiso   1.00
C207   C     0.49171   0.86873   0.39184   0.00000  Uiso   1.00
H208   H     0.57940   0.78523   0.46451   0.00000  Uiso   1.00
H209   H     0.59604   0.60506   0.40892   0.00000  Uiso   1.00
H210   H     0.60964   0.94832   0.47062   0.00000  Uiso   1.00
H211   H     0.53533   0.79390   0.53501   0.00000  Uiso   1.00
H212   H     0.61008   0.41871   0.31416   0.00000  Uiso   1.00
H213   H     0.63873   0.14251   0.44428   0.00000  Uiso   1.00
H214   H     0.48205   0.81687   0.58005   0.00000  Uiso   1.00
H215   H     0.54527   0.88832   0.20931   0.00000  Uiso   1.00
H216   H     0.56004   0.71380   0.13971   0.00000  Uiso   1.00
H217   H     0.57364   0.05706   0.20142   0.00000  Uiso   1.00
H218   H     0.49934   0.90263   0.26580   0.00000  Uiso   1.00
H219   H     0.58086   0.50696   0.09566   0.00000  Uiso   1.00
H220   H     0.60951   0.23077   0.22578   0.00000  Uiso   1.00
H221   H     0.45283   0.90513   0.36155   0.00000  Uiso   1.00
O222   O     0.60581   0.34619   0.16373   0.00000  Uiso   1.00
O223   O     0.64340   0.29579   0.33444   0.00000  Uiso   1.00
O224   O     0.43784   0.86856   0.51257   0.00000  Uiso   1.00
N225   N     0.60117   0.46342   0.27229   0.00000  Uiso   1.00
N226   N     0.62796   0.14012   0.39394   0.00000  Uiso   1.00
N227   N     0.48148   0.83571   0.52088   0.00000  Uiso   1.00
N228   N     0.58545   0.51091   0.15472   0.00000  Uiso   1.00
N229   N     0.61224   0.18761   0.27636   0.00000  Uiso   1.00
N230   N     0.46576   0.88320   0.40330   0.00000  Uiso   1.00
C231   C     0.57158   0.30885   0.90605   0.00000  Uiso   1.00
C232   C     0.57589   0.22525   0.84045   0.00000  Uiso   1.00
C233   C     0.58827   0.12851   0.85080   0.00000  Uiso   1.00
C234   C     0.59026   0.06309   0.78329   0.00000  Uiso   1.00
C235   C     0.59849   0.92869   0.69286   0.00000  Uiso   1.00
C236   C     0.58328   0.41174   0.87397   0.00000  Uiso   1.00
C237   C     0.60187   0.47181   0.91250   0.00000  Uiso   1.00
C238   C     0.61008   0.56340   0.87322   0.00000  Uiso   1.00
C239   C     0.62976   0.71858   0.83486   0.00000  Uiso   1.00
C240   C     0.54291   0.32783   0.90896   0.00000  Uiso   1.00
C241   C     0.52756   0.31737   0.97690   0.00000  Uiso   1.00
C242   C     0.50177   0.33834   0.96708   0.00000  Uiso   1.00
C243   C     0.45878   0.36323   0.98303   0.00000  Uiso   1.00
C244   C     0.55309   0.36470   0.76778   0.00000  Uiso   1.00
C245   C     0.56585   0.25559   0.76535   0.00000  Uiso   1.00
C246   C     0.56782   0.19030   0.69782   0.00000  Uiso   1.00
C247   C     0.58020   0.09348   0.70806   0.00000  Uiso   1.00
C248   C     0.57324   0.44208   0.79888   0.00000  Uiso   1.00
C249   C     0.58141   0.53361   0.75953   0.00000  Uiso   1.00
C250   C     0.60002   0.59380   0.79799   0.00000  Uiso   1.00
C251   C     0.53286   0.35816   0.83385   0.00000  Uiso   1.00
C252   C     0.50710   0.37916   0.82393   0.00000  Uiso   1.00
C253   C     0.49171   0.36873   0.89184   0.00000  Uiso   1.00
H254   H     0.57940   0.28523   0.96451   0.00000  Uiso   1.00
H255   H     0.59604   0.10506   0.90892   0.00000  Uiso   1.00
H256   H     0.60964   0.44832   0.97062   0.00000  Uiso   1.00
H257   H     0.53533   0.29390   0.03501   0.00000  Uiso   1.00
H258   H     0.61008   0.91871   0.81416   0.00000  Uiso   1.00
H259   H     0.63873   0.64251   0.94428   0.00000  Uiso   1.00
H260   H     0.48205   0.31687   0.08005   0.00000  Uiso   1.00
H261   H     0.54527   0.38832   0.70931   0.00000  Uiso   1.00
H262   H     0.56004   0.21380   0.63971   0.00000  Uiso   1.00
H263   H     0.57364   0.55706   0.70142   0.00000  Uiso   1.00
H264   H     0.49934   0.40263   0.76580   0.00000  Uiso   1.00
H265   H     0.58086   0.00696   0.59566   0.00000  Uiso   1.00
H266   H     0.60951   0.73077   0.72578   0.00000  Uiso   1.00
H267   H     0.45283   0.40513   0.86155   0.00000  Uiso   1.00
O268   O     0.60581   0.84619   0.66373   0.00000  Uiso   1.00
O269   O     0.64340   0.79579   0.83444   0.00000  Uiso   1.00
O270   O     0.43784   0.36856   0.01257   0.00000  Uiso   1.00
N271   N     0.60117   0.96342   0.77229   0.00000  Uiso   1.00
N272   N     0.62796   0.64012   0.89394   0.00000  Uiso   1.00
N273   N     0.48148   0.33571   0.02088   0.00000  Uiso   1.00
N274   N     0.58545   0.01091   0.65472   0.00000  Uiso   1.00
N275   N     0.61224   0.68761   0.77636   0.00000  Uiso   1.00
N276   N     0.46576   0.38320   0.90330   0.00000  Uiso   1.00
C277   C     0.07158   0.80885   0.90605   0.00000  Uiso   1.00
C278   C     0.07589   0.72525   0.84045   0.00000  Uiso   1.00
C279   C     0.08827   0.62851   0.85080   0.00000  Uiso   1.00
C280   C     0.09026   0.56309   0.78329   0.00000  Uiso   1.00
C281   C     0.09849   0.42869   0.69286   0.00000  Uiso   1.00
C282   C     0.08328   0.91174   0.87397   0.00000  Uiso   1.00
C283   C     0.10187   0.97181   0.91250   0.00000  Uiso   1.00
C284   C     0.11008   0.06340   0.87322   0.00000  Uiso   1.00
C285   C     0.12976   0.21858   0.83486   0.00000  Uiso   1.00
C286   C     0.04291   0.82783   0.90896   0.00000  Uiso   1.00
C287   C     0.02756   0.81737   0.97690   0.00000  Uiso   1.00
C288   C     0.00177   0.83834   0.96708   0.00000  Uiso   1.00
C289   C     0.95878   0.86323   0.98303   0.00000  Uiso   1.00
C290   C     0.05309   0.86470   0.76778   0.00000  Uiso   1.00
C291   C     0.06585   0.75559   0.76535   0.00000  Uiso   1.00
C292   C     0.06782   0.69030   0.69782   0.00000  Uiso   1.00
C293   C     0.08020   0.59348   0.70806   0.00000  Uiso   1.00
C294   C     0.07324   0.94208   0.79888   0.00000  Uiso   1.00
C295   C     0.08141   0.03361   0.75953   0.00000  Uiso   1.00
C296   C     0.10002   0.09380   0.79799   0.00000  Uiso   1.00
C297   C     0.03286   0.85816   0.83385   0.00000  Uiso   1.00
C298   C     0.00710   0.87916   0.82393   0.00000  Uiso   1.00
C299   C     0.99171   0.86873   0.89184   0.00000  Uiso   1.00
H300   H     0.07940   0.78523   0.96451   0.00000  Uiso   1.00
H301   H     0.09604   0.60506   0.90892   0.00000  Uiso   1.00
H302   H     0.10964   0.94832   0.97062   0.00000  Uiso   1.00
H303   H     0.03533   0.79390   0.03501   0.00000  Uiso   1.00
H304   H     0.11008   0.41871   0.81416   0.00000  Uiso   1.00
H305   H     0.13873   0.14251   0.94428   0.00000  Uiso   1.00
H306   H     0.98205   0.81687   0.08005   0.00000  Uiso   1.00
H307   H     0.04527   0.88832   0.70931   0.00000  Uiso   1.00
H308   H     0.06004   0.71380   0.63971   0.00000  Uiso   1.00
H309   H     0.07364   0.05706   0.70142   0.00000  Uiso   1.00
H310   H     0.99934   0.90263   0.76580   0.00000  Uiso   1.00
H311   H     0.08086   0.50696   0.59566   0.00000  Uiso   1.00
H312   H     0.10951   0.23077   0.72578   0.00000  Uiso   1.00
H313   H     0.95283   0.90513   0.86155   0.00000  Uiso   1.00
O314   O     0.10581   0.34619   0.66373   0.00000  Uiso   1.00
O315   O     0.14340   0.29579   0.83444   0.00000  Uiso   1.00
O316   O     0.93784   0.86856   0.01257   0.00000  Uiso   1.00
N317   N     0.10117   0.46342   0.77229   0.00000  Uiso   1.00
N318   N     0.12796   0.14012   0.89394   0.00000  Uiso   1.00
N319   N     0.98148   0.83571   0.02088   0.00000  Uiso   1.00
N320   N     0.08545   0.51091   0.65472   0.00000  Uiso   1.00
N321   N     0.11224   0.18761   0.77636   0.00000  Uiso   1.00
N322   N     0.96576   0.88320   0.90330   0.00000  Uiso   1.00
C323   C     0.07158   0.30885   0.40605   0.00000  Uiso   1.00
C324   C     0.07589   0.22525   0.34045   0.00000  Uiso   1.00
C325   C     0.08827   0.12851   0.35080   0.00000  Uiso   1.00
C326   C     0.09026   0.06309   0.28329   0.00000  Uiso   1.00
C327   C     0.09849   0.92869   0.19286   0.00000  Uiso   1.00
C328   C     0.08328   0.41174   0.37397   0.00000  Uiso   1.00
C329   C     0.10187   0.47181   0.41250   0.00000  Uiso   1.00
C330   C     0.11008   0.56340   0.37322   0.00000  Uiso   1.00
C331   C     0.12976   0.71858   0.33486   0.00000  Uiso   1.00
C332   C     0.04291   0.32783   0.40896   0.00000  Uiso   1.00
C333   C     0.02756   0.31737   0.47690   0.00000  Uiso   1.00
C334   C     0.00177   0.33834   0.46708   0.00000  Uiso   1.00
C335   C     0.95878   0.36323   0.48303   0.00000  Uiso   1.00
C336   C     0.05309   0.36470   0.26778   0.00000  Uiso   1.00
C337   C     0.06585   0.25559   0.26535   0.00000  Uiso   1.00
C338   C     0.06782   0.19030   0.19782   0.00000  Uiso   1.00
C339   C     0.08020   0.09348   0.20806   0.00000  Uiso   1.00
C340   C     0.07324   0.44208   0.29888   0.00000  Uiso   1.00
C341   C     0.08141   0.53361   0.25953   0.00000  Uiso   1.00
C342   C     0.10002   0.59380   0.29799   0.00000  Uiso   1.00
C343   C     0.03286   0.35816   0.33385   0.00000  Uiso   1.00
C344   C     0.00710   0.37916   0.32393   0.00000  Uiso   1.00
C345   C     0.99171   0.36873   0.39184   0.00000  Uiso   1.00
H346   H     0.07940   0.28523   0.46451   0.00000  Uiso   1.00
H347   H     0.09604   0.10506   0.40892   0.00000  Uiso   1.00
H348   H     0.10964   0.44832   0.47062   0.00000  Uiso   1.00
H349   H     0.03533   0.29390   0.53501   0.00000  Uiso   1.00
H350   H     0.11008   0.91871   0.31416   0.00000  Uiso   1.00
H351   H     0.13873   0.64251   0.44428   0.00000  Uiso   1.00
H352   H     0.98205   0.31687   0.58005   0.00000  Uiso   1.00
H353   H     0.04527   0.38832   0.20931   0.00000  Uiso   1.00
H354   H     0.06004   0.21380   0.13971   0.00000  Uiso   1.00
H355   H     0.07364   0.55706   0.20142   0.00000  Uiso   1.00
H356   H     0.99934   0.40263   0.26580   0.00000  Uiso   1.00
H357   H     0.08086   0.00696   0.09566   0.00000  Uiso   1.00
H358   H     0.10951   0.73077   0.22578   0.00000  Uiso   1.00
H359   H     0.95283   0.40513   0.36155   0.00000  Uiso   1.00
O360   O     0.10581   0.84619   0.16373   0.00000  Uiso   1.00
O361   O     0.14340   0.79579   0.33444   0.00000  Uiso   1.00
O362   O     0.93784   0.36856   0.51257   0.00000  Uiso   1.00
N363   N     0.10117   0.96342   0.27229   0.00000  Uiso   1.00
N364   N     0.12796   0.64012   0.39394   0.00000  Uiso   1.00
N365   N     0.98148   0.33571   0.52088   0.00000  Uiso   1.00
N366   N     0.08545   0.01091   0.15472   0.00000  Uiso   1.00
N367   N     0.11224   0.68761   0.27636   0.00000  Uiso   1.00
N368   N     0.96576   0.38320   0.40330   0.00000  Uiso   1.00
C369   C     0.67842   0.05885   0.65605   0.00000  Uiso   1.00
C370   C     0.67411   0.97525   0.59045   0.00000  Uiso   1.00
C371   C     0.66173   0.87851   0.60080   0.00000  Uiso   1.00
C372   C     0.65974   0.81309   0.53329   0.00000  Uiso   1.00
C373   C     0.65151   0.67869   0.44286   0.00000  Uiso   1.00
C374   C     0.66672   0.16174   0.62397   0.00000  Uiso   1.00
C375   C     0.64813   0.22181   0.66250   0.00000  Uiso   1.00
C376   C     0.63992   0.31340   0.62322   0.00000  Uiso   1.00
C377   C     0.62024   0.46858   0.58486   0.00000  Uiso   1.00
C378   C     0.70709   0.07783   0.65896   0.00000  Uiso   1.00
C379   C     0.72244   0.06737   0.72690   0.00000  Uiso   1.00
C380   C     0.74823   0.08834   0.71708   0.00000  Uiso   1.00
C381   C     0.79122   0.11323   0.73303   0.00000  Uiso   1.00
C382   C     0.69691   0.11470   0.51778   0.00000  Uiso   1.00
C383   C     0.68415   0.00559   0.51535   0.00000  Uiso   1.00
C384   C     0.68218   0.94030   0.44782   0.00000  Uiso   1.00
C385   C     0.66980   0.84348   0.45806   0.00000  Uiso   1.00
C386   C     0.67676   0.19208   0.54888   0.00000  Uiso   1.00
C387   C     0.66859   0.28361   0.50953   0.00000  Uiso   1.00
C388   C     0.64998   0.34380   0.54799   0.00000  Uiso   1.00
C389   C     0.71714   0.10816   0.58385   0.00000  Uiso   1.00
C390   C     0.74290   0.12916   0.57393   0.00000  Uiso   1.00
C391   C     0.75829   0.11873   0.64184   0.00000  Uiso   1.00
H392   H     0.67060   0.03523   0.71451   0.00000  Uiso   1.00
H393   H     0.65396   0.85506   0.65892   0.00000  Uiso   1.00
H394   H     0.64036   0.19832   0.72062   0.00000  Uiso   1.00
H395   H     0.71467   0.04390   0.78501   0.00000  Uiso   1.00
H396   H     0.63992   0.66871   0.56416   0.00000  Uiso   1.00
H397   H     0.61127   0.39251   0.69428   0.00000  Uiso   1.00
H398   H     0.76795   0.06687   0.83005   0.00000  Uiso   1.00
H399   H     0.70473   0.13832   0.45931   0.00000  Uiso   1.00
H400   H     0.68996   0.96380   0.38971   0.00000  Uiso   1.00
H401   H     0.67636   0.30706   0.45142   0.00000  Uiso   1.00
H402   H     0.75066   0.15263   0.51580   0.00000  Uiso   1.00
H403   H     0.66914   0.75696   0.34566   0.00000  Uiso   1.00
H404   H     0.64049   0.48077   0.47578   0.00000  Uiso   1.00
H405   H     0.79717   0.15513   0.61155   0.00000  Uiso   1.00
O406   O     0.64419   0.59619   0.41373   0.00000  Uiso   1.00
O407   O     0.60660   0.54579   0.58444   0.00000  Uiso   1.00
O408   O     0.81216   0.11856   0.76257   0.00000  Uiso   1.00
N409   N     0.64883   0.71342   0.52229   0.00000  Uiso   1.00
N410   N     0.62204   0.39012   0.64394   0.00000  Uiso   1.00
N411   N     0.76852   0.08571   0.77088   0.00000  Uiso   1.00
N412   N     0.66455   0.76091   0.40472   0.00000  Uiso   1.00
N413   N     0.63776   0.43761   0.52636   0.00000  Uiso   1.00
N414   N     0.78424   0.13320   0.65330   0.00000  Uiso   1.00
C415   C     0.67842   0.55885   0.15605   0.00000  Uiso   1.00
C416   C     0.67411   0.47525   0.09045   0.00000  Uiso   1.00
C417   C     0.66173   0.37851   0.10080   0.00000  Uiso   1.00
C418   C     0.65974   0.31309   0.03329   0.00000  Uiso   1.00
C419   C     0.65151   0.17869   0.94286   0.00000  Uiso   1.00
C420   C     0.66672   0.66174   0.12397   0.00000  Uiso   1.00
C421   C     0.64813   0.72181   0.16250   0.00000  Uiso   1.00
C422   C     0.63992   0.81340   0.12322   0.00000  Uiso   1.00
C423   C     0.62024   0.96858   0.08486   0.00000  Uiso   1.00
C424   C     0.70709   0.57783   0.15896   0.00000  Uiso   1.00
C425   C     0.72244   0.56737   0.22690   0.00000  Uiso   1.00
C426   C     0.74823   0.58834   0.21708   0.00000  Uiso   1.00
C427   C     0.79122   0.61323   0.23303   0.00000  Uiso   1.00
C428   C     0.69691   0.61470   0.01778   0.00000  Uiso   1.00
C429   C     0.68415   0.50559   0.01535   0.00000  Uiso   1.00
C430   C     0.68218   0.44030   0.94782   0.00000  Uiso   1.00
C431   C     0.66980   0.34348   0.95806   0.00000  Uiso   1.00
C432   C     0.67676   0.69208   0.04888   0.00000  Uiso   1.00
C433   C     0.66859   0.78361   0.00953   0.00000  Uiso   1.00
C434   C     0.64998   0.84380   0.04799   0.00000  Uiso   1.00
C435   C     0.71714   0.60816   0.08385   0.00000  Uiso   1.00
C436   C     0.74290   0.62916   0.07393   0.00000  Uiso   1.00
C437   C     0.75829   0.61873   0.14184   0.00000  Uiso   1.00
H438   H     0.67060   0.53523   0.21451   0.00000  Uiso   1.00
H439   H     0.65396   0.35506   0.15892   0.00000  Uiso   1.00
H440   H     0.64036   0.69832   0.22062   0.00000  Uiso   1.00
H441   H     0.71467   0.54390   0.28501   0.00000  Uiso   1.00
H442   H     0.63992   0.16871   0.06416   0.00000  Uiso   1.00
H443   H     0.61127   0.89251   0.19428   0.00000  Uiso   1.00
H444   H     0.76795   0.56687   0.33005   0.00000  Uiso   1.00
H445   H     0.70473   0.63832   0.95931   0.00000  Uiso   1.00
H446   H     0.68996   0.46380   0.88971   0.00000  Uiso   1.00
H447   H     0.67636   0.80706   0.95142   0.00000  Uiso   1.00
H448   H     0.75066   0.65263   0.01580   0.00000  Uiso   1.00
H449   H     0.66914   0.25696   0.84566   0.00000  Uiso   1.00
H450   H     0.64049   0.98077   0.97578   0.00000  Uiso   1.00
H451   H     0.79717   0.65513   0.11155   0.00000  Uiso   1.00
O452   O     0.64419   0.09619   0.91373   0.00000  Uiso   1.00
O453   O     0.60660   0.04579   0.08444   0.00000  Uiso   1.00
O454   O     0.81216   0.61856   0.26257   0.00000  Uiso   1.00
N455   N     0.64883   0.21342   0.02229   0.00000  Uiso   1.00
N456   N     0.62204   0.89012   0.14394   0.00000  Uiso   1.00
N457   N     0.76852   0.58571   0.27088   0.00000  Uiso   1.00
N458   N     0.66455   0.26091   0.90472   0.00000  Uiso   1.00
N459   N     0.63776   0.93761   0.02636   0.00000  Uiso   1.00
N460   N     0.78424   0.63320   0.15330   0.00000  Uiso   1.00
C461   C     0.17842   0.05885   0.15605   0.00000  Uiso   1.00
C462   C     0.17411   0.97525   0.09045   0.00000  Uiso   1.00
C463   C     0.16173   0.87851   0.10080   0.00000  Uiso   1.00
C464   C     0.15974   0.81309   0.03329   0.00000  Uiso   1.00
C465   C     0.15151   0.67869   0.94286   0.00000  Uiso   1.00
C466   C     0.16672   0.16174   0.12397   0.00000  Uiso   1.00
C467   C     0.14813   0.22181   0.16250   0.00000  Uiso   1.00
C468   C     0.13992   0.31340   0.12322   0.00000  Uiso   1.00
C469   C     0.12024   0.46858   0.08486   0.00000  Uiso   1.00
C470   C     0.20709   0.07783   0.15896   0.00000  Uiso   1.00
C471   C     0.22244   0.06737   0.22690   0.00000  Uiso   1.00
C472   C     0.24823   0.08834   0.21708   0.00000  Uiso   1.00
C473   C     0.29122   0.11323   0.23303   0.00000  Uiso   1.00
C474   C     0.19691   0.11470   0.01778   0.00000  Uiso   1.00
C475   C     0.18415   0.00559   0.01535   0.00000  Uiso   1.00
C476   C     0.18218   0.94030   0.94782   0.00000  Uiso   1.00
C477   C     0.16980   0.84348   0.95806   0.00000  Uiso   1.00
C478   C     0.17676   0.19208   0.04888   0.00000  Uiso   1.00
C479   C     0.16859   0.28361   0.00953   0.00000  Uiso   1.00
C480   C     0.14998   0.34380   0.04799   0.00000  Uiso   1.00
C481   C     0.21714   0.10816   0.08385   0.00000  Uiso   1.00
C482   C     0.24290   0.12916   0.07393   0.00000  Uiso   1.00
C483   C     0.25829   0.11873   0.14184   0.00000  Uiso   1.00
H484   H     0.17060   0.03523   0.21451   0.00000  Uiso   1.00
H485   H     0.15396   0.85506   0.15892   0.00000  Uiso   1.00
H486   H     0.14036   0.19832   0.22062   0.00000  Uiso   1.00
H487   H     0.21467   0.04390   0.28501   0.00000  Uiso   1.00
H488   H     0.13992   0.66871   0.06416   0.00000  Uiso   1.00
H489   H     0.11127   0.39251   0.19428   0.00000  Uiso   1.00
H490   H     0.26795   0.06687   0.33005   0.00000  Uiso   1.00
H491   H     0.20473   0.13832   0.95931   0.00000  Uiso   1.00
H492   H     0.18996   0.96380   0.88971   0.00000  Uiso   1.00
H493   H     0.17636   0.30706   0.95142   0.00000  Uiso   1.00
H494   H     0.25066   0.15263   0.01580   0.00000  Uiso   1.00
H495   H     0.16914   0.75696   0.84566   0.00000  Uiso   1.00
H496   H     0.14049   0.48077   0.97578   0.00000  Uiso   1.00
H497   H     0.29717   0.15513   0.11155   0.00000  Uiso   1.00
O498   O     0.14419   0.59619   0.91373   0.00000  Uiso   1.00
O499   O     0.10660   0.54579   0.08444   0.00000  Uiso   1.00
O500   O     0.31216   0.11856   0.26257   0.00000  Uiso   1.00
N501   N     0.14883   0.71342   0.02229   0.00000  Uiso   1.00
N502   N     0.12204   0.39012   0.14394   0.00000  Uiso   1.00
N503   N     0.26852   0.08571   0.27088   0.00000  Uiso   1.00
N504   N     0.16455   0.76091   0.90472   0.00000  Uiso   1.00
N505   N     0.13776   0.43761   0.02636   0.00000  Uiso   1.00
N506   N     0.28424   0.13320   0.15330   0.00000  Uiso   1.00
C507   C     0.17842   0.55885   0.65605   0.00000  Uiso   1.00
C508   C     0.17411   0.47525   0.59045   0.00000  Uiso   1.00
C509   C     0.16173   0.37851   0.60080   0.00000  Uiso   1.00
C510   C     0.15974   0.31309   0.53329   0.00000  Uiso   1.00
C511   C     0.15151   0.17869   0.44286   0.00000  Uiso   1.00
C512   C     0.16672   0.66174   0.62397   0.00000  Uiso   1.00
C513   C     0.14813   0.72181   0.66250   0.00000  Uiso   1.00
C514   C     0.13992   0.81340   0.62322   0.00000  Uiso   1.00
C515   C     0.12024   0.96858   0.58486   0.00000  Uiso   1.00
C516   C     0.20709   0.57783   0.65896   0.00000  Uiso   1.00
C517   C     0.22244   0.56737   0.72690   0.00000  Uiso   1.00
C518   C     0.24823   0.58834   0.71708   0.00000  Uiso   1.00
C519   C     0.29122   0.61323   0.73303   0.00000  Uiso   1.00
C520   C     0.19691   0.61470   0.51778   0.00000  Uiso   1.00
C521   C     0.18415   0.50559   0.51535   0.00000  Uiso   1.00
C522   C     0.18218   0.44030   0.44782   0.00000  Uiso   1.00
C523   C     0.16980   0.34348   0.45806   0.00000  Uiso   1.00
C524   C     0.17676   0.69208   0.54888   0.00000  Uiso   1.00
C525   C     0.16859   0.78361   0.50953   0.00000  Uiso   1.00
C526   C     0.14998   0.84380   0.54799   0.00000  Uiso   1.00
C527   C     0.21714   0.60816   0.58385   0.00000  Uiso   1.00
C528   C     0.24290   0.62916   0.57393   0.00000  Uiso   1.00
C529   C     0.25829   0.61873   0.64184   0.00000  Uiso   1.00
H530   H     0.17060   0.53523   0.71451   0.00000  Uiso   1.00
H531   H     0.15396   0.35506   0.65892   0.00000  Uiso   1.00
H532   H     0.14036   0.69832   0.72062   0.00000  Uiso   1.00
H533   H     0.21467   0.54390   0.78501   0.00000  Uiso   1.00
H534   H     0.13992   0.16871   0.56416   0.00000  Uiso   1.00
H535   H     0.11127   0.89251   0.69428   0.00000  Uiso   1.00
H536   H     0.26795   0.56687   0.83005   0.00000  Uiso   1.00
H537   H     0.20473   0.63832   0.45931   0.00000  Uiso   1.00
H538   H     0.18996   0.46380   0.38971   0.00000  Uiso   1.00
H539   H     0.17636   0.80706   0.45142   0.00000  Uiso   1.00
H540   H     0.25066   0.65263   0.51580   0.00000  Uiso   1.00
H541   H     0.16914   0.25696   0.34566   0.00000  Uiso   1.00
H542   H     0.14049   0.98077   0.47578   0.00000  Uiso   1.00
H543   H     0.29717   0.65513   0.61155   0.00000  Uiso   1.00
O544   O     0.14419   0.09619   0.41373   0.00000  Uiso   1.00
O545   O     0.10660   0.04579   0.58444   0.00000  Uiso   1.00
O546   O     0.31216   0.61856   0.76257   0.00000  Uiso   1.00
N547   N     0.14883   0.21342   0.52229   0.00000  Uiso   1.00
N548   N     0.12204   0.89012   0.64394   0.00000  Uiso   1.00
N549   N     0.26852   0.58571   0.77088   0.00000  Uiso   1.00
N550   N     0.16455   0.26091   0.40472   0.00000  Uiso   1.00
N551   N     0.13776   0.93761   0.52636   0.00000  Uiso   1.00
N552   N     0.28424   0.63320   0.65330   0.00000  Uiso   1.00
C553   C     0.82158   0.44115   0.65605   0.00000  Uiso   1.00
C554   C     0.82589   0.52475   0.59045   0.00000  Uiso   1.00
C555   C     0.83827   0.62149   0.60080   0.00000  Uiso   1.00
C556   C     0.84026   0.68691   0.53329   0.00000  Uiso   1.00
C557   C     0.84849   0.82131   0.44286   0.00000  Uiso   1.00
C558   C     0.83328   0.33826   0.62397   0.00000  Uiso   1.00
C559   C     0.85187   0.27819   0.66250   0.00000  Uiso   1.00
C560   C     0.86008   0.18660   0.62322   0.00000  Uiso   1.00
C561   C     0.87976   0.03142   0.58486   0.00000  Uiso   1.00
C562   C     0.79291   0.42217   0.65896   0.00000  Uiso   1.00
C563   C     0.77756   0.43263   0.72690   0.00000  Uiso   1.00
C564   C     0.75177   0.41166   0.71708   0.00000  Uiso   1.00
C565   C     0.70878   0.38677   0.73303   0.00000  Uiso   1.00
C566   C     0.80309   0.38530   0.51778   0.00000  Uiso   1.00
C567   C     0.81585   0.49441   0.51535   0.00000  Uiso   1.00
C568   C     0.81782   0.55970   0.44782   0.00000  Uiso   1.00
C569   C     0.83020   0.65652   0.45806   0.00000  Uiso   1.00
C570   C     0.82324   0.30792   0.54888   0.00000  Uiso   1.00
C571   C     0.83141   0.21639   0.50953   0.00000  Uiso   1.00
C572   C     0.85002   0.15620   0.54799   0.00000  Uiso   1.00
C573   C     0.78286   0.39184   0.58385   0.00000  Uiso   1.00
C574   C     0.75710   0.37084   0.57393   0.00000  Uiso   1.00
C575   C     0.74171   0.38127   0.64184   0.00000  Uiso   1.00
H576   H     0.82940   0.46477   0.71451   0.00000  Uiso   1.00
H577   H     0.84604   0.64494   0.65892   0.00000  Uiso   1.00
H578   H     0.85964   0.30168   0.72062   0.00000  Uiso   1.00
H579   H     0.78533   0.45610   0.78501   0.00000  Uiso   1.00
H580   H     0.86008   0.83129   0.56416   0.00000  Uiso   1.00
H581   H     0.88873   0.10749   0.69428   0.00000  Uiso   1.00
H582   H     0.73205   0.43313   0.83005   0.00000  Uiso   1.00
H583   H     0.79527   0.36168   0.45931   0.00000  Uiso   1.00
H584   H     0.81004   0.53620   0.38971   0.00000  Uiso   1.00
H585   H     0.82364   0.19294   0.45142   0.00000  Uiso   1.00
H586   H     0.74934   0.34737   0.51580   0.00000  Uiso   1.00
H587   H     0.83086   0.74304   0.34566   0.00000  Uiso   1.00
H588   H     0.85951   0.01923   0.47578   0.00000  Uiso   1.00
H589   H     0.70283   0.34487   0.61155   0.00000  Uiso   1.00
O590   O     0.85581   0.90381   0.41373   0.00000  Uiso   1.00
O591   O     0.89340   0.95421   0.58444   0.00000  Uiso   1.00
O592   O     0.68784   0.38144   0.76257   0.00000  Uiso   1.00
N593   N     0.85117   0.78658   0.52229   0.00000  Uiso   1.00
N594   N     0.87796   0.10988   0.64394   0.00000  Uiso   1.00
N595   N     0.73148   0.41429   0.77088   0.00000  Uiso   1.00
N596   N     0.83545   0.73909   0.40472   0.00000  Uiso   1.00
N597   N     0.86224   0.06239   0.52636   0.00000  Uiso   1.00
N598   N     0.71576   0.36680   0.65330   0.00000  Uiso   1.00
C599   C     0.82158   0.94115   0.15605   0.00000  Uiso   1.00
C600   C     0.82589   0.02475   0.09045   0.00000  Uiso   1.00
C601   C     0.83827   0.12149   0.10080   0.00000  Uiso   1.00
C602   C     0.84026   0.18691   0.03329   0.00000  Uiso   1.00
C603   C     0.84849   0.32131   0.94286   0.00000  Uiso   1.00
C604   C     0.83328   0.83826   0.12397   0.00000  Uiso   1.00
C605   C     0.85187   0.77819   0.16250   0.00000  Uiso   1.00
C606   C     0.86008   0.68660   0.12322   0.00000  Uiso   1.00
C607   C     0.87976   0.53142   0.08486   0.00000  Uiso   1.00
C608   C     0.79291   0.92217   0.15896   0.00000  Uiso   1.00
C609   C     0.77756   0.93263   0.22690   0.00000  Uiso   1.00
C610   C     0.75177   0.91166   0.21708   0.00000  Uiso   1.00
C611   C     0.70878   0.88677   0.23303   0.00000  Uiso   1.00
C612   C     0.80309   0.88530   0.01778   0.00000  Uiso   1.00
C613   C     0.81585   0.99441   0.01535   0.00000  Uiso   1.00
C614   C     0.81782   0.05970   0.94782   0.00000  Uiso   1.00
C615   C     0.83020   0.15652   0.95806   0.00000  Uiso   1.00
C616   C     0.82324   0.80792   0.04888   0.00000  Uiso   1.00
C617   C     0.83141   0.71639   0.00953   0.00000  Uiso   1.00
C618   C     0.85002   0.65620   0.04799   0.00000  Uiso   1.00
C619   C     0.78286   0.89184   0.08385   0.00000  Uiso   1.00
C620   C     0.75710   0.87084   0.07393   0.00000  Uiso   1.00
C621   C     0.74171   0.88127   0.14184   0.00000  Uiso   1.00
H622   H     0.82940   0.96477   0.21451   0.00000  Uiso   1.00
H623   H     0.84604   0.14494   0.15892   0.00000  Uiso   1.00
H624   H     0.85964   0.80168   0.22062   0.00000  Uiso   1.00
H625   H     0.78533   0.95610   0.28501   0.00000  Uiso   1.00
H626   H     0.86008   0.33129   0.06416   0.00000  Uiso   1.00
H627   H     0.88873   0.60749   0.19428   0.00000  Uiso   1.00
H628   H     0.73205   0.93313   0.33005   0.00000  Uiso   1.00
H629   H     0.79527   0.86168   0.95931   0.00000  Uiso   1.00
H630   H     0.81004   0.03620   0.88971   0.00000  Uiso   1.00
H631   H     0.82364   0.69294   0.95142   0.00000  Uiso   1.00
H632   H     0.74934   0.84737   0.01580   0.00000  Uiso   1.00
H633   H     0.83086   0.24304   0.84566   0.00000  Uiso   1.00
H634   H     0.85951   0.51923   0.97578   0.00000  Uiso   1.00
H635   H     0.70283   0.84487   0.11155   0.00000  Uiso   1.00
O636   O     0.85581   0.40381   0.91373   0.00000  Uiso   1.00
O637   O     0.89340   0.45421   0.08444   0.00000  Uiso   1.00
O638   O     0.68784   0.88144   0.26257   0.00000  Uiso   1.00
N639   N     0.85117   0.28658   0.02229   0.00000  Uiso   1.00
N640   N     0.87796   0.60988   0.14394   0.00000  Uiso   1.00
N641   N     0.73148   0.91429   0.27088   0.00000  Uiso   1.00
N642   N     0.83545   0.23909   0.90472   0.00000  Uiso   1.00
N643   N     0.86224   0.56239   0.02636   0.00000  Uiso   1.00
N644   N     0.71576   0.86680   0.15330   0.00000  Uiso   1.00
C645   C     0.32158   0.44115   0.15605   0.00000  Uiso   1.00
C646   C     0.32589   0.52475   0.09045   0.00000  Uiso   1.00
C647   C     0.33827   0.62149   0.10080   0.00000  Uiso   1.00
C648   C     0.34026   0.68691   0.03329   0.00000  Uiso   1.00
C649   C     0.34849   0.82131   0.94286   0.00000  Uiso   1.00
C650   C     0.33328   0.33826   0.12397   0.00000  Uiso   1.00
C651   C     0.35187   0.27819   0.16250   0.00000  Uiso   1.00
C652   C     0.36008   0.18660   0.12322   0.00000  Uiso   1.00
C653   C     0.37976   0.03142   0.08486   0.00000  Uiso   1.00
C654   C     0.29291   0.42217   0.15896   0.00000  Uiso   1.00
C655   C     0.27756   0.43263   0.22690   0.00000  Uiso   1.00
C656   C     0.25177   0.41166   0.21708   0.00000  Uiso   1.00
C657   C     0.20878   0.38677   0.23303   0.00000  Uiso   1.00
C658   C     0.30309   0.38530   0.01778   0.00000  Uiso   1.00
C659   C     0.31585   0.49441   0.01535   0.00000  Uiso   1.00
C660   C     0.31782   0.55970   0.94782   0.00000  Uiso   1.00
C661   C     0.33020   0.65652   0.95806   0.00000  Uiso   1.00
C662   C     0.32324   0.30792   0.04888   0.00000  Uiso   1.00
C663   C     0.33141   0.21639   0.00953   0.00000  Uiso   1.00
C664   C     0.35002   0.15620   0.04799   0.00000  Uiso   1.00
C665   C     0.28286   0.39184   0.08385   0.00000  Uiso   1.00
C666   C     0.25710   0.37084   0.07393   0.00000  Uiso   1.00
C667   C     0.24171   0.38127   0.14184   0.00000  Uiso   1.00
H668   H     0.32940   0.46477   0.21451   0.00000  Uiso   1.00
H669   H     0.34604   0.64494   0.15892   0.00000  Uiso   1.00
H670   H     0.35964   0.30168   0.22062   0.00000  Uiso   1.00
H671   H     0.28533   0.45610   0.28501   0.00000  Uiso   1.00
H672   H     0.36008   0.83129   0.06416   0.00000  Uiso   1.00
H673   H     0.38873   0.10749   0.19428   0.00000  Uiso   1.00
H674   H     0.23205   0.43313   0.33005   0.00000  Uiso   1.00
H675   H     0.29527   0.36168   0.95931   0.00000  Uiso   1.00
H676   H     0.31004   0.53620   0.88971   0.00000  Uiso   1.00
H677   H     0.32364   0.19294   0.95142   0.00000  Uiso   1.00
H678   H     0.24934   0.34737   0.01580   0.00000  Uiso   1.00
H679   H     0.33086   0.74304   0.84566   0.00000  Uiso   1.00
H680   H     0.35951   0.01923   0.97578   0.00000  Uiso   1.00
H681   H     0.20283   0.34487   0.11155   0.00000  Uiso   1.00
O682   O     0.35581   0.90381   0.91373   0.00000  Uiso   1.00
O683   O     0.39340   0.95421   0.08444   0.00000  Uiso   1.00
O684   O     0.18784   0.38144   0.26257   0.00000  Uiso   1.00
N685   N     0.35117   0.78658   0.02229   0.00000  Uiso   1.00
N686   N     0.37796   0.10988   0.14394   0.00000  Uiso   1.00
N687   N     0.23148   0.41429   0.27088   0.00000  Uiso   1.00
N688   N     0.33545   0.73909   0.90472   0.00000  Uiso   1.00
N689   N     0.36224   0.06239   0.02636   0.00000  Uiso   1.00
N690   N     0.21576   0.36680   0.15330   0.00000  Uiso   1.00
C691   C     0.32158   0.94115   0.65605   0.00000  Uiso   1.00
C692   C     0.32589   0.02475   0.59045   0.00000  Uiso   1.00
C693   C     0.33827   0.12149   0.60080   0.00000  Uiso   1.00
C694   C     0.34026   0.18691   0.53329   0.00000  Uiso   1.00
C695   C     0.34849   0.32131   0.44286   0.00000  Uiso   1.00
C696   C     0.33328   0.83826   0.62397   0.00000  Uiso   1.00
C697   C     0.35187   0.77819   0.66250   0.00000  Uiso   1.00
C698   C     0.36008   0.68660   0.62322   0.00000  Uiso   1.00
C699   C     0.37976   0.53142   0.58486   0.00000  Uiso   1.00
C700   C     0.29291   0.92217   0.65896   0.00000  Uiso   1.00
C701   C     0.27756   0.93263   0.72690   0.00000  Uiso   1.00
C702   C     0.25177   0.91166   0.71708   0.00000  Uiso   1.00
C703   C     0.20878   0.88677   0.73303   0.00000  Uiso   1.00
C704   C     0.30309   0.88530   0.51778   0.00000  Uiso   1.00
C705   C     0.31585   0.99441   0.51535   0.00000  Uiso   1.00
C706   C     0.31782   0.05970   0.44782   0.00000  Uiso   1.00
C707   C     0.33020   0.15652   0.45806   0.00000  Uiso   1.00
C708   C     0.32324   0.80792   0.54888   0.00000  Uiso   1.00
C709   C     0.33141   0.71639   0.50953   0.00000  Uiso   1.00
C710   C     0.35002   0.65620   0.54799   0.00000  Uiso   1.00
C711   C     0.28286   0.89184   0.58385   0.00000  Uiso   1.00
C712   C     0.25710   0.87084   0.57393   0.00000  Uiso   1.00
C713   C     0.24171   0.88127   0.64184   0.00000  Uiso   1.00
H714   H     0.32940   0.96477   0.71451   0.00000  Uiso   1.00
H715   H     0.34604   0.14494   0.65892   0.00000  Uiso   1.00
H716   H     0.35964   0.80168   0.72062   0.00000  Uiso   1.00
H717   H     0.28533   0.95610   0.78501   0.00000  Uiso   1.00
H718   H     0.36008   0.33129   0.56416   0.00000  Uiso   1.00
H719   H     0.38873   0.60749   0.69428   0.00000  Uiso   1.00
H720   H     0.23205   0.93313   0.83005   0.00000  Uiso   1.00
H721   H     0.29527   0.86168   0.45931   0.00000  Uiso   1.00
H722   H     0.31004   0.03620   0.38971   0.00000  Uiso   1.00
H723   H     0.32364   0.69294   0.45142   0.00000  Uiso   1.00
H724   H     0.24934   0.84737   0.51580   0.00000  Uiso   1.00
H725   H     0.33086   0.24304   0.34566   0.00000  Uiso   1.00
H726   H     0.35951   0.51923   0.47578   0.00000  Uiso   1.00
H727   H     0.20283   0.84487   0.61155   0.00000  Uiso   1.00
O728   O     0.35581   0.40381   0.41373   0.00000  Uiso   1.00
O729   O     0.39340   0.45421   0.58444   0.00000  Uiso   1.00
O730   O     0.18784   0.88144   0.76257   0.00000  Uiso   1.00
N731   N     0.35117   0.28658   0.52229   0.00000  Uiso   1.00
N732   N     0.37796   0.60988   0.64394   0.00000  Uiso   1.00
N733   N     0.23148   0.91429   0.77088   0.00000  Uiso   1.00
N734   N     0.33545   0.23909   0.40472   0.00000  Uiso   1.00
N735   N     0.36224   0.56239   0.52636   0.00000  Uiso   1.00
N736   N     0.21576   0.86680   0.65330   0.00000  Uiso   1.00
