data_job_00823
_audit_creation_date              2018-12-19
_audit_creation_method            'Materials Studio'
_symmetry_space_group_name_H-M    'P1'
_symmetry_Int_Tables_number       1
_symmetry_cell_setting            triclinic
loop_
_symmetry_equiv_pos_as_xyz
  x,y,z
_cell_length_a                    20.2897
_cell_length_b                    20.2897
_cell_length_c                    24.1640
_cell_angle_alpha                 90.0000
_cell_angle_beta                  90.0000
_cell_angle_gamma                 90.0000
loop_
_atom_site_label
_atom_site_type_symbol
_atom_site_fract_x
_atom_site_fract_y
_atom_site_fract_z
_atom_site_U_iso_or_equiv
_atom_site_adp_type
_atom_site_occupancy
C1     C     0.29766   0.79277   0.65488   0.00000  Uiso   1.00
C2     C     0.30500   0.84085   0.60677   0.00000  Uiso   1.00
C3     C     0.25368   0.86845   0.57671   0.00000  Uiso   1.00
C4     C     0.27064   0.91133   0.53425   0.00000  Uiso   1.00
C5     C     0.27201   0.98374   0.46135   0.00000  Uiso   1.00
C6     C     0.33760   0.73191   0.63915   0.00000  Uiso   1.00
C7     C     0.31369   0.66792   0.63632   0.00000  Uiso   1.00
C8     C     0.35809   0.61909   0.62113   0.00000  Uiso   1.00
C9     C     0.41008   0.52236   0.59854   0.00000  Uiso   1.00
C10    C     0.33357   0.82408   0.70369   0.00000  Uiso   1.00
C11    C     0.30627   0.83756   0.75512   0.00000  Uiso   1.00
C12    C     0.34728   0.86631   0.79427   0.00000  Uiso   1.00
C13    C     0.39301   0.91268   0.87187   0.00000  Uiso   1.00
C14    C     0.41905   0.81984   0.63296   0.00000  Uiso   1.00
C15    C     0.37094   0.85556   0.59487   0.00000  Uiso   1.00
C16    C     0.38798   0.89841   0.55245   0.00000  Uiso   1.00
C17    C     0.33669   0.92607   0.52233   0.00000  Uiso   1.00
C18    C     0.40353   0.74662   0.62725   0.00000  Uiso   1.00
C19    C     0.44798   0.69787   0.61207   0.00000  Uiso   1.00
C20    C     0.42414   0.63382   0.60921   0.00000  Uiso   1.00
C21    C     0.39950   0.83879   0.69178   0.00000  Uiso   1.00
C22    C     0.44056   0.86752   0.73086   0.00000  Uiso   1.00
C23    C     0.41333   0.88105   0.78234   0.00000  Uiso   1.00
H24    H     0.24634   0.78131   0.66415   0.00000  Uiso   1.00
H25    H     0.20267   0.85706   0.58593   0.00000  Uiso   1.00
H26    H     0.26267   0.65655   0.64554   0.00000  Uiso   1.00
H27    H     0.25525   0.82617   0.76431   0.00000  Uiso   1.00
H28    H     0.18333   0.94750   0.49394   0.00000  Uiso   1.00
H29    H     0.30984   0.52472   0.61965   0.00000  Uiso   1.00
H30    H     0.29420   0.88239   0.87012   0.00000  Uiso   1.00
H31    H     0.47038   0.83129   0.62369   0.00000  Uiso   1.00
H32    H     0.43900   0.90978   0.54325   0.00000  Uiso   1.00
H33    H     0.49900   0.70927   0.60286   0.00000  Uiso   1.00
H34    H     0.49158   0.87889   0.72164   0.00000  Uiso   1.00
H35    H     0.37514   0.99029   0.45930   0.00000  Uiso   1.00
H36    H     0.50166   0.56751   0.58502   0.00000  Uiso   1.00
H37    H     0.48602   0.92518   0.83548   0.00000  Uiso   1.00
O38    O     0.25455   0.01961   0.42442   0.00000  Uiso   1.00
O39    O     0.42054   0.46494   0.58936   0.00000  Uiso   1.00
O40    O     0.40002   0.93420   0.91796   0.00000  Uiso   1.00
N41    N     0.23278   0.94681   0.49684   0.00000  Uiso   1.00
N42    N     0.35106   0.55154   0.61436   0.00000  Uiso   1.00
N43    N     0.33644   0.88591   0.84853   0.00000  Uiso   1.00
N44    N     0.33599   0.96984   0.47820   0.00000  Uiso   1.00
N45    N     0.45427   0.57456   0.59572   0.00000  Uiso   1.00
N46    N     0.43965   0.90894   0.82989   0.00000  Uiso   1.00
C47    C     0.70234   0.20723   0.65488   0.00000  Uiso   1.00
C48    C     0.69500   0.15915   0.60677   0.00000  Uiso   1.00
C49    C     0.74632   0.13155   0.57671   0.00000  Uiso   1.00
C50    C     0.72936   0.08867   0.53425   0.00000  Uiso   1.00
C51    C     0.72799   0.01626   0.46135   0.00000  Uiso   1.00
C52    C     0.66240   0.26809   0.63915   0.00000  Uiso   1.00
C53    C     0.68631   0.33208   0.63632   0.00000  Uiso   1.00
C54    C     0.64191   0.38091   0.62113   0.00000  Uiso   1.00
C55    C     0.58992   0.47764   0.59854   0.00000  Uiso   1.00
C56    C     0.66643   0.17592   0.70369   0.00000  Uiso   1.00
C57    C     0.69373   0.16244   0.75512   0.00000  Uiso   1.00
C58    C     0.65272   0.13369   0.79427   0.00000  Uiso   1.00
C59    C     0.60699   0.08732   0.87187   0.00000  Uiso   1.00
C60    C     0.58095   0.18016   0.63296   0.00000  Uiso   1.00
C61    C     0.62906   0.14444   0.59487   0.00000  Uiso   1.00
C62    C     0.61202   0.10159   0.55245   0.00000  Uiso   1.00
C63    C     0.66331   0.07393   0.52233   0.00000  Uiso   1.00
C64    C     0.59647   0.25338   0.62725   0.00000  Uiso   1.00
C65    C     0.55202   0.30213   0.61207   0.00000  Uiso   1.00
C66    C     0.57586   0.36618   0.60921   0.00000  Uiso   1.00
C67    C     0.60050   0.16121   0.69178   0.00000  Uiso   1.00
C68    C     0.55944   0.13248   0.73086   0.00000  Uiso   1.00
C69    C     0.58667   0.11895   0.78234   0.00000  Uiso   1.00
H70    H     0.75366   0.21869   0.66415   0.00000  Uiso   1.00
H71    H     0.79733   0.14294   0.58593   0.00000  Uiso   1.00
H72    H     0.73733   0.34345   0.64554   0.00000  Uiso   1.00
H73    H     0.74475   0.17383   0.76431   0.00000  Uiso   1.00
H74    H     0.81667   0.05250   0.49394   0.00000  Uiso   1.00
H75    H     0.69016   0.47528   0.61965   0.00000  Uiso   1.00
H76    H     0.70580   0.11761   0.87012   0.00000  Uiso   1.00
H77    H     0.52962   0.16871   0.62369   0.00000  Uiso   1.00
H78    H     0.56100   0.09022   0.54325   0.00000  Uiso   1.00
H79    H     0.50100   0.29073   0.60286   0.00000  Uiso   1.00
H80    H     0.50842   0.12111   0.72164   0.00000  Uiso   1.00
H81    H     0.62486   0.00971   0.45930   0.00000  Uiso   1.00
H82    H     0.49834   0.43249   0.58502   0.00000  Uiso   1.00
H83    H     0.51398   0.07482   0.83548   0.00000  Uiso   1.00
O84    O     0.74545   0.98039   0.42442   0.00000  Uiso   1.00
O85    O     0.57946   0.53506   0.58936   0.00000  Uiso   1.00
O86    O     0.59998   0.06580   0.91796   0.00000  Uiso   1.00
N87    N     0.76722   0.05319   0.49684   0.00000  Uiso   1.00
N88    N     0.64894   0.44846   0.61436   0.00000  Uiso   1.00
N89    N     0.66356   0.11409   0.84853   0.00000  Uiso   1.00
N90    N     0.66401   0.03016   0.47820   0.00000  Uiso   1.00
N91    N     0.54573   0.42544   0.59572   0.00000  Uiso   1.00
N92    N     0.56035   0.09106   0.82989   0.00000  Uiso   1.00
C93    C     0.70723   0.79766   0.65488   0.00000  Uiso   1.00
C94    C     0.65915   0.80500   0.60677   0.00000  Uiso   1.00
C95    C     0.63155   0.75368   0.57671   0.00000  Uiso   1.00
C96    C     0.58867   0.77064   0.53425   0.00000  Uiso   1.00
C97    C     0.51626   0.77201   0.46135   0.00000  Uiso   1.00
C98    C     0.76809   0.83760   0.63915   0.00000  Uiso   1.00
C99    C     0.83208   0.81369   0.63632   0.00000  Uiso   1.00
C100   C     0.88091   0.85809   0.62113   0.00000  Uiso   1.00
C101   C     0.97764   0.91008   0.59854   0.00000  Uiso   1.00
C102   C     0.67592   0.83357   0.70369   0.00000  Uiso   1.00
C103   C     0.66244   0.80627   0.75512   0.00000  Uiso   1.00
C104   C     0.63369   0.84728   0.79427   0.00000  Uiso   1.00
C105   C     0.58732   0.89301   0.87187   0.00000  Uiso   1.00
C106   C     0.68016   0.91905   0.63296   0.00000  Uiso   1.00
C107   C     0.64444   0.87094   0.59487   0.00000  Uiso   1.00
C108   C     0.60159   0.88798   0.55245   0.00000  Uiso   1.00
C109   C     0.57393   0.83669   0.52233   0.00000  Uiso   1.00
C110   C     0.75338   0.90353   0.62725   0.00000  Uiso   1.00
C111   C     0.80213   0.94798   0.61207   0.00000  Uiso   1.00
C112   C     0.86618   0.92414   0.60921   0.00000  Uiso   1.00
C113   C     0.66121   0.89950   0.69178   0.00000  Uiso   1.00
C114   C     0.63248   0.94056   0.73086   0.00000  Uiso   1.00
C115   C     0.61895   0.91333   0.78234   0.00000  Uiso   1.00
H116   H     0.71869   0.74634   0.66415   0.00000  Uiso   1.00
H117   H     0.64294   0.70267   0.58593   0.00000  Uiso   1.00
H118   H     0.84345   0.76267   0.64554   0.00000  Uiso   1.00
H119   H     0.67383   0.75525   0.76431   0.00000  Uiso   1.00
H120   H     0.55250   0.68333   0.49394   0.00000  Uiso   1.00
H121   H     0.97528   0.80984   0.61965   0.00000  Uiso   1.00
H122   H     0.61761   0.79420   0.87012   0.00000  Uiso   1.00
H123   H     0.66871   0.97038   0.62369   0.00000  Uiso   1.00
H124   H     0.59022   0.93900   0.54325   0.00000  Uiso   1.00
H125   H     0.79073   0.99900   0.60286   0.00000  Uiso   1.00
H126   H     0.62111   0.99158   0.72164   0.00000  Uiso   1.00
H127   H     0.50971   0.87514   0.45930   0.00000  Uiso   1.00
H128   H     0.93249   0.00166   0.58502   0.00000  Uiso   1.00
H129   H     0.57482   0.98602   0.83548   0.00000  Uiso   1.00
O130   O     0.48039   0.75455   0.42442   0.00000  Uiso   1.00
O131   O     0.03506   0.92054   0.58936   0.00000  Uiso   1.00
O132   O     0.56580   0.90002   0.91796   0.00000  Uiso   1.00
N133   N     0.55319   0.73278   0.49684   0.00000  Uiso   1.00
N134   N     0.94846   0.85106   0.61436   0.00000  Uiso   1.00
N135   N     0.61409   0.83644   0.84853   0.00000  Uiso   1.00
N136   N     0.53016   0.83599   0.47820   0.00000  Uiso   1.00
N137   N     0.92544   0.95427   0.59572   0.00000  Uiso   1.00
N138   N     0.59106   0.93965   0.82989   0.00000  Uiso   1.00
C139   C     0.29277   0.20234   0.65488   0.00000  Uiso   1.00
C140   C     0.34085   0.19500   0.60677   0.00000  Uiso   1.00
C141   C     0.36845   0.24632   0.57671   0.00000  Uiso   1.00
C142   C     0.41133   0.22936   0.53425   0.00000  Uiso   1.00
C143   C     0.48374   0.22799   0.46135   0.00000  Uiso   1.00
C144   C     0.23191   0.16240   0.63915   0.00000  Uiso   1.00
C145   C     0.16792   0.18631   0.63632   0.00000  Uiso   1.00
C146   C     0.11909   0.14191   0.62113   0.00000  Uiso   1.00
C147   C     0.02236   0.08992   0.59854   0.00000  Uiso   1.00
C148   C     0.32408   0.16643   0.70369   0.00000  Uiso   1.00
C149   C     0.33756   0.19373   0.75512   0.00000  Uiso   1.00
C150   C     0.36631   0.15272   0.79427   0.00000  Uiso   1.00
C151   C     0.41268   0.10699   0.87187   0.00000  Uiso   1.00
C152   C     0.31984   0.08095   0.63296   0.00000  Uiso   1.00
C153   C     0.35556   0.12906   0.59487   0.00000  Uiso   1.00
C154   C     0.39841   0.11202   0.55245   0.00000  Uiso   1.00
C155   C     0.42607   0.16331   0.52233   0.00000  Uiso   1.00
C156   C     0.24662   0.09647   0.62725   0.00000  Uiso   1.00
C157   C     0.19787   0.05202   0.61207   0.00000  Uiso   1.00
C158   C     0.13382   0.07586   0.60921   0.00000  Uiso   1.00
C159   C     0.33879   0.10050   0.69178   0.00000  Uiso   1.00
C160   C     0.36752   0.05944   0.73086   0.00000  Uiso   1.00
C161   C     0.38105   0.08667   0.78234   0.00000  Uiso   1.00
H162   H     0.28131   0.25366   0.66415   0.00000  Uiso   1.00
H163   H     0.35706   0.29733   0.58593   0.00000  Uiso   1.00
H164   H     0.15655   0.23733   0.64554   0.00000  Uiso   1.00
H165   H     0.32617   0.24475   0.76431   0.00000  Uiso   1.00
H166   H     0.44750   0.31667   0.49394   0.00000  Uiso   1.00
H167   H     0.02472   0.19016   0.61965   0.00000  Uiso   1.00
H168   H     0.38239   0.20580   0.87012   0.00000  Uiso   1.00
H169   H     0.33129   0.02962   0.62369   0.00000  Uiso   1.00
H170   H     0.40978   0.06100   0.54325   0.00000  Uiso   1.00
H171   H     0.20927   0.00100   0.60286   0.00000  Uiso   1.00
H172   H     0.37889   0.00842   0.72164   0.00000  Uiso   1.00
H173   H     0.49029   0.12486   0.45930   0.00000  Uiso   1.00
H174   H     0.06751   0.99834   0.58502   0.00000  Uiso   1.00
H175   H     0.42518   0.01398   0.83548   0.00000  Uiso   1.00
O176   O     0.51961   0.24545   0.42442   0.00000  Uiso   1.00
O177   O     0.96494   0.07946   0.58936   0.00000  Uiso   1.00
O178   O     0.43420   0.09998   0.91796   0.00000  Uiso   1.00
N179   N     0.44681   0.26722   0.49684   0.00000  Uiso   1.00
N180   N     0.05154   0.14894   0.61436   0.00000  Uiso   1.00
N181   N     0.38591   0.16356   0.84853   0.00000  Uiso   1.00
N182   N     0.46984   0.16401   0.47820   0.00000  Uiso   1.00
N183   N     0.07456   0.04573   0.59572   0.00000  Uiso   1.00
N184   N     0.40894   0.06035   0.82989   0.00000  Uiso   1.00
C185   C     0.20234   0.29277   0.84512   0.00000  Uiso   1.00
C186   C     0.19500   0.34085   0.89323   0.00000  Uiso   1.00
C187   C     0.24632   0.36845   0.92329   0.00000  Uiso   1.00
C188   C     0.22936   0.41133   0.96575   0.00000  Uiso   1.00
C189   C     0.22799   0.48374   0.03865   0.00000  Uiso   1.00
C190   C     0.16240   0.23191   0.86085   0.00000  Uiso   1.00
C191   C     0.18631   0.16792   0.86368   0.00000  Uiso   1.00
C192   C     0.14191   0.11909   0.87887   0.00000  Uiso   1.00
C193   C     0.08992   0.02236   0.90146   0.00000  Uiso   1.00
C194   C     0.16643   0.32408   0.79631   0.00000  Uiso   1.00
C195   C     0.19373   0.33756   0.74488   0.00000  Uiso   1.00
C196   C     0.15272   0.36631   0.70573   0.00000  Uiso   1.00
C197   C     0.10699   0.41268   0.62813   0.00000  Uiso   1.00
C198   C     0.08095   0.31984   0.86704   0.00000  Uiso   1.00
C199   C     0.12906   0.35556   0.90513   0.00000  Uiso   1.00
C200   C     0.11202   0.39841   0.94755   0.00000  Uiso   1.00
C201   C     0.16331   0.42607   0.97767   0.00000  Uiso   1.00
C202   C     0.09647   0.24662   0.87275   0.00000  Uiso   1.00
C203   C     0.05202   0.19787   0.88793   0.00000  Uiso   1.00
C204   C     0.07586   0.13382   0.89079   0.00000  Uiso   1.00
C205   C     0.10050   0.33879   0.80822   0.00000  Uiso   1.00
C206   C     0.05944   0.36752   0.76914   0.00000  Uiso   1.00
C207   C     0.08667   0.38105   0.71766   0.00000  Uiso   1.00
H208   H     0.25366   0.28131   0.83585   0.00000  Uiso   1.00
H209   H     0.29733   0.35706   0.91407   0.00000  Uiso   1.00
H210   H     0.23733   0.15655   0.85446   0.00000  Uiso   1.00
H211   H     0.24475   0.32617   0.73569   0.00000  Uiso   1.00
H212   H     0.31667   0.44750   0.00606   0.00000  Uiso   1.00
H213   H     0.19016   0.02472   0.88035   0.00000  Uiso   1.00
H214   H     0.20580   0.38239   0.62988   0.00000  Uiso   1.00
H215   H     0.02962   0.33129   0.87631   0.00000  Uiso   1.00
H216   H     0.06100   0.40978   0.95675   0.00000  Uiso   1.00
H217   H     0.00100   0.20927   0.89714   0.00000  Uiso   1.00
H218   H     0.00842   0.37889   0.77836   0.00000  Uiso   1.00
H219   H     0.12486   0.49029   0.04070   0.00000  Uiso   1.00
H220   H     0.99834   0.06751   0.91498   0.00000  Uiso   1.00
H221   H     0.01398   0.42518   0.66452   0.00000  Uiso   1.00
O222   O     0.24545   0.51961   0.07558   0.00000  Uiso   1.00
O223   O     0.07946   0.96494   0.91064   0.00000  Uiso   1.00
O224   O     0.09998   0.43420   0.58204   0.00000  Uiso   1.00
N225   N     0.26722   0.44681   0.00316   0.00000  Uiso   1.00
N226   N     0.14894   0.05154   0.88564   0.00000  Uiso   1.00
N227   N     0.16356   0.38591   0.65147   0.00000  Uiso   1.00
N228   N     0.16401   0.46984   0.02180   0.00000  Uiso   1.00
N229   N     0.04573   0.07456   0.90428   0.00000  Uiso   1.00
N230   N     0.06035   0.40894   0.67011   0.00000  Uiso   1.00
C231   C     0.79766   0.70723   0.84512   0.00000  Uiso   1.00
C232   C     0.80500   0.65915   0.89323   0.00000  Uiso   1.00
C233   C     0.75368   0.63155   0.92329   0.00000  Uiso   1.00
C234   C     0.77064   0.58867   0.96575   0.00000  Uiso   1.00
C235   C     0.77201   0.51626   0.03865   0.00000  Uiso   1.00
C236   C     0.83760   0.76809   0.86085   0.00000  Uiso   1.00
C237   C     0.81369   0.83208   0.86368   0.00000  Uiso   1.00
C238   C     0.85809   0.88091   0.87887   0.00000  Uiso   1.00
C239   C     0.91008   0.97764   0.90146   0.00000  Uiso   1.00
C240   C     0.83357   0.67592   0.79631   0.00000  Uiso   1.00
C241   C     0.80627   0.66244   0.74488   0.00000  Uiso   1.00
C242   C     0.84728   0.63369   0.70573   0.00000  Uiso   1.00
C243   C     0.89301   0.58732   0.62813   0.00000  Uiso   1.00
C244   C     0.91905   0.68016   0.86704   0.00000  Uiso   1.00
C245   C     0.87094   0.64444   0.90513   0.00000  Uiso   1.00
C246   C     0.88798   0.60159   0.94755   0.00000  Uiso   1.00
C247   C     0.83669   0.57393   0.97767   0.00000  Uiso   1.00
C248   C     0.90353   0.75338   0.87275   0.00000  Uiso   1.00
C249   C     0.94798   0.80213   0.88793   0.00000  Uiso   1.00
C250   C     0.92414   0.86618   0.89079   0.00000  Uiso   1.00
C251   C     0.89950   0.66121   0.80822   0.00000  Uiso   1.00
C252   C     0.94056   0.63248   0.76914   0.00000  Uiso   1.00
C253   C     0.91333   0.61895   0.71766   0.00000  Uiso   1.00
H254   H     0.74634   0.71869   0.83585   0.00000  Uiso   1.00
H255   H     0.70267   0.64294   0.91407   0.00000  Uiso   1.00
H256   H     0.76267   0.84345   0.85446   0.00000  Uiso   1.00
H257   H     0.75525   0.67383   0.73569   0.00000  Uiso   1.00
H258   H     0.68333   0.55250   0.00606   0.00000  Uiso   1.00
H259   H     0.80984   0.97528   0.88035   0.00000  Uiso   1.00
H260   H     0.79420   0.61761   0.62988   0.00000  Uiso   1.00
H261   H     0.97038   0.66871   0.87631   0.00000  Uiso   1.00
H262   H     0.93900   0.59022   0.95675   0.00000  Uiso   1.00
H263   H     0.99900   0.79073   0.89714   0.00000  Uiso   1.00
H264   H     0.99158   0.62111   0.77836   0.00000  Uiso   1.00
H265   H     0.87514   0.50971   0.04070   0.00000  Uiso   1.00
H266   H     0.00166   0.93249   0.91498   0.00000  Uiso   1.00
H267   H     0.98602   0.57482   0.66452   0.00000  Uiso   1.00
O268   O     0.75455   0.48039   0.07558   0.00000  Uiso   1.00
O269   O     0.92054   0.03506   0.91064   0.00000  Uiso   1.00
O270   O     0.90002   0.56580   0.58204   0.00000  Uiso   1.00
N271   N     0.73278   0.55319   0.00316   0.00000  Uiso   1.00
N272   N     0.85106   0.94846   0.88564   0.00000  Uiso   1.00
N273   N     0.83644   0.61409   0.65147   0.00000  Uiso   1.00
N274   N     0.83599   0.53016   0.02180   0.00000  Uiso   1.00
N275   N     0.95427   0.92544   0.90428   0.00000  Uiso   1.00
N276   N     0.93965   0.59106   0.67011   0.00000  Uiso   1.00
C277   C     0.79277   0.29766   0.84512   0.00000  Uiso   1.00
C278   C     0.84085   0.30500   0.89323   0.00000  Uiso   1.00
C279   C     0.86845   0.25368   0.92329   0.00000  Uiso   1.00
C280   C     0.91133   0.27064   0.96575   0.00000  Uiso   1.00
C281   C     0.98374   0.27201   0.03865   0.00000  Uiso   1.00
C282   C     0.73191   0.33760   0.86085   0.00000  Uiso   1.00
C283   C     0.66792   0.31369   0.86368   0.00000  Uiso   1.00
C284   C     0.61909   0.35809   0.87887   0.00000  Uiso   1.00
C285   C     0.52236   0.41008   0.90146   0.00000  Uiso   1.00
C286   C     0.82408   0.33357   0.79631   0.00000  Uiso   1.00
C287   C     0.83756   0.30627   0.74488   0.00000  Uiso   1.00
C288   C     0.86631   0.34728   0.70573   0.00000  Uiso   1.00
C289   C     0.91268   0.39301   0.62813   0.00000  Uiso   1.00
C290   C     0.81984   0.41905   0.86704   0.00000  Uiso   1.00
C291   C     0.85556   0.37094   0.90513   0.00000  Uiso   1.00
C292   C     0.89841   0.38798   0.94755   0.00000  Uiso   1.00
C293   C     0.92607   0.33669   0.97767   0.00000  Uiso   1.00
C294   C     0.74662   0.40353   0.87275   0.00000  Uiso   1.00
C295   C     0.69787   0.44798   0.88793   0.00000  Uiso   1.00
C296   C     0.63382   0.42414   0.89079   0.00000  Uiso   1.00
C297   C     0.83879   0.39950   0.80822   0.00000  Uiso   1.00
C298   C     0.86752   0.44056   0.76914   0.00000  Uiso   1.00
C299   C     0.88105   0.41333   0.71766   0.00000  Uiso   1.00
H300   H     0.78131   0.24634   0.83585   0.00000  Uiso   1.00
H301   H     0.85706   0.20267   0.91407   0.00000  Uiso   1.00
H302   H     0.65655   0.26267   0.85446   0.00000  Uiso   1.00
H303   H     0.82617   0.25525   0.73569   0.00000  Uiso   1.00
H304   H     0.94750   0.18333   0.00606   0.00000  Uiso   1.00
H305   H     0.52472   0.30984   0.88035   0.00000  Uiso   1.00
H306   H     0.88239   0.29420   0.62988   0.00000  Uiso   1.00
H307   H     0.83129   0.47038   0.87631   0.00000  Uiso   1.00
H308   H     0.90978   0.43900   0.95675   0.00000  Uiso   1.00
H309   H     0.70927   0.49900   0.89714   0.00000  Uiso   1.00
H310   H     0.87889   0.49158   0.77836   0.00000  Uiso   1.00
H311   H     0.99029   0.37514   0.04070   0.00000  Uiso   1.00
H312   H     0.56751   0.50166   0.91498   0.00000  Uiso   1.00
H313   H     0.92518   0.48602   0.66452   0.00000  Uiso   1.00
O314   O     0.01961   0.25455   0.07558   0.00000  Uiso   1.00
O315   O     0.46494   0.42054   0.91064   0.00000  Uiso   1.00
O316   O     0.93420   0.40002   0.58204   0.00000  Uiso   1.00
N317   N     0.94681   0.23278   0.00316   0.00000  Uiso   1.00
N318   N     0.55154   0.35106   0.88564   0.00000  Uiso   1.00
N319   N     0.88591   0.33644   0.65147   0.00000  Uiso   1.00
N320   N     0.96984   0.33599   0.02180   0.00000  Uiso   1.00
N321   N     0.57456   0.45427   0.90428   0.00000  Uiso   1.00
N322   N     0.90894   0.43965   0.67011   0.00000  Uiso   1.00
C323   C     0.20723   0.70234   0.84512   0.00000  Uiso   1.00
C324   C     0.15915   0.69500   0.89323   0.00000  Uiso   1.00
C325   C     0.13155   0.74632   0.92329   0.00000  Uiso   1.00
C326   C     0.08867   0.72936   0.96575   0.00000  Uiso   1.00
C327   C     0.01626   0.72799   0.03865   0.00000  Uiso   1.00
C328   C     0.26809   0.66240   0.86085   0.00000  Uiso   1.00
C329   C     0.33208   0.68631   0.86368   0.00000  Uiso   1.00
C330   C     0.38091   0.64191   0.87887   0.00000  Uiso   1.00
C331   C     0.47764   0.58992   0.90146   0.00000  Uiso   1.00
C332   C     0.17592   0.66643   0.79631   0.00000  Uiso   1.00
C333   C     0.16244   0.69373   0.74488   0.00000  Uiso   1.00
C334   C     0.13369   0.65272   0.70573   0.00000  Uiso   1.00
C335   C     0.08732   0.60699   0.62813   0.00000  Uiso   1.00
C336   C     0.18016   0.58095   0.86704   0.00000  Uiso   1.00
C337   C     0.14444   0.62906   0.90513   0.00000  Uiso   1.00
C338   C     0.10159   0.61202   0.94755   0.00000  Uiso   1.00
C339   C     0.07393   0.66331   0.97767   0.00000  Uiso   1.00
C340   C     0.25338   0.59647   0.87275   0.00000  Uiso   1.00
C341   C     0.30213   0.55202   0.88793   0.00000  Uiso   1.00
C342   C     0.36618   0.57586   0.89079   0.00000  Uiso   1.00
C343   C     0.16121   0.60050   0.80822   0.00000  Uiso   1.00
C344   C     0.13248   0.55944   0.76914   0.00000  Uiso   1.00
C345   C     0.11895   0.58667   0.71766   0.00000  Uiso   1.00
H346   H     0.21869   0.75366   0.83585   0.00000  Uiso   1.00
H347   H     0.14294   0.79733   0.91407   0.00000  Uiso   1.00
H348   H     0.34345   0.73733   0.85446   0.00000  Uiso   1.00
H349   H     0.17383   0.74475   0.73569   0.00000  Uiso   1.00
H350   H     0.05250   0.81667   0.00606   0.00000  Uiso   1.00
H351   H     0.47528   0.69016   0.88035   0.00000  Uiso   1.00
H352   H     0.11761   0.70580   0.62988   0.00000  Uiso   1.00
H353   H     0.16871   0.52962   0.87631   0.00000  Uiso   1.00
H354   H     0.09022   0.56100   0.95675   0.00000  Uiso   1.00
H355   H     0.29073   0.50100   0.89714   0.00000  Uiso   1.00
H356   H     0.12111   0.50842   0.77836   0.00000  Uiso   1.00
H357   H     0.00971   0.62486   0.04070   0.00000  Uiso   1.00
H358   H     0.43249   0.49834   0.91498   0.00000  Uiso   1.00
H359   H     0.07482   0.51398   0.66452   0.00000  Uiso   1.00
O360   O     0.98039   0.74545   0.07558   0.00000  Uiso   1.00
O361   O     0.53506   0.57946   0.91064   0.00000  Uiso   1.00
O362   O     0.06580   0.59998   0.58204   0.00000  Uiso   1.00
N363   N     0.05319   0.76722   0.00316   0.00000  Uiso   1.00
N364   N     0.44846   0.64894   0.88564   0.00000  Uiso   1.00
N365   N     0.11409   0.66356   0.65147   0.00000  Uiso   1.00
N366   N     0.03016   0.66401   0.02180   0.00000  Uiso   1.00
N367   N     0.42544   0.54573   0.90428   0.00000  Uiso   1.00
N368   N     0.09106   0.56035   0.67011   0.00000  Uiso   1.00
C369   C     0.20234   0.70723   0.34512   0.00000  Uiso   1.00
C370   C     0.19500   0.65915   0.39323   0.00000  Uiso   1.00
C371   C     0.24632   0.63155   0.42329   0.00000  Uiso   1.00
C372   C     0.22936   0.58867   0.46575   0.00000  Uiso   1.00
C373   C     0.22799   0.51626   0.53865   0.00000  Uiso   1.00
C374   C     0.16240   0.76809   0.36085   0.00000  Uiso   1.00
C375   C     0.18631   0.83208   0.36368   0.00000  Uiso   1.00
C376   C     0.14191   0.88091   0.37887   0.00000  Uiso   1.00
C377   C     0.08992   0.97764   0.40146   0.00000  Uiso   1.00
C378   C     0.16643   0.67592   0.29631   0.00000  Uiso   1.00
C379   C     0.19373   0.66244   0.24488   0.00000  Uiso   1.00
C380   C     0.15272   0.63369   0.20573   0.00000  Uiso   1.00
C381   C     0.10699   0.58732   0.12813   0.00000  Uiso   1.00
C382   C     0.08095   0.68016   0.36704   0.00000  Uiso   1.00
C383   C     0.12906   0.64444   0.40513   0.00000  Uiso   1.00
C384   C     0.11202   0.60159   0.44755   0.00000  Uiso   1.00
C385   C     0.16331   0.57393   0.47767   0.00000  Uiso   1.00
C386   C     0.09647   0.75338   0.37275   0.00000  Uiso   1.00
C387   C     0.05202   0.80213   0.38793   0.00000  Uiso   1.00
C388   C     0.07586   0.86618   0.39079   0.00000  Uiso   1.00
C389   C     0.10050   0.66121   0.30822   0.00000  Uiso   1.00
C390   C     0.05944   0.63248   0.26914   0.00000  Uiso   1.00
C391   C     0.08667   0.61895   0.21766   0.00000  Uiso   1.00
H392   H     0.25366   0.71869   0.33585   0.00000  Uiso   1.00
H393   H     0.29733   0.64294   0.41407   0.00000  Uiso   1.00
H394   H     0.23733   0.84345   0.35446   0.00000  Uiso   1.00
H395   H     0.24475   0.67383   0.23569   0.00000  Uiso   1.00
H396   H     0.31667   0.55250   0.50606   0.00000  Uiso   1.00
H397   H     0.19016   0.97528   0.38035   0.00000  Uiso   1.00
H398   H     0.20580   0.61761   0.12988   0.00000  Uiso   1.00
H399   H     0.02962   0.66871   0.37631   0.00000  Uiso   1.00
H400   H     0.06100   0.59022   0.45675   0.00000  Uiso   1.00
H401   H     0.00100   0.79073   0.39714   0.00000  Uiso   1.00
H402   H     0.00842   0.62111   0.27836   0.00000  Uiso   1.00
H403   H     0.12486   0.50971   0.54070   0.00000  Uiso   1.00
H404   H     0.99834   0.93249   0.41498   0.00000  Uiso   1.00
H405   H     0.01398   0.57482   0.16452   0.00000  Uiso   1.00
O406   O     0.24545   0.48039   0.57558   0.00000  Uiso   1.00
O407   O     0.07946   0.03506   0.41064   0.00000  Uiso   1.00
O408   O     0.09998   0.56580   0.08204   0.00000  Uiso   1.00
N409   N     0.26722   0.55319   0.50316   0.00000  Uiso   1.00
N410   N     0.14894   0.94846   0.38564   0.00000  Uiso   1.00
N411   N     0.16356   0.61409   0.15147   0.00000  Uiso   1.00
N412   N     0.16401   0.53016   0.52180   0.00000  Uiso   1.00
N413   N     0.04573   0.92544   0.40428   0.00000  Uiso   1.00
N414   N     0.06035   0.59106   0.17011   0.00000  Uiso   1.00
C415   C     0.79766   0.29277   0.34512   0.00000  Uiso   1.00
C416   C     0.80500   0.34085   0.39323   0.00000  Uiso   1.00
C417   C     0.75368   0.36845   0.42329   0.00000  Uiso   1.00
C418   C     0.77064   0.41133   0.46575   0.00000  Uiso   1.00
C419   C     0.77201   0.48374   0.53865   0.00000  Uiso   1.00
C420   C     0.83760   0.23191   0.36085   0.00000  Uiso   1.00
C421   C     0.81369   0.16792   0.36368   0.00000  Uiso   1.00
C422   C     0.85809   0.11909   0.37887   0.00000  Uiso   1.00
C423   C     0.91008   0.02236   0.40146   0.00000  Uiso   1.00
C424   C     0.83357   0.32408   0.29631   0.00000  Uiso   1.00
C425   C     0.80627   0.33756   0.24488   0.00000  Uiso   1.00
C426   C     0.84728   0.36631   0.20573   0.00000  Uiso   1.00
C427   C     0.89301   0.41268   0.12813   0.00000  Uiso   1.00
C428   C     0.91905   0.31984   0.36704   0.00000  Uiso   1.00
C429   C     0.87094   0.35556   0.40513   0.00000  Uiso   1.00
C430   C     0.88798   0.39841   0.44755   0.00000  Uiso   1.00
C431   C     0.83669   0.42607   0.47767   0.00000  Uiso   1.00
C432   C     0.90353   0.24662   0.37275   0.00000  Uiso   1.00
C433   C     0.94798   0.19787   0.38793   0.00000  Uiso   1.00
C434   C     0.92414   0.13382   0.39079   0.00000  Uiso   1.00
C435   C     0.89950   0.33879   0.30822   0.00000  Uiso   1.00
C436   C     0.94056   0.36752   0.26914   0.00000  Uiso   1.00
C437   C     0.91333   0.38105   0.21766   0.00000  Uiso   1.00
H438   H     0.74634   0.28131   0.33585   0.00000  Uiso   1.00
H439   H     0.70267   0.35706   0.41407   0.00000  Uiso   1.00
H440   H     0.76267   0.15655   0.35446   0.00000  Uiso   1.00
H441   H     0.75525   0.32617   0.23569   0.00000  Uiso   1.00
H442   H     0.68333   0.44750   0.50606   0.00000  Uiso   1.00
H443   H     0.80984   0.02472   0.38035   0.00000  Uiso   1.00
H444   H     0.79420   0.38239   0.12988   0.00000  Uiso   1.00
H445   H     0.97038   0.33129   0.37631   0.00000  Uiso   1.00
H446   H     0.93900   0.40978   0.45675   0.00000  Uiso   1.00
H447   H     0.99900   0.20927   0.39714   0.00000  Uiso   1.00
H448   H     0.99158   0.37889   0.27836   0.00000  Uiso   1.00
H449   H     0.87514   0.49029   0.54070   0.00000  Uiso   1.00
H450   H     0.00166   0.06751   0.41498   0.00000  Uiso   1.00
H451   H     0.98602   0.42518   0.16452   0.00000  Uiso   1.00
O452   O     0.75455   0.51961   0.57558   0.00000  Uiso   1.00
O453   O     0.92054   0.96494   0.41064   0.00000  Uiso   1.00
O454   O     0.90002   0.43420   0.08204   0.00000  Uiso   1.00
N455   N     0.73278   0.44681   0.50316   0.00000  Uiso   1.00
N456   N     0.85106   0.05154   0.38564   0.00000  Uiso   1.00
N457   N     0.83644   0.38591   0.15147   0.00000  Uiso   1.00
N458   N     0.83599   0.46984   0.52180   0.00000  Uiso   1.00
N459   N     0.95427   0.07456   0.40428   0.00000  Uiso   1.00
N460   N     0.93965   0.40894   0.17011   0.00000  Uiso   1.00
C461   C     0.79277   0.70234   0.34512   0.00000  Uiso   1.00
C462   C     0.84085   0.69500   0.39323   0.00000  Uiso   1.00
C463   C     0.86845   0.74632   0.42329   0.00000  Uiso   1.00
C464   C     0.91133   0.72936   0.46575   0.00000  Uiso   1.00
C465   C     0.98374   0.72799   0.53865   0.00000  Uiso   1.00
C466   C     0.73191   0.66240   0.36085   0.00000  Uiso   1.00
C467   C     0.66792   0.68631   0.36368   0.00000  Uiso   1.00
C468   C     0.61909   0.64191   0.37887   0.00000  Uiso   1.00
C469   C     0.52236   0.58992   0.40146   0.00000  Uiso   1.00
C470   C     0.82408   0.66643   0.29631   0.00000  Uiso   1.00
C471   C     0.83756   0.69373   0.24488   0.00000  Uiso   1.00
C472   C     0.86631   0.65272   0.20573   0.00000  Uiso   1.00
C473   C     0.91268   0.60699   0.12813   0.00000  Uiso   1.00
C474   C     0.81984   0.58095   0.36704   0.00000  Uiso   1.00
C475   C     0.85556   0.62906   0.40513   0.00000  Uiso   1.00
C476   C     0.89841   0.61202   0.44755   0.00000  Uiso   1.00
C477   C     0.92607   0.66331   0.47767   0.00000  Uiso   1.00
C478   C     0.74662   0.59647   0.37275   0.00000  Uiso   1.00
C479   C     0.69787   0.55202   0.38793   0.00000  Uiso   1.00
C480   C     0.63382   0.57586   0.39079   0.00000  Uiso   1.00
C481   C     0.83879   0.60050   0.30822   0.00000  Uiso   1.00
C482   C     0.86752   0.55944   0.26914   0.00000  Uiso   1.00
C483   C     0.88105   0.58667   0.21766   0.00000  Uiso   1.00
H484   H     0.78131   0.75366   0.33585   0.00000  Uiso   1.00
H485   H     0.85706   0.79733   0.41407   0.00000  Uiso   1.00
H486   H     0.65655   0.73733   0.35446   0.00000  Uiso   1.00
H487   H     0.82617   0.74475   0.23569   0.00000  Uiso   1.00
H488   H     0.94750   0.81667   0.50606   0.00000  Uiso   1.00
H489   H     0.52472   0.69016   0.38035   0.00000  Uiso   1.00
H490   H     0.88239   0.70580   0.12988   0.00000  Uiso   1.00
H491   H     0.83129   0.52962   0.37631   0.00000  Uiso   1.00
H492   H     0.90978   0.56100   0.45675   0.00000  Uiso   1.00
H493   H     0.70927   0.50100   0.39714   0.00000  Uiso   1.00
H494   H     0.87889   0.50842   0.27836   0.00000  Uiso   1.00
H495   H     0.99029   0.62486   0.54070   0.00000  Uiso   1.00
H496   H     0.56751   0.49834   0.41498   0.00000  Uiso   1.00
H497   H     0.92518   0.51398   0.16452   0.00000  Uiso   1.00
O498   O     0.01961   0.74545   0.57558   0.00000  Uiso   1.00
O499   O     0.46494   0.57946   0.41064   0.00000  Uiso   1.00
O500   O     0.93420   0.59998   0.08204   0.00000  Uiso   1.00
N501   N     0.94681   0.76722   0.50316   0.00000  Uiso   1.00
N502   N     0.55154   0.64894   0.38564   0.00000  Uiso   1.00
N503   N     0.88591   0.66356   0.15147   0.00000  Uiso   1.00
N504   N     0.96984   0.66401   0.52180   0.00000  Uiso   1.00
N505   N     0.57456   0.54573   0.40428   0.00000  Uiso   1.00
N506   N     0.90894   0.56035   0.17011   0.00000  Uiso   1.00
C507   C     0.20723   0.29766   0.34512   0.00000  Uiso   1.00
C508   C     0.15915   0.30500   0.39323   0.00000  Uiso   1.00
C509   C     0.13155   0.25368   0.42329   0.00000  Uiso   1.00
C510   C     0.08867   0.27064   0.46575   0.00000  Uiso   1.00
C511   C     0.01626   0.27201   0.53865   0.00000  Uiso   1.00
C512   C     0.26809   0.33760   0.36085   0.00000  Uiso   1.00
C513   C     0.33208   0.31369   0.36368   0.00000  Uiso   1.00
C514   C     0.38091   0.35809   0.37887   0.00000  Uiso   1.00
C515   C     0.47764   0.41008   0.40146   0.00000  Uiso   1.00
C516   C     0.17592   0.33357   0.29631   0.00000  Uiso   1.00
C517   C     0.16244   0.30627   0.24488   0.00000  Uiso   1.00
C518   C     0.13369   0.34728   0.20573   0.00000  Uiso   1.00
C519   C     0.08732   0.39301   0.12813   0.00000  Uiso   1.00
C520   C     0.18016   0.41905   0.36704   0.00000  Uiso   1.00
C521   C     0.14444   0.37094   0.40513   0.00000  Uiso   1.00
C522   C     0.10159   0.38798   0.44755   0.00000  Uiso   1.00
C523   C     0.07393   0.33669   0.47767   0.00000  Uiso   1.00
C524   C     0.25338   0.40353   0.37275   0.00000  Uiso   1.00
C525   C     0.30213   0.44798   0.38793   0.00000  Uiso   1.00
C526   C     0.36618   0.42414   0.39079   0.00000  Uiso   1.00
C527   C     0.16121   0.39950   0.30822   0.00000  Uiso   1.00
C528   C     0.13248   0.44056   0.26914   0.00000  Uiso   1.00
C529   C     0.11895   0.41333   0.21766   0.00000  Uiso   1.00
H530   H     0.21869   0.24634   0.33585   0.00000  Uiso   1.00
H531   H     0.14294   0.20267   0.41407   0.00000  Uiso   1.00
H532   H     0.34345   0.26267   0.35446   0.00000  Uiso   1.00
H533   H     0.17383   0.25525   0.23569   0.00000  Uiso   1.00
H534   H     0.05250   0.18333   0.50606   0.00000  Uiso   1.00
H535   H     0.47528   0.30984   0.38035   0.00000  Uiso   1.00
H536   H     0.11761   0.29420   0.12988   0.00000  Uiso   1.00
H537   H     0.16871   0.47038   0.37631   0.00000  Uiso   1.00
H538   H     0.09022   0.43900   0.45675   0.00000  Uiso   1.00
H539   H     0.29073   0.49900   0.39714   0.00000  Uiso   1.00
H540   H     0.12111   0.49158   0.27836   0.00000  Uiso   1.00
H541   H     0.00971   0.37514   0.54070   0.00000  Uiso   1.00
H542   H     0.43249   0.50166   0.41498   0.00000  Uiso   1.00
H543   H     0.07482   0.48602   0.16452   0.00000  Uiso   1.00
O544   O     0.98039   0.25455   0.57558   0.00000  Uiso   1.00
O545   O     0.53506   0.42054   0.41064   0.00000  Uiso   1.00
O546   O     0.06580   0.40002   0.08204   0.00000  Uiso   1.00
N547   N     0.05319   0.23278   0.50316   0.00000  Uiso   1.00
N548   N     0.44846   0.35106   0.38564   0.00000  Uiso   1.00
N549   N     0.11409   0.33644   0.15147   0.00000  Uiso   1.00
N550   N     0.03016   0.33599   0.52180   0.00000  Uiso   1.00
N551   N     0.42544   0.45427   0.40428   0.00000  Uiso   1.00
N552   N     0.09106   0.43965   0.17011   0.00000  Uiso   1.00
C553   C     0.29766   0.20723   0.15488   0.00000  Uiso   1.00
C554   C     0.30500   0.15915   0.10677   0.00000  Uiso   1.00
C555   C     0.25368   0.13155   0.07671   0.00000  Uiso   1.00
C556   C     0.27064   0.08867   0.03425   0.00000  Uiso   1.00
C557   C     0.27201   0.01626   0.96135   0.00000  Uiso   1.00
C558   C     0.33760   0.26809   0.13915   0.00000  Uiso   1.00
C559   C     0.31369   0.33208   0.13632   0.00000  Uiso   1.00
C560   C     0.35809   0.38091   0.12113   0.00000  Uiso   1.00
C561   C     0.41008   0.47764   0.09854   0.00000  Uiso   1.00
C562   C     0.33357   0.17592   0.20369   0.00000  Uiso   1.00
C563   C     0.30627   0.16244   0.25512   0.00000  Uiso   1.00
C564   C     0.34728   0.13369   0.29427   0.00000  Uiso   1.00
C565   C     0.39301   0.08732   0.37187   0.00000  Uiso   1.00
C566   C     0.41905   0.18016   0.13296   0.00000  Uiso   1.00
C567   C     0.37094   0.14444   0.09487   0.00000  Uiso   1.00
C568   C     0.38798   0.10159   0.05245   0.00000  Uiso   1.00
C569   C     0.33669   0.07393   0.02233   0.00000  Uiso   1.00
C570   C     0.40353   0.25338   0.12725   0.00000  Uiso   1.00
C571   C     0.44798   0.30213   0.11207   0.00000  Uiso   1.00
C572   C     0.42414   0.36618   0.10921   0.00000  Uiso   1.00
C573   C     0.39950   0.16121   0.19178   0.00000  Uiso   1.00
C574   C     0.44056   0.13248   0.23086   0.00000  Uiso   1.00
C575   C     0.41333   0.11895   0.28234   0.00000  Uiso   1.00
H576   H     0.24634   0.21869   0.16415   0.00000  Uiso   1.00
H577   H     0.20267   0.14294   0.08593   0.00000  Uiso   1.00
H578   H     0.26267   0.34345   0.14554   0.00000  Uiso   1.00
H579   H     0.25525   0.17383   0.26431   0.00000  Uiso   1.00
H580   H     0.18333   0.05250   0.99394   0.00000  Uiso   1.00
H581   H     0.30984   0.47528   0.11965   0.00000  Uiso   1.00
H582   H     0.29420   0.11761   0.37012   0.00000  Uiso   1.00
H583   H     0.47038   0.16871   0.12369   0.00000  Uiso   1.00
H584   H     0.43900   0.09022   0.04325   0.00000  Uiso   1.00
H585   H     0.49900   0.29073   0.10286   0.00000  Uiso   1.00
H586   H     0.49158   0.12111   0.22164   0.00000  Uiso   1.00
H587   H     0.37514   0.00971   0.95930   0.00000  Uiso   1.00
H588   H     0.50166   0.43249   0.08502   0.00000  Uiso   1.00
H589   H     0.48602   0.07482   0.33548   0.00000  Uiso   1.00
O590   O     0.25455   0.98039   0.92442   0.00000  Uiso   1.00
O591   O     0.42054   0.53506   0.08936   0.00000  Uiso   1.00
O592   O     0.40002   0.06580   0.41796   0.00000  Uiso   1.00
N593   N     0.23278   0.05319   0.99684   0.00000  Uiso   1.00
N594   N     0.35106   0.44846   0.11436   0.00000  Uiso   1.00
N595   N     0.33644   0.11409   0.34853   0.00000  Uiso   1.00
N596   N     0.33599   0.03016   0.97820   0.00000  Uiso   1.00
N597   N     0.45427   0.42544   0.09572   0.00000  Uiso   1.00
N598   N     0.43965   0.09106   0.32989   0.00000  Uiso   1.00
C599   C     0.70234   0.79277   0.15488   0.00000  Uiso   1.00
C600   C     0.69500   0.84085   0.10677   0.00000  Uiso   1.00
C601   C     0.74632   0.86845   0.07671   0.00000  Uiso   1.00
C602   C     0.72936   0.91133   0.03425   0.00000  Uiso   1.00
C603   C     0.72799   0.98374   0.96135   0.00000  Uiso   1.00
C604   C     0.66240   0.73191   0.13915   0.00000  Uiso   1.00
C605   C     0.68631   0.66792   0.13632   0.00000  Uiso   1.00
C606   C     0.64191   0.61909   0.12113   0.00000  Uiso   1.00
C607   C     0.58992   0.52236   0.09854   0.00000  Uiso   1.00
C608   C     0.66643   0.82408   0.20369   0.00000  Uiso   1.00
C609   C     0.69373   0.83756   0.25512   0.00000  Uiso   1.00
C610   C     0.65272   0.86631   0.29427   0.00000  Uiso   1.00
C611   C     0.60699   0.91268   0.37187   0.00000  Uiso   1.00
C612   C     0.58095   0.81984   0.13296   0.00000  Uiso   1.00
C613   C     0.62906   0.85556   0.09487   0.00000  Uiso   1.00
C614   C     0.61202   0.89841   0.05245   0.00000  Uiso   1.00
C615   C     0.66331   0.92607   0.02233   0.00000  Uiso   1.00
C616   C     0.59647   0.74662   0.12725   0.00000  Uiso   1.00
C617   C     0.55202   0.69787   0.11207   0.00000  Uiso   1.00
C618   C     0.57586   0.63382   0.10921   0.00000  Uiso   1.00
C619   C     0.60050   0.83879   0.19178   0.00000  Uiso   1.00
C620   C     0.55944   0.86752   0.23086   0.00000  Uiso   1.00
C621   C     0.58667   0.88105   0.28234   0.00000  Uiso   1.00
H622   H     0.75366   0.78131   0.16415   0.00000  Uiso   1.00
H623   H     0.79733   0.85706   0.08593   0.00000  Uiso   1.00
H624   H     0.73733   0.65655   0.14554   0.00000  Uiso   1.00
H625   H     0.74475   0.82617   0.26431   0.00000  Uiso   1.00
H626   H     0.81667   0.94750   0.99394   0.00000  Uiso   1.00
H627   H     0.69016   0.52472   0.11965   0.00000  Uiso   1.00
H628   H     0.70580   0.88239   0.37012   0.00000  Uiso   1.00
H629   H     0.52962   0.83129   0.12369   0.00000  Uiso   1.00
H630   H     0.56100   0.90978   0.04325   0.00000  Uiso   1.00
H631   H     0.50100   0.70927   0.10286   0.00000  Uiso   1.00
H632   H     0.50842   0.87889   0.22164   0.00000  Uiso   1.00
H633   H     0.62486   0.99029   0.95930   0.00000  Uiso   1.00
H634   H     0.49834   0.56751   0.08502   0.00000  Uiso   1.00
H635   H     0.51398   0.92518   0.33548   0.00000  Uiso   1.00
O636   O     0.74545   0.01961   0.92442   0.00000  Uiso   1.00
O637   O     0.57946   0.46494   0.08936   0.00000  Uiso   1.00
O638   O     0.59998   0.93420   0.41796   0.00000  Uiso   1.00
N639   N     0.76722   0.94681   0.99684   0.00000  Uiso   1.00
N640   N     0.64894   0.55154   0.11436   0.00000  Uiso   1.00
N641   N     0.66356   0.88591   0.34853   0.00000  Uiso   1.00
N642   N     0.66401   0.96984   0.97820   0.00000  Uiso   1.00
N643   N     0.54573   0.57456   0.09572   0.00000  Uiso   1.00
N644   N     0.56035   0.90894   0.32989   0.00000  Uiso   1.00
C645   C     0.70723   0.20234   0.15488   0.00000  Uiso   1.00
C646   C     0.65915   0.19500   0.10677   0.00000  Uiso   1.00
C647   C     0.63155   0.24632   0.07671   0.00000  Uiso   1.00
C648   C     0.58867   0.22936   0.03425   0.00000  Uiso   1.00
C649   C     0.51626   0.22799   0.96135   0.00000  Uiso   1.00
C650   C     0.76809   0.16240   0.13915   0.00000  Uiso   1.00
C651   C     0.83208   0.18631   0.13632   0.00000  Uiso   1.00
C652   C     0.88091   0.14191   0.12113   0.00000  Uiso   1.00
C653   C     0.97764   0.08992   0.09854   0.00000  Uiso   1.00
C654   C     0.67592   0.16643   0.20369   0.00000  Uiso   1.00
C655   C     0.66244   0.19373   0.25512   0.00000  Uiso   1.00
C656   C     0.63369   0.15272   0.29427   0.00000  Uiso   1.00
C657   C     0.58732   0.10699   0.37187   0.00000  Uiso   1.00
C658   C     0.68016   0.08095   0.13296   0.00000  Uiso   1.00
C659   C     0.64444   0.12906   0.09487   0.00000  Uiso   1.00
C660   C     0.60159   0.11202   0.05245   0.00000  Uiso   1.00
C661   C     0.57393   0.16331   0.02233   0.00000  Uiso   1.00
C662   C     0.75338   0.09647   0.12725   0.00000  Uiso   1.00
C663   C     0.80213   0.05202   0.11207   0.00000  Uiso   1.00
C664   C     0.86618   0.07586   0.10921   0.00000  Uiso   1.00
C665   C     0.66121   0.10050   0.19178   0.00000  Uiso   1.00
C666   C     0.63248   0.05944   0.23086   0.00000  Uiso   1.00
C667   C     0.61895   0.08667   0.28234   0.00000  Uiso   1.00
H668   H     0.71869   0.25366   0.16415   0.00000  Uiso   1.00
H669   H     0.64294   0.29733   0.08593   0.00000  Uiso   1.00
H670   H     0.84345   0.23733   0.14554   0.00000  Uiso   1.00
H671   H     0.67383   0.24475   0.26431   0.00000  Uiso   1.00
H672   H     0.55250   0.31667   0.99394   0.00000  Uiso   1.00
H673   H     0.97528   0.19016   0.11965   0.00000  Uiso   1.00
H674   H     0.61761   0.20580   0.37012   0.00000  Uiso   1.00
H675   H     0.66871   0.02962   0.12369   0.00000  Uiso   1.00
H676   H     0.59022   0.06100   0.04325   0.00000  Uiso   1.00
H677   H     0.79073   0.00100   0.10286   0.00000  Uiso   1.00
H678   H     0.62111   0.00842   0.22164   0.00000  Uiso   1.00
H679   H     0.50971   0.12486   0.95930   0.00000  Uiso   1.00
H680   H     0.93249   0.99834   0.08502   0.00000  Uiso   1.00
H681   H     0.57482   0.01398   0.33548   0.00000  Uiso   1.00
O682   O     0.48039   0.24545   0.92442   0.00000  Uiso   1.00
O683   O     0.03506   0.07946   0.08936   0.00000  Uiso   1.00
O684   O     0.56580   0.09998   0.41796   0.00000  Uiso   1.00
N685   N     0.55319   0.26722   0.99684   0.00000  Uiso   1.00
N686   N     0.94846   0.14894   0.11436   0.00000  Uiso   1.00
N687   N     0.61409   0.16356   0.34853   0.00000  Uiso   1.00
N688   N     0.53016   0.16401   0.97820   0.00000  Uiso   1.00
N689   N     0.92544   0.04573   0.09572   0.00000  Uiso   1.00
N690   N     0.59106   0.06035   0.32989   0.00000  Uiso   1.00
C691   C     0.29277   0.79766   0.15488   0.00000  Uiso   1.00
C692   C     0.34085   0.80500   0.10677   0.00000  Uiso   1.00
C693   C     0.36845   0.75368   0.07671   0.00000  Uiso   1.00
C694   C     0.41133   0.77064   0.03425   0.00000  Uiso   1.00
C695   C     0.48374   0.77201   0.96135   0.00000  Uiso   1.00
C696   C     0.23191   0.83760   0.13915   0.00000  Uiso   1.00
C697   C     0.16792   0.81369   0.13632   0.00000  Uiso   1.00
C698   C     0.11909   0.85809   0.12113   0.00000  Uiso   1.00
C699   C     0.02236   0.91008   0.09854   0.00000  Uiso   1.00
C700   C     0.32408   0.83357   0.20369   0.00000  Uiso   1.00
C701   C     0.33756   0.80627   0.25512   0.00000  Uiso   1.00
C702   C     0.36631   0.84728   0.29427   0.00000  Uiso   1.00
C703   C     0.41268   0.89301   0.37187   0.00000  Uiso   1.00
C704   C     0.31984   0.91905   0.13296   0.00000  Uiso   1.00
C705   C     0.35556   0.87094   0.09487   0.00000  Uiso   1.00
C706   C     0.39841   0.88798   0.05245   0.00000  Uiso   1.00
C707   C     0.42607   0.83669   0.02233   0.00000  Uiso   1.00
C708   C     0.24662   0.90353   0.12725   0.00000  Uiso   1.00
C709   C     0.19787   0.94798   0.11207   0.00000  Uiso   1.00
C710   C     0.13382   0.92414   0.10921   0.00000  Uiso   1.00
C711   C     0.33879   0.89950   0.19178   0.00000  Uiso   1.00
C712   C     0.36752   0.94056   0.23086   0.00000  Uiso   1.00
C713   C     0.38105   0.91333   0.28234   0.00000  Uiso   1.00
H714   H     0.28131   0.74634   0.16415   0.00000  Uiso   1.00
H715   H     0.35706   0.70267   0.08593   0.00000  Uiso   1.00
H716   H     0.15655   0.76267   0.14554   0.00000  Uiso   1.00
H717   H     0.32617   0.75525   0.26431   0.00000  Uiso   1.00
H718   H     0.44750   0.68333   0.99394   0.00000  Uiso   1.00
H719   H     0.02472   0.80984   0.11965   0.00000  Uiso   1.00
H720   H     0.38239   0.79420   0.37012   0.00000  Uiso   1.00
H721   H     0.33129   0.97038   0.12369   0.00000  Uiso   1.00
H722   H     0.40978   0.93900   0.04325   0.00000  Uiso   1.00
H723   H     0.20927   0.99900   0.10286   0.00000  Uiso   1.00
H724   H     0.37889   0.99158   0.22164   0.00000  Uiso   1.00
H725   H     0.49029   0.87514   0.95930   0.00000  Uiso   1.00
H726   H     0.06751   0.00166   0.08502   0.00000  Uiso   1.00
H727   H     0.42518   0.98602   0.33548   0.00000  Uiso   1.00
O728   O     0.51961   0.75455   0.92442   0.00000  Uiso   1.00
O729   O     0.96494   0.92054   0.08936   0.00000  Uiso   1.00
O730   O     0.43420   0.90002   0.41796   0.00000  Uiso   1.00
N731   N     0.44681   0.73278   0.99684   0.00000  Uiso   1.00
N732   N     0.05154   0.85106   0.11436   0.00000  Uiso   1.00
N733   N     0.38591   0.83644   0.34853   0.00000  Uiso   1.00
N734   N     0.46984   0.83599   0.97820   0.00000  Uiso   1.00
N735   N     0.07456   0.95427   0.09572   0.00000  Uiso   1.00
N736   N     0.40894   0.93965   0.32989   0.00000  Uiso   1.00
