data_job_05087
_audit_creation_date              2018-12-19
_audit_creation_method            'Materials Studio'
_symmetry_space_group_name_H-M    'P1'
_symmetry_Int_Tables_number       1
_symmetry_cell_setting            triclinic
loop_
_symmetry_equiv_pos_as_xyz
  x,y,z
_cell_length_a                    20.3380
_cell_length_b                    25.9885
_cell_length_c                    21.0268
_cell_angle_alpha                 90.0000
_cell_angle_beta                  90.0000
_cell_angle_gamma                 90.0000
loop_
_atom_site_label
_atom_site_type_symbol
_atom_site_fract_x
_atom_site_fract_y
_atom_site_fract_z
_atom_site_U_iso_or_equiv
_atom_site_adp_type
_atom_site_occupancy
C1     C     0.18667   0.83923   0.17330   0.00000  Uiso   1.00
C2     C     0.17379   0.88921   0.13740   0.00000  Uiso   1.00
C3     C     0.11643   0.90158   0.10509   0.00000  Uiso   1.00
C4     C     0.11432   0.94921   0.07526   0.00000  Uiso   1.00
C5     C     0.08621   0.02164   0.01913   0.00000  Uiso   1.00
C6     C     0.24908   0.81652   0.14451   0.00000  Uiso   1.00
C7     C     0.25502   0.76777   0.11819   0.00000  Uiso   1.00
C8     C     0.31628   0.75421   0.09435   0.00000  Uiso   1.00
C9     C     0.40507   0.71377   0.04930   0.00000  Uiso   1.00
C10    C     0.20448   0.85485   0.24104   0.00000  Uiso   1.00
C11    C     0.17293   0.83832   0.29589   0.00000  Uiso   1.00
C12    C     0.19665   0.85703   0.35333   0.00000  Uiso   1.00
C13    C     0.21619   0.87610   0.45816   0.00000  Uiso   1.00
C14    C     0.28492   0.90183   0.17779   0.00000  Uiso   1.00
C15    C     0.22716   0.92321   0.13984   0.00000  Uiso   1.00
C16    C     0.22513   0.97084   0.11006   0.00000  Uiso   1.00
C17    C     0.16777   0.98328   0.07771   0.00000  Uiso   1.00
C18    C     0.30244   0.85052   0.14695   0.00000  Uiso   1.00
C19    C     0.36371   0.83703   0.12315   0.00000  Uiso   1.00
C20    C     0.36974   0.78827   0.09679   0.00000  Uiso   1.00
C21    C     0.25784   0.88886   0.24348   0.00000  Uiso   1.00
C22    C     0.28162   0.90758   0.30085   0.00000  Uiso   1.00
C23    C     0.25011   0.89109   0.35577   0.00000  Uiso   1.00
H24    H     0.14513   0.81276   0.17140   0.00000  Uiso   1.00
H25    H     0.07515   0.87526   0.10321   0.00000  Uiso   1.00
H26    H     0.21371   0.74147   0.11631   0.00000  Uiso   1.00
H27    H     0.13164   0.81201   0.29398   0.00000  Uiso   1.00
H28    H     0.02110   0.95953   0.02867   0.00000  Uiso   1.00
H29    H     0.31328   0.67743   0.05631   0.00000  Uiso   1.00
H30    H     0.14020   0.82618   0.43097   0.00000  Uiso   1.00
H31    H     0.32646   0.92830   0.17969   0.00000  Uiso   1.00
H32    H     0.26643   0.99714   0.11195   0.00000  Uiso   1.00
H33    H     0.40499   0.86335   0.12505   0.00000  Uiso   1.00
H34    H     0.32292   0.93390   0.30272   0.00000  Uiso   1.00
H35    H     0.17635   0.05846   0.03576   0.00000  Uiso   1.00
H36    H     0.46853   0.77635   0.06341   0.00000  Uiso   1.00
H37    H     0.29545   0.92511   0.43806   0.00000  Uiso   1.00
O38    O     0.05597   0.05219   0.98749   0.00000  Uiso   1.00
O39    O     0.43930   0.68207   0.02377   0.00000  Uiso   1.00
O40    O     0.21222   0.87724   0.51530   0.00000  Uiso   1.00
N41    N     0.06588   0.97337   0.03965   0.00000  Uiso   1.00
N42    N     0.33904   0.70962   0.06548   0.00000  Uiso   1.00
N43    N     0.17724   0.84868   0.41575   0.00000  Uiso   1.00
N44    N     0.14941   0.02660   0.04346   0.00000  Uiso   1.00
N45    N     0.42258   0.76285   0.06930   0.00000  Uiso   1.00
N46    N     0.26078   0.90192   0.41957   0.00000  Uiso   1.00
C47    C     0.82388   0.66353   0.09647   0.00000  Uiso   1.00
C48    C     0.84155   0.61484   0.05978   0.00000  Uiso   1.00
C49    C     0.89678   0.60822   0.02190   0.00000  Uiso   1.00
C50    C     0.90408   0.56080   0.99232   0.00000  Uiso   1.00
C51    C     0.93855   0.49119   0.93410   0.00000  Uiso   1.00
C52    C     0.75532   0.67888   0.07405   0.00000  Uiso   1.00
C53    C     0.73805   0.72611   0.04817   0.00000  Uiso   1.00
C54    C     0.67276   0.73260   0.03061   0.00000  Uiso   1.00
C55    C     0.57334   0.76242   0.99459   0.00000  Uiso   1.00
C56    C     0.81635   0.64722   0.16575   0.00000  Uiso   1.00
C57    C     0.85037   0.66784   0.21698   0.00000  Uiso   1.00
C58    C     0.83645   0.64769   0.27663   0.00000  Uiso   1.00
C59    C     0.83179   0.62836   0.38298   0.00000  Uiso   1.00
C60    C     0.73864   0.59108   0.11133   0.00000  Uiso   1.00
C61    C     0.79525   0.57549   0.06785   0.00000  Uiso   1.00
C62    C     0.80248   0.52806   0.03833   0.00000  Uiso   1.00
C63    C     0.85771   0.52138   0.00041   0.00000  Uiso   1.00
C64    C     0.70902   0.63953   0.08212   0.00000  Uiso   1.00
C65    C     0.64375   0.64595   0.06460   0.00000  Uiso   1.00
C66    C     0.62638   0.69317   0.03869   0.00000  Uiso   1.00
C67    C     0.77005   0.60787   0.17382   0.00000  Uiso   1.00
C68    C     0.75607   0.58768   0.23341   0.00000  Uiso   1.00
C69    C     0.79007   0.60827   0.28471   0.00000  Uiso   1.00
H70    H     0.85992   0.69417   0.09019   0.00000  Uiso   1.00
H71    H     0.93259   0.63869   0.01566   0.00000  Uiso   1.00
H72    H     0.77388   0.75655   0.04193   0.00000  Uiso   1.00
H73    H     0.88619   0.69830   0.21071   0.00000  Uiso   1.00
H74    H     0.99273   0.55983   0.93657   0.00000  Uiso   1.00
H75    H     0.65809   0.80836   0.99199   0.00000  Uiso   1.00
H76    H     0.89491   0.68552   0.34790   0.00000  Uiso   1.00
H77    H     0.70260   0.56044   0.11761   0.00000  Uiso   1.00
H78    H     0.76664   0.49762   0.04459   0.00000  Uiso   1.00
H79    H     0.60793   0.61549   0.07086   0.00000  Uiso   1.00
H80    H     0.72024   0.55723   0.23964   0.00000  Uiso   1.00
H81    H     0.85804   0.44533   0.96004   0.00000  Uiso   1.00
H82    H     0.52339   0.69387   0.01547   0.00000  Uiso   1.00
H83    H     0.76022   0.57102   0.37137   0.00000  Uiso   1.00
O84    O     0.97034   0.46367   0.89975   0.00000  Uiso   1.00
O85    O     0.53130   0.78975   0.97248   0.00000  Uiso   1.00
O86    O     0.84201   0.62857   0.43942   0.00000  Uiso   1.00
N87    N     0.95225   0.54150   0.95212   0.00000  Uiso   1.00
N88    N     0.63938   0.77386   0.00393   0.00000  Uiso   1.00
N89    N     0.86078   0.65902   0.33668   0.00000  Uiso   1.00
N90    N     0.87978   0.47989   0.96476   0.00000  Uiso   1.00
N91    N     0.56690   0.71226   0.01656   0.00000  Uiso   1.00
N92    N     0.78830   0.59741   0.34931   0.00000  Uiso   1.00
C93    C     0.31333   0.66077   0.67330   0.00000  Uiso   1.00
C94    C     0.32621   0.61079   0.63740   0.00000  Uiso   1.00
C95    C     0.38357   0.59842   0.60509   0.00000  Uiso   1.00
C96    C     0.38568   0.55079   0.57526   0.00000  Uiso   1.00
C97    C     0.41379   0.47836   0.51913   0.00000  Uiso   1.00
C98    C     0.25092   0.68348   0.64451   0.00000  Uiso   1.00
C99    C     0.24498   0.73223   0.61819   0.00000  Uiso   1.00
C100   C     0.18372   0.74579   0.59435   0.00000  Uiso   1.00
C101   C     0.09493   0.78623   0.54930   0.00000  Uiso   1.00
C102   C     0.29552   0.64515   0.74104   0.00000  Uiso   1.00
C103   C     0.32707   0.66168   0.79589   0.00000  Uiso   1.00
C104   C     0.30335   0.64297   0.85333   0.00000  Uiso   1.00
C105   C     0.28381   0.62390   0.95816   0.00000  Uiso   1.00
C106   C     0.21508   0.59817   0.67779   0.00000  Uiso   1.00
C107   C     0.27284   0.57679   0.63984   0.00000  Uiso   1.00
C108   C     0.27487   0.52916   0.61006   0.00000  Uiso   1.00
C109   C     0.33223   0.51672   0.57771   0.00000  Uiso   1.00
C110   C     0.19756   0.64948   0.64695   0.00000  Uiso   1.00
C111   C     0.13629   0.66297   0.62315   0.00000  Uiso   1.00
C112   C     0.13026   0.71173   0.59679   0.00000  Uiso   1.00
C113   C     0.24216   0.61114   0.74348   0.00000  Uiso   1.00
C114   C     0.21838   0.59242   0.80085   0.00000  Uiso   1.00
C115   C     0.24989   0.60891   0.85577   0.00000  Uiso   1.00
H116   H     0.35487   0.68724   0.67140   0.00000  Uiso   1.00
H117   H     0.42485   0.62474   0.60321   0.00000  Uiso   1.00
H118   H     0.28629   0.75853   0.61631   0.00000  Uiso   1.00
H119   H     0.36836   0.68799   0.79398   0.00000  Uiso   1.00
H120   H     0.47890   0.54047   0.52867   0.00000  Uiso   1.00
H121   H     0.18672   0.82257   0.55631   0.00000  Uiso   1.00
H122   H     0.35980   0.67382   0.93097   0.00000  Uiso   1.00
H123   H     0.17354   0.57170   0.67969   0.00000  Uiso   1.00
H124   H     0.23357   0.50286   0.61195   0.00000  Uiso   1.00
H125   H     0.09501   0.63665   0.62505   0.00000  Uiso   1.00
H126   H     0.17708   0.56610   0.80272   0.00000  Uiso   1.00
H127   H     0.32365   0.44154   0.53576   0.00000  Uiso   1.00
H128   H     0.03147   0.72365   0.56341   0.00000  Uiso   1.00
H129   H     0.20455   0.57489   0.93806   0.00000  Uiso   1.00
O130   O     0.44403   0.44781   0.48749   0.00000  Uiso   1.00
O131   O     0.06070   0.81793   0.52377   0.00000  Uiso   1.00
O132   O     0.28778   0.62276   0.01530   0.00000  Uiso   1.00
N133   N     0.43412   0.52663   0.53965   0.00000  Uiso   1.00
N134   N     0.16096   0.79038   0.56548   0.00000  Uiso   1.00
N135   N     0.32276   0.65132   0.91575   0.00000  Uiso   1.00
N136   N     0.35059   0.47340   0.54346   0.00000  Uiso   1.00
N137   N     0.07742   0.73715   0.56930   0.00000  Uiso   1.00
N138   N     0.23922   0.59808   0.91957   0.00000  Uiso   1.00
C139   C     0.67612   0.83647   0.59647   0.00000  Uiso   1.00
C140   C     0.65845   0.88516   0.55978   0.00000  Uiso   1.00
C141   C     0.60322   0.89178   0.52190   0.00000  Uiso   1.00
C142   C     0.59592   0.93920   0.49232   0.00000  Uiso   1.00
C143   C     0.56145   0.00881   0.43410   0.00000  Uiso   1.00
C144   C     0.74468   0.82112   0.57405   0.00000  Uiso   1.00
C145   C     0.76195   0.77389   0.54817   0.00000  Uiso   1.00
C146   C     0.82724   0.76740   0.53061   0.00000  Uiso   1.00
C147   C     0.92666   0.73758   0.49459   0.00000  Uiso   1.00
C148   C     0.68365   0.85278   0.66575   0.00000  Uiso   1.00
C149   C     0.64963   0.83216   0.71698   0.00000  Uiso   1.00
C150   C     0.66355   0.85231   0.77663   0.00000  Uiso   1.00
C151   C     0.66821   0.87164   0.88298   0.00000  Uiso   1.00
C152   C     0.76136   0.90892   0.61133   0.00000  Uiso   1.00
C153   C     0.70475   0.92451   0.56785   0.00000  Uiso   1.00
C154   C     0.69752   0.97194   0.53833   0.00000  Uiso   1.00
C155   C     0.64229   0.97862   0.50041   0.00000  Uiso   1.00
C156   C     0.79098   0.86047   0.58212   0.00000  Uiso   1.00
C157   C     0.85625   0.85405   0.56460   0.00000  Uiso   1.00
C158   C     0.87362   0.80683   0.53869   0.00000  Uiso   1.00
C159   C     0.72995   0.89213   0.67382   0.00000  Uiso   1.00
C160   C     0.74393   0.91232   0.73341   0.00000  Uiso   1.00
C161   C     0.70993   0.89173   0.78471   0.00000  Uiso   1.00
H162   H     0.64008   0.80583   0.59019   0.00000  Uiso   1.00
H163   H     0.56741   0.86131   0.51566   0.00000  Uiso   1.00
H164   H     0.72612   0.74345   0.54193   0.00000  Uiso   1.00
H165   H     0.61381   0.80170   0.71071   0.00000  Uiso   1.00
H166   H     0.50727   0.94017   0.43657   0.00000  Uiso   1.00
H167   H     0.84191   0.69164   0.49199   0.00000  Uiso   1.00
H168   H     0.60509   0.81448   0.84790   0.00000  Uiso   1.00
H169   H     0.79740   0.93956   0.61761   0.00000  Uiso   1.00
H170   H     0.73336   0.00238   0.54459   0.00000  Uiso   1.00
H171   H     0.89207   0.88451   0.57086   0.00000  Uiso   1.00
H172   H     0.77976   0.94277   0.73964   0.00000  Uiso   1.00
H173   H     0.64196   0.05467   0.46004   0.00000  Uiso   1.00
H174   H     0.97661   0.80613   0.51547   0.00000  Uiso   1.00
H175   H     0.73978   0.92898   0.87137   0.00000  Uiso   1.00
O176   O     0.52966   0.03633   0.39975   0.00000  Uiso   1.00
O177   O     0.96870   0.71025   0.47248   0.00000  Uiso   1.00
O178   O     0.65799   0.87143   0.93942   0.00000  Uiso   1.00
N179   N     0.54775   0.95850   0.45212   0.00000  Uiso   1.00
N180   N     0.86062   0.72614   0.50393   0.00000  Uiso   1.00
N181   N     0.63922   0.84098   0.83668   0.00000  Uiso   1.00
N182   N     0.62022   0.02011   0.46476   0.00000  Uiso   1.00
N183   N     0.93310   0.78774   0.51656   0.00000  Uiso   1.00
N184   N     0.71170   0.90259   0.84931   0.00000  Uiso   1.00
C185   C     0.81333   0.83923   0.32670   0.00000  Uiso   1.00
C186   C     0.82621   0.88921   0.36260   0.00000  Uiso   1.00
C187   C     0.88357   0.90158   0.39491   0.00000  Uiso   1.00
C188   C     0.88568   0.94921   0.42474   0.00000  Uiso   1.00
C189   C     0.91379   0.02164   0.48087   0.00000  Uiso   1.00
C190   C     0.75092   0.81652   0.35549   0.00000  Uiso   1.00
C191   C     0.74498   0.76777   0.38181   0.00000  Uiso   1.00
C192   C     0.68372   0.75421   0.40565   0.00000  Uiso   1.00
C193   C     0.59493   0.71377   0.45070   0.00000  Uiso   1.00
C194   C     0.79552   0.85485   0.25896   0.00000  Uiso   1.00
C195   C     0.82707   0.83832   0.20411   0.00000  Uiso   1.00
C196   C     0.80335   0.85703   0.14667   0.00000  Uiso   1.00
C197   C     0.78381   0.87610   0.04184   0.00000  Uiso   1.00
C198   C     0.71508   0.90183   0.32221   0.00000  Uiso   1.00
C199   C     0.77284   0.92321   0.36016   0.00000  Uiso   1.00
C200   C     0.77487   0.97084   0.38994   0.00000  Uiso   1.00
C201   C     0.83223   0.98328   0.42229   0.00000  Uiso   1.00
C202   C     0.69756   0.85052   0.35305   0.00000  Uiso   1.00
C203   C     0.63629   0.83703   0.37685   0.00000  Uiso   1.00
C204   C     0.63026   0.78827   0.40321   0.00000  Uiso   1.00
C205   C     0.74216   0.88886   0.25652   0.00000  Uiso   1.00
C206   C     0.71838   0.90758   0.19915   0.00000  Uiso   1.00
C207   C     0.74989   0.89109   0.14423   0.00000  Uiso   1.00
H208   H     0.85487   0.81276   0.32860   0.00000  Uiso   1.00
H209   H     0.92485   0.87526   0.39679   0.00000  Uiso   1.00
H210   H     0.78629   0.74147   0.38369   0.00000  Uiso   1.00
H211   H     0.86836   0.81201   0.20602   0.00000  Uiso   1.00
H212   H     0.97890   0.95953   0.47133   0.00000  Uiso   1.00
H213   H     0.68672   0.67743   0.44369   0.00000  Uiso   1.00
H214   H     0.85980   0.82618   0.06903   0.00000  Uiso   1.00
H215   H     0.67354   0.92830   0.32031   0.00000  Uiso   1.00
H216   H     0.73357   0.99714   0.38805   0.00000  Uiso   1.00
H217   H     0.59501   0.86335   0.37495   0.00000  Uiso   1.00
H218   H     0.67708   0.93390   0.19728   0.00000  Uiso   1.00
H219   H     0.82365   0.05846   0.46424   0.00000  Uiso   1.00
H220   H     0.53147   0.77635   0.43659   0.00000  Uiso   1.00
H221   H     0.70455   0.92511   0.06194   0.00000  Uiso   1.00
O222   O     0.94403   0.05219   0.51251   0.00000  Uiso   1.00
O223   O     0.56070   0.68207   0.47623   0.00000  Uiso   1.00
O224   O     0.78778   0.87724   0.98470   0.00000  Uiso   1.00
N225   N     0.93412   0.97337   0.46035   0.00000  Uiso   1.00
N226   N     0.66096   0.70962   0.43452   0.00000  Uiso   1.00
N227   N     0.82276   0.84868   0.08425   0.00000  Uiso   1.00
N228   N     0.85059   0.02660   0.45654   0.00000  Uiso   1.00
N229   N     0.57742   0.76285   0.43070   0.00000  Uiso   1.00
N230   N     0.73922   0.90192   0.08043   0.00000  Uiso   1.00
C231   C     0.17612   0.66353   0.40353   0.00000  Uiso   1.00
C232   C     0.15845   0.61484   0.44022   0.00000  Uiso   1.00
C233   C     0.10322   0.60822   0.47810   0.00000  Uiso   1.00
C234   C     0.09592   0.56080   0.50768   0.00000  Uiso   1.00
C235   C     0.06145   0.49119   0.56590   0.00000  Uiso   1.00
C236   C     0.24468   0.67888   0.42595   0.00000  Uiso   1.00
C237   C     0.26195   0.72611   0.45183   0.00000  Uiso   1.00
C238   C     0.32724   0.73260   0.46939   0.00000  Uiso   1.00
C239   C     0.42666   0.76242   0.50541   0.00000  Uiso   1.00
C240   C     0.18365   0.64722   0.33425   0.00000  Uiso   1.00
C241   C     0.14963   0.66784   0.28302   0.00000  Uiso   1.00
C242   C     0.16355   0.64769   0.22337   0.00000  Uiso   1.00
C243   C     0.16821   0.62836   0.11702   0.00000  Uiso   1.00
C244   C     0.26136   0.59108   0.38867   0.00000  Uiso   1.00
C245   C     0.20475   0.57549   0.43215   0.00000  Uiso   1.00
C246   C     0.19752   0.52806   0.46167   0.00000  Uiso   1.00
C247   C     0.14229   0.52138   0.49959   0.00000  Uiso   1.00
C248   C     0.29098   0.63953   0.41788   0.00000  Uiso   1.00
C249   C     0.35625   0.64595   0.43540   0.00000  Uiso   1.00
C250   C     0.37362   0.69317   0.46131   0.00000  Uiso   1.00
C251   C     0.22995   0.60787   0.32618   0.00000  Uiso   1.00
C252   C     0.24393   0.58768   0.26659   0.00000  Uiso   1.00
C253   C     0.20993   0.60827   0.21529   0.00000  Uiso   1.00
H254   H     0.14008   0.69417   0.40981   0.00000  Uiso   1.00
H255   H     0.06741   0.63869   0.48434   0.00000  Uiso   1.00
H256   H     0.22612   0.75655   0.45807   0.00000  Uiso   1.00
H257   H     0.11381   0.69830   0.28929   0.00000  Uiso   1.00
H258   H     0.00727   0.55983   0.56343   0.00000  Uiso   1.00
H259   H     0.34191   0.80836   0.50801   0.00000  Uiso   1.00
H260   H     0.10509   0.68552   0.15210   0.00000  Uiso   1.00
H261   H     0.29740   0.56044   0.38239   0.00000  Uiso   1.00
H262   H     0.23336   0.49762   0.45541   0.00000  Uiso   1.00
H263   H     0.39207   0.61549   0.42914   0.00000  Uiso   1.00
H264   H     0.27976   0.55723   0.26036   0.00000  Uiso   1.00
H265   H     0.14196   0.44533   0.53996   0.00000  Uiso   1.00
H266   H     0.47661   0.69387   0.48453   0.00000  Uiso   1.00
H267   H     0.23978   0.57102   0.12863   0.00000  Uiso   1.00
O268   O     0.02966   0.46367   0.60025   0.00000  Uiso   1.00
O269   O     0.46870   0.78975   0.52752   0.00000  Uiso   1.00
O270   O     0.15799   0.62857   0.06058   0.00000  Uiso   1.00
N271   N     0.04775   0.54150   0.54788   0.00000  Uiso   1.00
N272   N     0.36062   0.77386   0.49607   0.00000  Uiso   1.00
N273   N     0.13922   0.65902   0.16332   0.00000  Uiso   1.00
N274   N     0.12022   0.47989   0.53524   0.00000  Uiso   1.00
N275   N     0.43310   0.71226   0.48344   0.00000  Uiso   1.00
N276   N     0.21170   0.59741   0.15069   0.00000  Uiso   1.00
C277   C     0.68667   0.66077   0.82670   0.00000  Uiso   1.00
C278   C     0.67379   0.61079   0.86260   0.00000  Uiso   1.00
C279   C     0.61643   0.59842   0.89491   0.00000  Uiso   1.00
C280   C     0.61432   0.55079   0.92474   0.00000  Uiso   1.00
C281   C     0.58621   0.47836   0.98087   0.00000  Uiso   1.00
C282   C     0.74908   0.68348   0.85549   0.00000  Uiso   1.00
C283   C     0.75502   0.73223   0.88181   0.00000  Uiso   1.00
C284   C     0.81628   0.74579   0.90565   0.00000  Uiso   1.00
C285   C     0.90507   0.78623   0.95070   0.00000  Uiso   1.00
C286   C     0.70448   0.64515   0.75896   0.00000  Uiso   1.00
C287   C     0.67293   0.66168   0.70411   0.00000  Uiso   1.00
C288   C     0.69665   0.64297   0.64667   0.00000  Uiso   1.00
C289   C     0.71619   0.62390   0.54184   0.00000  Uiso   1.00
C290   C     0.78492   0.59817   0.82221   0.00000  Uiso   1.00
C291   C     0.72716   0.57679   0.86016   0.00000  Uiso   1.00
C292   C     0.72513   0.52916   0.88994   0.00000  Uiso   1.00
C293   C     0.66777   0.51672   0.92229   0.00000  Uiso   1.00
C294   C     0.80244   0.64948   0.85305   0.00000  Uiso   1.00
C295   C     0.86371   0.66297   0.87685   0.00000  Uiso   1.00
C296   C     0.86974   0.71173   0.90321   0.00000  Uiso   1.00
C297   C     0.75784   0.61114   0.75652   0.00000  Uiso   1.00
C298   C     0.78162   0.59242   0.69915   0.00000  Uiso   1.00
C299   C     0.75011   0.60891   0.64423   0.00000  Uiso   1.00
H300   H     0.64513   0.68724   0.82860   0.00000  Uiso   1.00
H301   H     0.57515   0.62474   0.89679   0.00000  Uiso   1.00
H302   H     0.71371   0.75853   0.88369   0.00000  Uiso   1.00
H303   H     0.63164   0.68799   0.70602   0.00000  Uiso   1.00
H304   H     0.52110   0.54047   0.97133   0.00000  Uiso   1.00
H305   H     0.81328   0.82257   0.94369   0.00000  Uiso   1.00
H306   H     0.64020   0.67382   0.56903   0.00000  Uiso   1.00
H307   H     0.82646   0.57170   0.82031   0.00000  Uiso   1.00
H308   H     0.76643   0.50286   0.88805   0.00000  Uiso   1.00
H309   H     0.90499   0.63665   0.87495   0.00000  Uiso   1.00
H310   H     0.82292   0.56610   0.69728   0.00000  Uiso   1.00
H311   H     0.67635   0.44154   0.96424   0.00000  Uiso   1.00
H312   H     0.96853   0.72365   0.93659   0.00000  Uiso   1.00
H313   H     0.79545   0.57489   0.56194   0.00000  Uiso   1.00
O314   O     0.55597   0.44781   0.01251   0.00000  Uiso   1.00
O315   O     0.93930   0.81793   0.97623   0.00000  Uiso   1.00
O316   O     0.71222   0.62276   0.48470   0.00000  Uiso   1.00
N317   N     0.56588   0.52663   0.96035   0.00000  Uiso   1.00
N318   N     0.83904   0.79038   0.93452   0.00000  Uiso   1.00
N319   N     0.67724   0.65132   0.58425   0.00000  Uiso   1.00
N320   N     0.64941   0.47340   0.95654   0.00000  Uiso   1.00
N321   N     0.92258   0.73715   0.93070   0.00000  Uiso   1.00
N322   N     0.76078   0.59808   0.58043   0.00000  Uiso   1.00
C323   C     0.32388   0.83647   0.90353   0.00000  Uiso   1.00
C324   C     0.34155   0.88516   0.94022   0.00000  Uiso   1.00
C325   C     0.39678   0.89178   0.97810   0.00000  Uiso   1.00
C326   C     0.40408   0.93920   0.00768   0.00000  Uiso   1.00
C327   C     0.43855   0.00881   0.06590   0.00000  Uiso   1.00
C328   C     0.25532   0.82112   0.92595   0.00000  Uiso   1.00
C329   C     0.23805   0.77389   0.95183   0.00000  Uiso   1.00
C330   C     0.17276   0.76740   0.96939   0.00000  Uiso   1.00
C331   C     0.07334   0.73758   0.00541   0.00000  Uiso   1.00
C332   C     0.31635   0.85278   0.83425   0.00000  Uiso   1.00
C333   C     0.35037   0.83216   0.78302   0.00000  Uiso   1.00
C334   C     0.33645   0.85231   0.72337   0.00000  Uiso   1.00
C335   C     0.33179   0.87164   0.61702   0.00000  Uiso   1.00
C336   C     0.23864   0.90892   0.88867   0.00000  Uiso   1.00
C337   C     0.29525   0.92451   0.93215   0.00000  Uiso   1.00
C338   C     0.30248   0.97194   0.96167   0.00000  Uiso   1.00
C339   C     0.35771   0.97862   0.99959   0.00000  Uiso   1.00
C340   C     0.20902   0.86047   0.91788   0.00000  Uiso   1.00
C341   C     0.14375   0.85405   0.93540   0.00000  Uiso   1.00
C342   C     0.12638   0.80683   0.96131   0.00000  Uiso   1.00
C343   C     0.27005   0.89213   0.82618   0.00000  Uiso   1.00
C344   C     0.25607   0.91232   0.76659   0.00000  Uiso   1.00
C345   C     0.29007   0.89173   0.71529   0.00000  Uiso   1.00
H346   H     0.35992   0.80583   0.90981   0.00000  Uiso   1.00
H347   H     0.43259   0.86131   0.98434   0.00000  Uiso   1.00
H348   H     0.27388   0.74345   0.95807   0.00000  Uiso   1.00
H349   H     0.38619   0.80170   0.78929   0.00000  Uiso   1.00
H350   H     0.49273   0.94017   0.06343   0.00000  Uiso   1.00
H351   H     0.15809   0.69164   0.00801   0.00000  Uiso   1.00
H352   H     0.39491   0.81448   0.65210   0.00000  Uiso   1.00
H353   H     0.20260   0.93956   0.88239   0.00000  Uiso   1.00
H354   H     0.26664   0.00238   0.95541   0.00000  Uiso   1.00
H355   H     0.10793   0.88451   0.92914   0.00000  Uiso   1.00
H356   H     0.22024   0.94277   0.76036   0.00000  Uiso   1.00
H357   H     0.35804   0.05467   0.03996   0.00000  Uiso   1.00
H358   H     0.02339   0.80613   0.98453   0.00000  Uiso   1.00
H359   H     0.26022   0.92898   0.62863   0.00000  Uiso   1.00
O360   O     0.47034   0.03633   0.10025   0.00000  Uiso   1.00
O361   O     0.03130   0.71025   0.02752   0.00000  Uiso   1.00
O362   O     0.34201   0.87143   0.56058   0.00000  Uiso   1.00
N363   N     0.45225   0.95850   0.04788   0.00000  Uiso   1.00
N364   N     0.13938   0.72614   0.99607   0.00000  Uiso   1.00
N365   N     0.36078   0.84098   0.66332   0.00000  Uiso   1.00
N366   N     0.37978   0.02011   0.03524   0.00000  Uiso   1.00
N367   N     0.06690   0.78774   0.98344   0.00000  Uiso   1.00
N368   N     0.28830   0.90259   0.65069   0.00000  Uiso   1.00
C369   C     0.81333   0.16077   0.82670   0.00000  Uiso   1.00
C370   C     0.82621   0.11079   0.86260   0.00000  Uiso   1.00
C371   C     0.88357   0.09842   0.89491   0.00000  Uiso   1.00
C372   C     0.88568   0.05079   0.92474   0.00000  Uiso   1.00
C373   C     0.91379   0.97836   0.98087   0.00000  Uiso   1.00
C374   C     0.75092   0.18348   0.85549   0.00000  Uiso   1.00
C375   C     0.74498   0.23223   0.88181   0.00000  Uiso   1.00
C376   C     0.68372   0.24579   0.90565   0.00000  Uiso   1.00
C377   C     0.59493   0.28623   0.95070   0.00000  Uiso   1.00
C378   C     0.79552   0.14515   0.75896   0.00000  Uiso   1.00
C379   C     0.82707   0.16168   0.70411   0.00000  Uiso   1.00
C380   C     0.80335   0.14297   0.64667   0.00000  Uiso   1.00
C381   C     0.78381   0.12390   0.54184   0.00000  Uiso   1.00
C382   C     0.71508   0.09817   0.82221   0.00000  Uiso   1.00
C383   C     0.77284   0.07679   0.86016   0.00000  Uiso   1.00
C384   C     0.77487   0.02916   0.88994   0.00000  Uiso   1.00
C385   C     0.83223   0.01672   0.92229   0.00000  Uiso   1.00
C386   C     0.69756   0.14948   0.85305   0.00000  Uiso   1.00
C387   C     0.63629   0.16297   0.87685   0.00000  Uiso   1.00
C388   C     0.63026   0.21173   0.90321   0.00000  Uiso   1.00
C389   C     0.74216   0.11114   0.75652   0.00000  Uiso   1.00
C390   C     0.71838   0.09242   0.69915   0.00000  Uiso   1.00
C391   C     0.74989   0.10891   0.64423   0.00000  Uiso   1.00
H392   H     0.85487   0.18724   0.82860   0.00000  Uiso   1.00
H393   H     0.92485   0.12474   0.89679   0.00000  Uiso   1.00
H394   H     0.78629   0.25853   0.88369   0.00000  Uiso   1.00
H395   H     0.86836   0.18799   0.70602   0.00000  Uiso   1.00
H396   H     0.97890   0.04047   0.97133   0.00000  Uiso   1.00
H397   H     0.68672   0.32257   0.94369   0.00000  Uiso   1.00
H398   H     0.85980   0.17382   0.56903   0.00000  Uiso   1.00
H399   H     0.67354   0.07170   0.82031   0.00000  Uiso   1.00
H400   H     0.73357   0.00286   0.88805   0.00000  Uiso   1.00
H401   H     0.59501   0.13665   0.87495   0.00000  Uiso   1.00
H402   H     0.67708   0.06610   0.69728   0.00000  Uiso   1.00
H403   H     0.82365   0.94154   0.96424   0.00000  Uiso   1.00
H404   H     0.53147   0.22365   0.93659   0.00000  Uiso   1.00
H405   H     0.70455   0.07489   0.56194   0.00000  Uiso   1.00
O406   O     0.94403   0.94781   0.01251   0.00000  Uiso   1.00
O407   O     0.56070   0.31793   0.97623   0.00000  Uiso   1.00
O408   O     0.78778   0.12276   0.48470   0.00000  Uiso   1.00
N409   N     0.93412   0.02663   0.96035   0.00000  Uiso   1.00
N410   N     0.66096   0.29038   0.93452   0.00000  Uiso   1.00
N411   N     0.82276   0.15132   0.58425   0.00000  Uiso   1.00
N412   N     0.85059   0.97340   0.95654   0.00000  Uiso   1.00
N413   N     0.57742   0.23715   0.93070   0.00000  Uiso   1.00
N414   N     0.73922   0.09808   0.58043   0.00000  Uiso   1.00
C415   C     0.17612   0.33647   0.90353   0.00000  Uiso   1.00
C416   C     0.15845   0.38516   0.94022   0.00000  Uiso   1.00
C417   C     0.10322   0.39178   0.97810   0.00000  Uiso   1.00
C418   C     0.09592   0.43920   0.00768   0.00000  Uiso   1.00
C419   C     0.06145   0.50881   0.06590   0.00000  Uiso   1.00
C420   C     0.24468   0.32112   0.92595   0.00000  Uiso   1.00
C421   C     0.26195   0.27389   0.95183   0.00000  Uiso   1.00
C422   C     0.32724   0.26740   0.96939   0.00000  Uiso   1.00
C423   C     0.42666   0.23758   0.00541   0.00000  Uiso   1.00
C424   C     0.18365   0.35278   0.83425   0.00000  Uiso   1.00
C425   C     0.14963   0.33216   0.78302   0.00000  Uiso   1.00
C426   C     0.16355   0.35231   0.72337   0.00000  Uiso   1.00
C427   C     0.16821   0.37164   0.61702   0.00000  Uiso   1.00
C428   C     0.26136   0.40892   0.88867   0.00000  Uiso   1.00
C429   C     0.20475   0.42451   0.93215   0.00000  Uiso   1.00
C430   C     0.19752   0.47194   0.96167   0.00000  Uiso   1.00
C431   C     0.14229   0.47862   0.99959   0.00000  Uiso   1.00
C432   C     0.29098   0.36047   0.91788   0.00000  Uiso   1.00
C433   C     0.35625   0.35405   0.93540   0.00000  Uiso   1.00
C434   C     0.37362   0.30683   0.96131   0.00000  Uiso   1.00
C435   C     0.22995   0.39213   0.82618   0.00000  Uiso   1.00
C436   C     0.24393   0.41232   0.76659   0.00000  Uiso   1.00
C437   C     0.20993   0.39173   0.71529   0.00000  Uiso   1.00
H438   H     0.14008   0.30583   0.90981   0.00000  Uiso   1.00
H439   H     0.06741   0.36131   0.98434   0.00000  Uiso   1.00
H440   H     0.22612   0.24345   0.95807   0.00000  Uiso   1.00
H441   H     0.11381   0.30170   0.78929   0.00000  Uiso   1.00
H442   H     0.00727   0.44017   0.06343   0.00000  Uiso   1.00
H443   H     0.34191   0.19164   0.00801   0.00000  Uiso   1.00
H444   H     0.10509   0.31448   0.65210   0.00000  Uiso   1.00
H445   H     0.29740   0.43956   0.88239   0.00000  Uiso   1.00
H446   H     0.23336   0.50238   0.95541   0.00000  Uiso   1.00
H447   H     0.39207   0.38451   0.92914   0.00000  Uiso   1.00
H448   H     0.27976   0.44277   0.76036   0.00000  Uiso   1.00
H449   H     0.14196   0.55467   0.03996   0.00000  Uiso   1.00
H450   H     0.47661   0.30613   0.98453   0.00000  Uiso   1.00
H451   H     0.23978   0.42898   0.62863   0.00000  Uiso   1.00
O452   O     0.02966   0.53633   0.10025   0.00000  Uiso   1.00
O453   O     0.46870   0.21025   0.02752   0.00000  Uiso   1.00
O454   O     0.15799   0.37143   0.56058   0.00000  Uiso   1.00
N455   N     0.04775   0.45850   0.04788   0.00000  Uiso   1.00
N456   N     0.36062   0.22614   0.99607   0.00000  Uiso   1.00
N457   N     0.13922   0.34098   0.66332   0.00000  Uiso   1.00
N458   N     0.12022   0.52011   0.03524   0.00000  Uiso   1.00
N459   N     0.43310   0.28774   0.98344   0.00000  Uiso   1.00
N460   N     0.21170   0.40259   0.65069   0.00000  Uiso   1.00
C461   C     0.68667   0.33923   0.32670   0.00000  Uiso   1.00
C462   C     0.67379   0.38921   0.36260   0.00000  Uiso   1.00
C463   C     0.61643   0.40158   0.39491   0.00000  Uiso   1.00
C464   C     0.61432   0.44921   0.42474   0.00000  Uiso   1.00
C465   C     0.58621   0.52164   0.48087   0.00000  Uiso   1.00
C466   C     0.74908   0.31652   0.35549   0.00000  Uiso   1.00
C467   C     0.75502   0.26777   0.38181   0.00000  Uiso   1.00
C468   C     0.81628   0.25421   0.40565   0.00000  Uiso   1.00
C469   C     0.90507   0.21377   0.45070   0.00000  Uiso   1.00
C470   C     0.70448   0.35485   0.25896   0.00000  Uiso   1.00
C471   C     0.67293   0.33832   0.20411   0.00000  Uiso   1.00
C472   C     0.69665   0.35703   0.14667   0.00000  Uiso   1.00
C473   C     0.71619   0.37610   0.04184   0.00000  Uiso   1.00
C474   C     0.78492   0.40183   0.32221   0.00000  Uiso   1.00
C475   C     0.72716   0.42321   0.36016   0.00000  Uiso   1.00
C476   C     0.72513   0.47084   0.38994   0.00000  Uiso   1.00
C477   C     0.66777   0.48328   0.42229   0.00000  Uiso   1.00
C478   C     0.80244   0.35052   0.35305   0.00000  Uiso   1.00
C479   C     0.86371   0.33703   0.37685   0.00000  Uiso   1.00
C480   C     0.86974   0.28827   0.40321   0.00000  Uiso   1.00
C481   C     0.75784   0.38886   0.25652   0.00000  Uiso   1.00
C482   C     0.78162   0.40758   0.19915   0.00000  Uiso   1.00
C483   C     0.75011   0.39109   0.14423   0.00000  Uiso   1.00
H484   H     0.64513   0.31276   0.32860   0.00000  Uiso   1.00
H485   H     0.57515   0.37526   0.39679   0.00000  Uiso   1.00
H486   H     0.71371   0.24147   0.38369   0.00000  Uiso   1.00
H487   H     0.63164   0.31201   0.20602   0.00000  Uiso   1.00
H488   H     0.52110   0.45953   0.47133   0.00000  Uiso   1.00
H489   H     0.81328   0.17743   0.44369   0.00000  Uiso   1.00
H490   H     0.64020   0.32618   0.06903   0.00000  Uiso   1.00
H491   H     0.82646   0.42830   0.32031   0.00000  Uiso   1.00
H492   H     0.76643   0.49714   0.38805   0.00000  Uiso   1.00
H493   H     0.90499   0.36335   0.37495   0.00000  Uiso   1.00
H494   H     0.82292   0.43390   0.19728   0.00000  Uiso   1.00
H495   H     0.67635   0.55846   0.46424   0.00000  Uiso   1.00
H496   H     0.96853   0.27635   0.43659   0.00000  Uiso   1.00
H497   H     0.79545   0.42511   0.06194   0.00000  Uiso   1.00
O498   O     0.55597   0.55219   0.51251   0.00000  Uiso   1.00
O499   O     0.93930   0.18207   0.47623   0.00000  Uiso   1.00
O500   O     0.71222   0.37724   0.98470   0.00000  Uiso   1.00
N501   N     0.56588   0.47337   0.46035   0.00000  Uiso   1.00
N502   N     0.83904   0.20962   0.43452   0.00000  Uiso   1.00
N503   N     0.67724   0.34868   0.08425   0.00000  Uiso   1.00
N504   N     0.64941   0.52660   0.45654   0.00000  Uiso   1.00
N505   N     0.92258   0.26285   0.43070   0.00000  Uiso   1.00
N506   N     0.76078   0.40192   0.08043   0.00000  Uiso   1.00
C507   C     0.32388   0.16353   0.40353   0.00000  Uiso   1.00
C508   C     0.34155   0.11484   0.44022   0.00000  Uiso   1.00
C509   C     0.39678   0.10822   0.47810   0.00000  Uiso   1.00
C510   C     0.40408   0.06080   0.50768   0.00000  Uiso   1.00
C511   C     0.43855   0.99119   0.56590   0.00000  Uiso   1.00
C512   C     0.25532   0.17888   0.42595   0.00000  Uiso   1.00
C513   C     0.23805   0.22611   0.45183   0.00000  Uiso   1.00
C514   C     0.17276   0.23260   0.46939   0.00000  Uiso   1.00
C515   C     0.07334   0.26242   0.50541   0.00000  Uiso   1.00
C516   C     0.31635   0.14722   0.33425   0.00000  Uiso   1.00
C517   C     0.35037   0.16784   0.28302   0.00000  Uiso   1.00
C518   C     0.33645   0.14769   0.22337   0.00000  Uiso   1.00
C519   C     0.33179   0.12836   0.11702   0.00000  Uiso   1.00
C520   C     0.23864   0.09108   0.38867   0.00000  Uiso   1.00
C521   C     0.29525   0.07549   0.43215   0.00000  Uiso   1.00
C522   C     0.30248   0.02806   0.46167   0.00000  Uiso   1.00
C523   C     0.35771   0.02138   0.49959   0.00000  Uiso   1.00
C524   C     0.20902   0.13953   0.41788   0.00000  Uiso   1.00
C525   C     0.14375   0.14595   0.43540   0.00000  Uiso   1.00
C526   C     0.12638   0.19317   0.46131   0.00000  Uiso   1.00
C527   C     0.27005   0.10787   0.32618   0.00000  Uiso   1.00
C528   C     0.25607   0.08768   0.26659   0.00000  Uiso   1.00
C529   C     0.29007   0.10827   0.21529   0.00000  Uiso   1.00
H530   H     0.35992   0.19417   0.40981   0.00000  Uiso   1.00
H531   H     0.43259   0.13869   0.48434   0.00000  Uiso   1.00
H532   H     0.27388   0.25655   0.45807   0.00000  Uiso   1.00
H533   H     0.38619   0.19830   0.28929   0.00000  Uiso   1.00
H534   H     0.49273   0.05983   0.56343   0.00000  Uiso   1.00
H535   H     0.15809   0.30836   0.50801   0.00000  Uiso   1.00
H536   H     0.39491   0.18552   0.15210   0.00000  Uiso   1.00
H537   H     0.20260   0.06044   0.38239   0.00000  Uiso   1.00
H538   H     0.26664   0.99762   0.45541   0.00000  Uiso   1.00
H539   H     0.10793   0.11549   0.42914   0.00000  Uiso   1.00
H540   H     0.22024   0.05723   0.26036   0.00000  Uiso   1.00
H541   H     0.35804   0.94533   0.53996   0.00000  Uiso   1.00
H542   H     0.02339   0.19387   0.48453   0.00000  Uiso   1.00
H543   H     0.26022   0.07102   0.12863   0.00000  Uiso   1.00
O544   O     0.47034   0.96367   0.60025   0.00000  Uiso   1.00
O545   O     0.03130   0.28975   0.52752   0.00000  Uiso   1.00
O546   O     0.34201   0.12857   0.06058   0.00000  Uiso   1.00
N547   N     0.45225   0.04150   0.54788   0.00000  Uiso   1.00
N548   N     0.13938   0.27386   0.49607   0.00000  Uiso   1.00
N549   N     0.36078   0.15902   0.16332   0.00000  Uiso   1.00
N550   N     0.37978   0.97989   0.53524   0.00000  Uiso   1.00
N551   N     0.06690   0.21226   0.48344   0.00000  Uiso   1.00
N552   N     0.28830   0.09741   0.15069   0.00000  Uiso   1.00
C553   C     0.18667   0.16077   0.67330   0.00000  Uiso   1.00
C554   C     0.17379   0.11079   0.63740   0.00000  Uiso   1.00
C555   C     0.11643   0.09842   0.60509   0.00000  Uiso   1.00
C556   C     0.11432   0.05079   0.57526   0.00000  Uiso   1.00
C557   C     0.08621   0.97836   0.51913   0.00000  Uiso   1.00
C558   C     0.24908   0.18348   0.64451   0.00000  Uiso   1.00
C559   C     0.25502   0.23223   0.61819   0.00000  Uiso   1.00
C560   C     0.31628   0.24579   0.59435   0.00000  Uiso   1.00
C561   C     0.40507   0.28623   0.54930   0.00000  Uiso   1.00
C562   C     0.20448   0.14515   0.74104   0.00000  Uiso   1.00
C563   C     0.17293   0.16168   0.79589   0.00000  Uiso   1.00
C564   C     0.19665   0.14297   0.85333   0.00000  Uiso   1.00
C565   C     0.21619   0.12390   0.95816   0.00000  Uiso   1.00
C566   C     0.28492   0.09817   0.67779   0.00000  Uiso   1.00
C567   C     0.22716   0.07679   0.63984   0.00000  Uiso   1.00
C568   C     0.22513   0.02916   0.61006   0.00000  Uiso   1.00
C569   C     0.16777   0.01672   0.57771   0.00000  Uiso   1.00
C570   C     0.30244   0.14948   0.64695   0.00000  Uiso   1.00
C571   C     0.36371   0.16297   0.62315   0.00000  Uiso   1.00
C572   C     0.36974   0.21173   0.59679   0.00000  Uiso   1.00
C573   C     0.25784   0.11114   0.74348   0.00000  Uiso   1.00
C574   C     0.28162   0.09242   0.80085   0.00000  Uiso   1.00
C575   C     0.25011   0.10891   0.85577   0.00000  Uiso   1.00
H576   H     0.14513   0.18724   0.67140   0.00000  Uiso   1.00
H577   H     0.07515   0.12474   0.60321   0.00000  Uiso   1.00
H578   H     0.21371   0.25853   0.61631   0.00000  Uiso   1.00
H579   H     0.13164   0.18799   0.79398   0.00000  Uiso   1.00
H580   H     0.02110   0.04047   0.52867   0.00000  Uiso   1.00
H581   H     0.31328   0.32257   0.55631   0.00000  Uiso   1.00
H582   H     0.14020   0.17382   0.93097   0.00000  Uiso   1.00
H583   H     0.32646   0.07170   0.67969   0.00000  Uiso   1.00
H584   H     0.26643   0.00286   0.61195   0.00000  Uiso   1.00
H585   H     0.40499   0.13665   0.62505   0.00000  Uiso   1.00
H586   H     0.32292   0.06610   0.80272   0.00000  Uiso   1.00
H587   H     0.17635   0.94154   0.53576   0.00000  Uiso   1.00
H588   H     0.46853   0.22365   0.56341   0.00000  Uiso   1.00
H589   H     0.29545   0.07489   0.93806   0.00000  Uiso   1.00
O590   O     0.05597   0.94781   0.48749   0.00000  Uiso   1.00
O591   O     0.43930   0.31793   0.52377   0.00000  Uiso   1.00
O592   O     0.21222   0.12276   0.01530   0.00000  Uiso   1.00
N593   N     0.06588   0.02663   0.53965   0.00000  Uiso   1.00
N594   N     0.33904   0.29038   0.56548   0.00000  Uiso   1.00
N595   N     0.17724   0.15132   0.91575   0.00000  Uiso   1.00
N596   N     0.14941   0.97340   0.54346   0.00000  Uiso   1.00
N597   N     0.42258   0.23715   0.56930   0.00000  Uiso   1.00
N598   N     0.26078   0.09808   0.91957   0.00000  Uiso   1.00
C599   C     0.82388   0.33647   0.59647   0.00000  Uiso   1.00
C600   C     0.84155   0.38516   0.55978   0.00000  Uiso   1.00
C601   C     0.89678   0.39178   0.52190   0.00000  Uiso   1.00
C602   C     0.90408   0.43920   0.49232   0.00000  Uiso   1.00
C603   C     0.93855   0.50881   0.43410   0.00000  Uiso   1.00
C604   C     0.75532   0.32112   0.57405   0.00000  Uiso   1.00
C605   C     0.73805   0.27389   0.54817   0.00000  Uiso   1.00
C606   C     0.67276   0.26740   0.53061   0.00000  Uiso   1.00
C607   C     0.57334   0.23758   0.49459   0.00000  Uiso   1.00
C608   C     0.81635   0.35278   0.66575   0.00000  Uiso   1.00
C609   C     0.85037   0.33216   0.71698   0.00000  Uiso   1.00
C610   C     0.83645   0.35231   0.77663   0.00000  Uiso   1.00
C611   C     0.83179   0.37164   0.88298   0.00000  Uiso   1.00
C612   C     0.73864   0.40892   0.61133   0.00000  Uiso   1.00
C613   C     0.79525   0.42451   0.56785   0.00000  Uiso   1.00
C614   C     0.80248   0.47194   0.53833   0.00000  Uiso   1.00
C615   C     0.85771   0.47862   0.50041   0.00000  Uiso   1.00
C616   C     0.70902   0.36047   0.58212   0.00000  Uiso   1.00
C617   C     0.64375   0.35405   0.56460   0.00000  Uiso   1.00
C618   C     0.62638   0.30683   0.53869   0.00000  Uiso   1.00
C619   C     0.77005   0.39213   0.67382   0.00000  Uiso   1.00
C620   C     0.75607   0.41232   0.73341   0.00000  Uiso   1.00
C621   C     0.79007   0.39173   0.78471   0.00000  Uiso   1.00
H622   H     0.85992   0.30583   0.59019   0.00000  Uiso   1.00
H623   H     0.93259   0.36131   0.51566   0.00000  Uiso   1.00
H624   H     0.77388   0.24345   0.54193   0.00000  Uiso   1.00
H625   H     0.88619   0.30170   0.71071   0.00000  Uiso   1.00
H626   H     0.99273   0.44017   0.43657   0.00000  Uiso   1.00
H627   H     0.65809   0.19164   0.49199   0.00000  Uiso   1.00
H628   H     0.89491   0.31448   0.84790   0.00000  Uiso   1.00
H629   H     0.70260   0.43956   0.61761   0.00000  Uiso   1.00
H630   H     0.76664   0.50238   0.54459   0.00000  Uiso   1.00
H631   H     0.60793   0.38451   0.57086   0.00000  Uiso   1.00
H632   H     0.72024   0.44277   0.73964   0.00000  Uiso   1.00
H633   H     0.85804   0.55467   0.46004   0.00000  Uiso   1.00
H634   H     0.52339   0.30613   0.51547   0.00000  Uiso   1.00
H635   H     0.76022   0.42898   0.87137   0.00000  Uiso   1.00
O636   O     0.97034   0.53633   0.39975   0.00000  Uiso   1.00
O637   O     0.53130   0.21025   0.47248   0.00000  Uiso   1.00
O638   O     0.84201   0.37143   0.93942   0.00000  Uiso   1.00
N639   N     0.95225   0.45850   0.45212   0.00000  Uiso   1.00
N640   N     0.63938   0.22614   0.50393   0.00000  Uiso   1.00
N641   N     0.86078   0.34098   0.83668   0.00000  Uiso   1.00
N642   N     0.87978   0.52011   0.46476   0.00000  Uiso   1.00
N643   N     0.56690   0.28774   0.51656   0.00000  Uiso   1.00
N644   N     0.78830   0.40259   0.84931   0.00000  Uiso   1.00
C645   C     0.31333   0.33923   0.17330   0.00000  Uiso   1.00
C646   C     0.32621   0.38921   0.13740   0.00000  Uiso   1.00
C647   C     0.38357   0.40158   0.10509   0.00000  Uiso   1.00
C648   C     0.38568   0.44921   0.07526   0.00000  Uiso   1.00
C649   C     0.41379   0.52164   0.01913   0.00000  Uiso   1.00
C650   C     0.25092   0.31652   0.14451   0.00000  Uiso   1.00
C651   C     0.24498   0.26777   0.11819   0.00000  Uiso   1.00
C652   C     0.18372   0.25421   0.09435   0.00000  Uiso   1.00
C653   C     0.09493   0.21377   0.04930   0.00000  Uiso   1.00
C654   C     0.29552   0.35485   0.24104   0.00000  Uiso   1.00
C655   C     0.32707   0.33832   0.29589   0.00000  Uiso   1.00
C656   C     0.30335   0.35703   0.35333   0.00000  Uiso   1.00
C657   C     0.28381   0.37610   0.45816   0.00000  Uiso   1.00
C658   C     0.21508   0.40183   0.17779   0.00000  Uiso   1.00
C659   C     0.27284   0.42321   0.13984   0.00000  Uiso   1.00
C660   C     0.27487   0.47084   0.11006   0.00000  Uiso   1.00
C661   C     0.33223   0.48328   0.07771   0.00000  Uiso   1.00
C662   C     0.19756   0.35052   0.14695   0.00000  Uiso   1.00
C663   C     0.13629   0.33703   0.12315   0.00000  Uiso   1.00
C664   C     0.13026   0.28827   0.09679   0.00000  Uiso   1.00
C665   C     0.24216   0.38886   0.24348   0.00000  Uiso   1.00
C666   C     0.21838   0.40758   0.30085   0.00000  Uiso   1.00
C667   C     0.24989   0.39109   0.35577   0.00000  Uiso   1.00
H668   H     0.35487   0.31276   0.17140   0.00000  Uiso   1.00
H669   H     0.42485   0.37526   0.10321   0.00000  Uiso   1.00
H670   H     0.28629   0.24147   0.11631   0.00000  Uiso   1.00
H671   H     0.36836   0.31201   0.29398   0.00000  Uiso   1.00
H672   H     0.47890   0.45953   0.02867   0.00000  Uiso   1.00
H673   H     0.18672   0.17743   0.05631   0.00000  Uiso   1.00
H674   H     0.35980   0.32618   0.43097   0.00000  Uiso   1.00
H675   H     0.17354   0.42830   0.17969   0.00000  Uiso   1.00
H676   H     0.23357   0.49714   0.11195   0.00000  Uiso   1.00
H677   H     0.09501   0.36335   0.12505   0.00000  Uiso   1.00
H678   H     0.17708   0.43390   0.30272   0.00000  Uiso   1.00
H679   H     0.32365   0.55846   0.03576   0.00000  Uiso   1.00
H680   H     0.03147   0.27635   0.06341   0.00000  Uiso   1.00
H681   H     0.20455   0.42511   0.43806   0.00000  Uiso   1.00
O682   O     0.44403   0.55219   0.98749   0.00000  Uiso   1.00
O683   O     0.06070   0.18207   0.02377   0.00000  Uiso   1.00
O684   O     0.28778   0.37724   0.51530   0.00000  Uiso   1.00
N685   N     0.43412   0.47337   0.03965   0.00000  Uiso   1.00
N686   N     0.16096   0.20962   0.06548   0.00000  Uiso   1.00
N687   N     0.32276   0.34868   0.41575   0.00000  Uiso   1.00
N688   N     0.35059   0.52660   0.04346   0.00000  Uiso   1.00
N689   N     0.07742   0.26285   0.06930   0.00000  Uiso   1.00
N690   N     0.23922   0.40192   0.41957   0.00000  Uiso   1.00
C691   C     0.67612   0.16353   0.09647   0.00000  Uiso   1.00
C692   C     0.65845   0.11484   0.05978   0.00000  Uiso   1.00
C693   C     0.60322   0.10822   0.02190   0.00000  Uiso   1.00
C694   C     0.59592   0.06080   0.99232   0.00000  Uiso   1.00
C695   C     0.56145   0.99119   0.93410   0.00000  Uiso   1.00
C696   C     0.74468   0.17888   0.07405   0.00000  Uiso   1.00
C697   C     0.76195   0.22611   0.04817   0.00000  Uiso   1.00
C698   C     0.82724   0.23260   0.03061   0.00000  Uiso   1.00
C699   C     0.92666   0.26242   0.99459   0.00000  Uiso   1.00
C700   C     0.68365   0.14722   0.16575   0.00000  Uiso   1.00
C701   C     0.64963   0.16784   0.21698   0.00000  Uiso   1.00
C702   C     0.66355   0.14769   0.27663   0.00000  Uiso   1.00
C703   C     0.66821   0.12836   0.38298   0.00000  Uiso   1.00
C704   C     0.76136   0.09108   0.11133   0.00000  Uiso   1.00
C705   C     0.70475   0.07549   0.06785   0.00000  Uiso   1.00
C706   C     0.69752   0.02806   0.03833   0.00000  Uiso   1.00
C707   C     0.64229   0.02138   0.00041   0.00000  Uiso   1.00
C708   C     0.79098   0.13953   0.08212   0.00000  Uiso   1.00
C709   C     0.85625   0.14595   0.06460   0.00000  Uiso   1.00
C710   C     0.87362   0.19317   0.03869   0.00000  Uiso   1.00
C711   C     0.72995   0.10787   0.17382   0.00000  Uiso   1.00
C712   C     0.74393   0.08768   0.23341   0.00000  Uiso   1.00
C713   C     0.70993   0.10827   0.28471   0.00000  Uiso   1.00
H714   H     0.64008   0.19417   0.09019   0.00000  Uiso   1.00
H715   H     0.56741   0.13869   0.01566   0.00000  Uiso   1.00
H716   H     0.72612   0.25655   0.04193   0.00000  Uiso   1.00
H717   H     0.61381   0.19830   0.21071   0.00000  Uiso   1.00
H718   H     0.50727   0.05983   0.93657   0.00000  Uiso   1.00
H719   H     0.84191   0.30836   0.99199   0.00000  Uiso   1.00
H720   H     0.60509   0.18552   0.34790   0.00000  Uiso   1.00
H721   H     0.79740   0.06044   0.11761   0.00000  Uiso   1.00
H722   H     0.73336   0.99762   0.04459   0.00000  Uiso   1.00
H723   H     0.89207   0.11549   0.07086   0.00000  Uiso   1.00
H724   H     0.77976   0.05723   0.23964   0.00000  Uiso   1.00
H725   H     0.64196   0.94533   0.96004   0.00000  Uiso   1.00
H726   H     0.97661   0.19387   0.01547   0.00000  Uiso   1.00
H727   H     0.73978   0.07102   0.37137   0.00000  Uiso   1.00
O728   O     0.52966   0.96367   0.89975   0.00000  Uiso   1.00
O729   O     0.96870   0.28975   0.97248   0.00000  Uiso   1.00
O730   O     0.65799   0.12857   0.43942   0.00000  Uiso   1.00
N731   N     0.54775   0.04150   0.95212   0.00000  Uiso   1.00
N732   N     0.86062   0.27386   0.00393   0.00000  Uiso   1.00
N733   N     0.63922   0.15902   0.33668   0.00000  Uiso   1.00
N734   N     0.62022   0.97989   0.96476   0.00000  Uiso   1.00
N735   N     0.93310   0.21226   0.01656   0.00000  Uiso   1.00
N736   N     0.71170   0.09741   0.34931   0.00000  Uiso   1.00
