data_job_06478
_audit_creation_date              2018-12-19
_audit_creation_method            'Materials Studio'
_symmetry_space_group_name_H-M    'P1'
_symmetry_Int_Tables_number       1
_symmetry_cell_setting            triclinic
loop_
_symmetry_equiv_pos_as_xyz
  x,y,z
_cell_length_a                    27.4865
_cell_length_b                    36.5401
_cell_length_c                    21.9746
_cell_angle_alpha                 90.0000
_cell_angle_beta                  130.0462
_cell_angle_gamma                 90.0000
loop_
_atom_site_label
_atom_site_type_symbol
_atom_site_fract_x
_atom_site_fract_y
_atom_site_fract_z
_atom_site_U_iso_or_equiv
_atom_site_adp_type
_atom_site_occupancy
C1     C     0.79029   0.12785   0.14575   0.00000  Uiso   1.00
C2     C     0.79160   0.12148   0.07824   0.00000  Uiso   1.00
C3     C     0.81304   0.09004   0.06662   0.00000  Uiso   1.00
C4     C     0.81035   0.08957   0.00133   0.00000  Uiso   1.00
C5     C     0.31597   0.57513   0.90440   0.00000  Uiso   1.00
C6     C     0.82829   0.16275   0.18744   0.00000  Uiso   1.00
C7     C     0.88057   0.16601   0.26764   0.00000  Uiso   1.00
C8     C     0.90876   0.20029   0.29427   0.00000  Uiso   1.00
C9     C     0.97131   0.24993   0.36688   0.00000  Uiso   1.00
C10    C     0.72156   0.13706   0.10627   0.00000  Uiso   1.00
C11    C     0.68411   0.11873   0.11824   0.00000  Uiso   1.00
C12    C     0.62244   0.13138   0.07655   0.00000  Uiso   1.00
C13    C     0.51929   0.14114   0.02315   0.00000  Uiso   1.00
C14    C     0.74738   0.18292   0.05045   0.00000  Uiso   1.00
C15    C     0.76830   0.15139   0.02648   0.00000  Uiso   1.00
C16    C     0.26557   0.65097   0.96119   0.00000  Uiso   1.00
C17    C     0.28700   0.61953   0.94947   0.00000  Uiso   1.00
C18    C     0.80499   0.19266   0.13568   0.00000  Uiso   1.00
C19    C     0.83310   0.22694   0.16220   0.00000  Uiso   1.00
C20    C     0.88541   0.23025   0.24241   0.00000  Uiso   1.00
C21    C     0.69826   0.16697   0.05451   0.00000  Uiso   1.00
C22    C     0.63664   0.17966   0.01280   0.00000  Uiso   1.00
C23    C     0.59910   0.16135   0.02470   0.00000  Uiso   1.00
H24    H     0.80843   0.10456   0.18605   0.00000  Uiso   1.00
H25    H     0.83108   0.06690   0.10670   0.00000  Uiso   1.00
H26    H     0.89859   0.14286   0.30768   0.00000  Uiso   1.00
H27    H     0.70216   0.09558   0.15830   0.00000  Uiso   1.00
H28    H     0.84594   0.03833   0.99591   0.00000  Uiso   1.00
H29    H     0.98827   0.19851   0.41969   0.00000  Uiso   1.00
H30    H     0.57406   0.09882   0.10471   0.00000  Uiso   1.00
H31    H     0.72923   0.20621   0.01015   0.00000  Uiso   1.00
H32    H     0.24753   0.67412   0.92114   0.00000  Uiso   1.00
H33    H     0.81505   0.25008   0.12212   0.00000  Uiso   1.00
H34    H     0.61862   0.20281   0.97275   0.00000  Uiso   1.00
H35    H     0.27813   0.62536   0.84530   0.00000  Uiso   1.00
H36    H     0.92046   0.28554   0.26909   0.00000  Uiso   1.00
H37    H     0.50625   0.18584   0.95410   0.00000  Uiso   1.00
O38    O     0.32552   0.55890   0.86524   0.00000  Uiso   1.00
O39    O     0.01225   0.26905   0.42123   0.00000  Uiso   1.00
O40    O     0.46882   0.13826   0.00798   0.00000  Uiso   1.00
N41    N     0.82745   0.06321   0.97267   0.00000  Uiso   1.00
N42    N     0.96054   0.21297   0.36888   0.00000  Uiso   1.00
N43    N     0.57329   0.11977   0.07441   0.00000  Uiso   1.00
N44    N     0.29097   0.61004   0.89163   0.00000  Uiso   1.00
N45    N     0.92405   0.25980   0.28784   0.00000  Uiso   1.00
N46    N     0.53680   0.16660   0.99337   0.00000  Uiso   1.00
C47    C     0.31157   0.02282   0.46719   0.00000  Uiso   1.00
C48    C     0.29780   0.01975   0.38816   0.00000  Uiso   1.00
C49    C     0.74143   0.52958   0.31437   0.00000  Uiso   1.00
C50    C     0.73823   0.52466   0.24922   0.00000  Uiso   1.00
C51    C     0.20903   0.02203   0.12523   0.00000  Uiso   1.00
C52    C     0.33041   0.98453   0.50322   0.00000  Uiso   1.00
C53    C     0.30147   0.96474   0.52617   0.00000  Uiso   1.00
C54    C     0.32573   0.93018   0.55788   0.00000  Uiso   1.00
C55    C     0.34718   0.87288   0.61256   0.00000  Uiso   1.00
C56    C     0.37129   0.04622   0.52081   0.00000  Uiso   1.00
C57    C     0.37673   0.07831   0.55858   0.00000  Uiso   1.00
C58    C     0.43541   0.09568   0.60512   0.00000  Uiso   1.00
C59    C     0.02034   0.63418   0.68713   0.00000  Uiso   1.00
C60    C     0.40612   0.99661   0.48271   0.00000  Uiso   1.00
C61    C     0.84916   0.50551   0.39660   0.00000  Uiso   1.00
C62    C     0.34605   0.00058   0.33154   0.00000  Uiso   1.00
C63    C     0.28968   0.01040   0.25766   0.00000  Uiso   1.00
C64    C     0.38177   0.97029   0.51165   0.00000  Uiso   1.00
C65    C     0.40608   0.93575   0.54334   0.00000  Uiso   1.00
C66    C     0.37718   0.91591   0.56632   0.00000  Uiso   1.00
C67    C     0.42265   0.03199   0.52924   0.00000  Uiso   1.00
C68    C     0.98134   0.54931   0.57574   0.00000  Uiso   1.00
C69    C     0.98686   0.58142   0.61357   0.00000  Uiso   1.00
H70    H     0.27158   0.03390   0.46063   0.00000  Uiso   1.00
H71    H     0.20170   0.04059   0.30787   0.00000  Uiso   1.00
H72    H     0.26173   0.97577   0.51964   0.00000  Uiso   1.00
H73    H     0.33697   0.08932   0.55204   0.00000  Uiso   1.00
H74    H     0.64685   0.54171   0.14223   0.00000  Uiso   1.00
H75    H     0.27344   0.90504   0.58878   0.00000  Uiso   1.00
H76    H     0.43211   0.14448   0.65711   0.00000  Uiso   1.00
H77    H     0.44611   0.98553   0.48927   0.00000  Uiso   1.00
H78    H     0.38580   0.98956   0.33808   0.00000  Uiso   1.00
H79    H     0.44582   0.92474   0.54985   0.00000  Uiso   1.00
H80    H     0.02107   0.53828   0.58225   0.00000  Uiso   1.00
H81    H     0.29627   0.00029   0.16675   0.00000  Uiso   1.00
H82    H     0.42286   0.86362   0.61331   0.00000  Uiso   1.00
H83    H     0.08154   0.60306   0.68163   0.00000  Uiso   1.00
O84    O     0.17873   0.02452   0.05451   0.00000  Uiso   1.00
O85    O     0.34482   0.84521   0.64039   0.00000  Uiso   1.00
O86    O     0.05299   0.65935   0.73003   0.00000  Uiso   1.00
N87    N     0.69030   0.53142   0.16875   0.00000  Uiso   1.00
N88    N     0.30865   0.90363   0.58624   0.00000  Uiso   1.00
N89    N     0.45700   0.12748   0.65014   0.00000  Uiso   1.00
N90    N     0.27070   0.00913   0.18194   0.00000  Uiso   1.00
N91    N     0.38905   0.88135   0.59943   0.00000  Uiso   1.00
N92    N     0.03740   0.60520   0.66333   0.00000  Uiso   1.00
C93    C     0.89755   0.85321   0.19825   0.00000  Uiso   1.00
C94    C     0.88636   0.85950   0.12149   0.00000  Uiso   1.00
C95    C     0.92014   0.88351   0.11195   0.00000  Uiso   1.00
C96    C     0.90262   0.88530   0.03700   0.00000  Uiso   1.00
C97    C     0.39276   0.39834   0.92739   0.00000  Uiso   1.00
C98    C     0.83414   0.86077   0.17839   0.00000  Uiso   1.00
C99    C     0.82403   0.88583   0.21671   0.00000  Uiso   1.00
C100   C     0.76254   0.88868   0.18968   0.00000  Uiso   1.00
C101   C     0.67162   0.90367   0.16845   0.00000  Uiso   1.00
C102   C     0.90965   0.81230   0.21530   0.00000  Uiso   1.00
C103   C     0.96301   0.79661   0.28465   0.00000  Uiso   1.00
C104   C     0.96508   0.75866   0.28869   0.00000  Uiso   1.00
C105   C     0.99140   0.69840   0.32476   0.00000  Uiso   1.00
C106   C     0.80635   0.81371   0.08212   0.00000  Uiso   1.00
C107   C     0.83682   0.83805   0.05841   0.00000  Uiso   1.00
C108   C     0.81924   0.83980   0.98346   0.00000  Uiso   1.00
C109   C     0.35300   0.36380   0.97381   0.00000  Uiso   1.00
C110   C     0.78461   0.83931   0.11532   0.00000  Uiso   1.00
C111   C     0.72313   0.84213   0.08822   0.00000  Uiso   1.00
C112   C     0.71292   0.86719   0.12648   0.00000  Uiso   1.00
C113   C     0.86011   0.79085   0.15222   0.00000  Uiso   1.00
C114   C     0.86211   0.75291   0.15615   0.00000  Uiso   1.00
C115   C     0.91546   0.73717   0.22550   0.00000  Uiso   1.00
H116   H     0.93611   0.86992   0.24736   0.00000  Uiso   1.00
H117   H     0.95847   0.90011   0.16078   0.00000  Uiso   1.00
H118   H     0.86237   0.90243   0.26553   0.00000  Uiso   1.00
H119   H     0.00133   0.81322   0.33345   0.00000  Uiso   1.00
H120   H     0.96140   0.92413   0.03695   0.00000  Uiso   1.00
H121   H     0.75877   0.92901   0.25785   0.00000  Uiso   1.00
H122   H     0.05179   0.74091   0.40107   0.00000  Uiso   1.00
H123   H     0.76778   0.79701   0.03301   0.00000  Uiso   1.00
H124   H     0.28091   0.32320   0.93466   0.00000  Uiso   1.00
H125   H     0.68481   0.82552   0.03941   0.00000  Uiso   1.00
H126   H     0.82377   0.73632   0.10733   0.00000  Uiso   1.00
H127   H     0.31728   0.36171   0.85342   0.00000  Uiso   1.00
H128   H     0.61465   0.86658   0.07432   0.00000  Uiso   1.00
H129   H     0.40767   0.17849   0.21754   0.00000  Uiso   1.00
O130   O     0.40100   0.41147   0.88435   0.00000  Uiso   1.00
O131   O     0.63516   0.91787   0.17417   0.00000  Uiso   1.00
O132   O     0.01960   0.67109   0.36207   0.00000  Uiso   1.00
N133   N     0.42569   0.40584   0.00726   0.00000  Uiso   1.00
N134   N     0.73624   0.91040   0.21378   0.00000  Uiso   1.00
N135   N     0.01018   0.73455   0.34769   0.00000  Uiso   1.00
N136   N     0.34814   0.37225   0.90851   0.00000  Uiso   1.00
N137   N     0.65869   0.87681   0.11502   0.00000  Uiso   1.00
N138   N     0.93263   0.70096   0.24893   0.00000  Uiso   1.00
C139   C     0.29029   0.62785   0.14575   0.00000  Uiso   1.00
C140   C     0.29160   0.62148   0.07824   0.00000  Uiso   1.00
C141   C     0.31304   0.59004   0.06662   0.00000  Uiso   1.00
C142   C     0.31035   0.58957   0.00133   0.00000  Uiso   1.00
C143   C     0.81597   0.07513   0.90440   0.00000  Uiso   1.00
C144   C     0.32829   0.66275   0.18744   0.00000  Uiso   1.00
C145   C     0.38057   0.66601   0.26764   0.00000  Uiso   1.00
C146   C     0.40876   0.70029   0.29427   0.00000  Uiso   1.00
C147   C     0.47131   0.74993   0.36688   0.00000  Uiso   1.00
C148   C     0.22156   0.63706   0.10627   0.00000  Uiso   1.00
C149   C     0.18411   0.61873   0.11824   0.00000  Uiso   1.00
C150   C     0.12244   0.63138   0.07655   0.00000  Uiso   1.00
C151   C     0.01929   0.64114   0.02315   0.00000  Uiso   1.00
C152   C     0.24738   0.68292   0.05045   0.00000  Uiso   1.00
C153   C     0.26830   0.65139   0.02648   0.00000  Uiso   1.00
C154   C     0.76557   0.15097   0.96119   0.00000  Uiso   1.00
C155   C     0.78700   0.11953   0.94947   0.00000  Uiso   1.00
C156   C     0.30499   0.69266   0.13568   0.00000  Uiso   1.00
C157   C     0.33310   0.72694   0.16220   0.00000  Uiso   1.00
C158   C     0.38541   0.73025   0.24241   0.00000  Uiso   1.00
C159   C     0.19826   0.66697   0.05451   0.00000  Uiso   1.00
C160   C     0.13664   0.67966   0.01280   0.00000  Uiso   1.00
C161   C     0.09910   0.66135   0.02470   0.00000  Uiso   1.00
H162   H     0.30843   0.60456   0.18605   0.00000  Uiso   1.00
H163   H     0.33108   0.56690   0.10670   0.00000  Uiso   1.00
H164   H     0.39859   0.64286   0.30768   0.00000  Uiso   1.00
H165   H     0.20216   0.59558   0.15830   0.00000  Uiso   1.00
H166   H     0.34594   0.53833   0.99591   0.00000  Uiso   1.00
H167   H     0.48827   0.69851   0.41969   0.00000  Uiso   1.00
H168   H     0.07406   0.59882   0.10471   0.00000  Uiso   1.00
H169   H     0.22923   0.70621   0.01015   0.00000  Uiso   1.00
H170   H     0.74753   0.17412   0.92114   0.00000  Uiso   1.00
H171   H     0.31505   0.75008   0.12212   0.00000  Uiso   1.00
H172   H     0.11862   0.70281   0.97275   0.00000  Uiso   1.00
H173   H     0.77813   0.12536   0.84530   0.00000  Uiso   1.00
H174   H     0.42046   0.78554   0.26909   0.00000  Uiso   1.00
H175   H     0.00625   0.68584   0.95410   0.00000  Uiso   1.00
O176   O     0.82552   0.05890   0.86524   0.00000  Uiso   1.00
O177   O     0.51225   0.76905   0.42123   0.00000  Uiso   1.00
O178   O     0.96882   0.63826   0.00798   0.00000  Uiso   1.00
N179   N     0.32745   0.56321   0.97267   0.00000  Uiso   1.00
N180   N     0.46054   0.71297   0.36888   0.00000  Uiso   1.00
N181   N     0.07329   0.61977   0.07441   0.00000  Uiso   1.00
N182   N     0.79097   0.11004   0.89163   0.00000  Uiso   1.00
N183   N     0.42405   0.75980   0.28784   0.00000  Uiso   1.00
N184   N     0.03680   0.66660   0.99337   0.00000  Uiso   1.00
C185   C     0.81157   0.52282   0.46719   0.00000  Uiso   1.00
C186   C     0.79780   0.51975   0.38816   0.00000  Uiso   1.00
C187   C     0.24143   0.02958   0.31437   0.00000  Uiso   1.00
C188   C     0.23823   0.02466   0.24922   0.00000  Uiso   1.00
C189   C     0.70903   0.52203   0.12523   0.00000  Uiso   1.00
C190   C     0.83041   0.48453   0.50322   0.00000  Uiso   1.00
C191   C     0.80147   0.46474   0.52617   0.00000  Uiso   1.00
C192   C     0.82573   0.43018   0.55788   0.00000  Uiso   1.00
C193   C     0.84718   0.37288   0.61256   0.00000  Uiso   1.00
C194   C     0.87129   0.54622   0.52081   0.00000  Uiso   1.00
C195   C     0.87673   0.57831   0.55858   0.00000  Uiso   1.00
C196   C     0.93541   0.59568   0.60512   0.00000  Uiso   1.00
C197   C     0.52034   0.13418   0.68713   0.00000  Uiso   1.00
C198   C     0.90612   0.49661   0.48271   0.00000  Uiso   1.00
C199   C     0.34916   0.00551   0.39660   0.00000  Uiso   1.00
C200   C     0.84605   0.50058   0.33154   0.00000  Uiso   1.00
C201   C     0.78968   0.51040   0.25766   0.00000  Uiso   1.00
C202   C     0.88177   0.47029   0.51165   0.00000  Uiso   1.00
C203   C     0.90608   0.43575   0.54334   0.00000  Uiso   1.00
C204   C     0.87718   0.41591   0.56632   0.00000  Uiso   1.00
C205   C     0.92265   0.53199   0.52924   0.00000  Uiso   1.00
C206   C     0.48134   0.04931   0.57574   0.00000  Uiso   1.00
C207   C     0.48686   0.08142   0.61357   0.00000  Uiso   1.00
H208   H     0.77158   0.53390   0.46063   0.00000  Uiso   1.00
H209   H     0.70170   0.54059   0.30787   0.00000  Uiso   1.00
H210   H     0.76173   0.47577   0.51964   0.00000  Uiso   1.00
H211   H     0.83697   0.58932   0.55204   0.00000  Uiso   1.00
H212   H     0.14685   0.04171   0.14223   0.00000  Uiso   1.00
H213   H     0.77344   0.40504   0.58878   0.00000  Uiso   1.00
H214   H     0.93211   0.64448   0.65711   0.00000  Uiso   1.00
H215   H     0.94611   0.48553   0.48927   0.00000  Uiso   1.00
H216   H     0.88580   0.48956   0.33808   0.00000  Uiso   1.00
H217   H     0.94582   0.42474   0.54985   0.00000  Uiso   1.00
H218   H     0.52107   0.03828   0.58225   0.00000  Uiso   1.00
H219   H     0.79627   0.50029   0.16675   0.00000  Uiso   1.00
H220   H     0.92286   0.36362   0.61331   0.00000  Uiso   1.00
H221   H     0.58154   0.10306   0.68163   0.00000  Uiso   1.00
O222   O     0.67873   0.52452   0.05451   0.00000  Uiso   1.00
O223   O     0.84482   0.34521   0.64039   0.00000  Uiso   1.00
O224   O     0.55299   0.15935   0.73003   0.00000  Uiso   1.00
N225   N     0.19030   0.03142   0.16875   0.00000  Uiso   1.00
N226   N     0.80865   0.40363   0.58624   0.00000  Uiso   1.00
N227   N     0.95700   0.62748   0.65014   0.00000  Uiso   1.00
N228   N     0.77070   0.50913   0.18194   0.00000  Uiso   1.00
N229   N     0.88905   0.38135   0.59943   0.00000  Uiso   1.00
N230   N     0.53740   0.10520   0.66333   0.00000  Uiso   1.00
C231   C     0.39755   0.35321   0.19825   0.00000  Uiso   1.00
C232   C     0.38636   0.35950   0.12149   0.00000  Uiso   1.00
C233   C     0.42014   0.38351   0.11195   0.00000  Uiso   1.00
C234   C     0.40262   0.38530   0.03700   0.00000  Uiso   1.00
C235   C     0.89276   0.89834   0.92739   0.00000  Uiso   1.00
C236   C     0.33414   0.36077   0.17839   0.00000  Uiso   1.00
C237   C     0.32403   0.38583   0.21671   0.00000  Uiso   1.00
C238   C     0.26254   0.38868   0.18968   0.00000  Uiso   1.00
C239   C     0.17162   0.40367   0.16845   0.00000  Uiso   1.00
C240   C     0.40965   0.31230   0.21530   0.00000  Uiso   1.00
C241   C     0.46301   0.29661   0.28465   0.00000  Uiso   1.00
C242   C     0.46508   0.25866   0.28869   0.00000  Uiso   1.00
C243   C     0.49140   0.19840   0.32476   0.00000  Uiso   1.00
C244   C     0.30635   0.31371   0.08212   0.00000  Uiso   1.00
C245   C     0.33682   0.33805   0.05841   0.00000  Uiso   1.00
C246   C     0.31924   0.33980   0.98346   0.00000  Uiso   1.00
C247   C     0.85300   0.86380   0.97381   0.00000  Uiso   1.00
C248   C     0.28461   0.33931   0.11532   0.00000  Uiso   1.00
C249   C     0.22313   0.34213   0.08822   0.00000  Uiso   1.00
C250   C     0.21292   0.36719   0.12648   0.00000  Uiso   1.00
C251   C     0.36011   0.29085   0.15222   0.00000  Uiso   1.00
C252   C     0.36211   0.25291   0.15615   0.00000  Uiso   1.00
C253   C     0.41546   0.23717   0.22550   0.00000  Uiso   1.00
H254   H     0.43611   0.36992   0.24736   0.00000  Uiso   1.00
H255   H     0.45847   0.40011   0.16078   0.00000  Uiso   1.00
H256   H     0.36237   0.40243   0.26553   0.00000  Uiso   1.00
H257   H     0.50133   0.31322   0.33345   0.00000  Uiso   1.00
H258   H     0.46140   0.42413   0.03695   0.00000  Uiso   1.00
H259   H     0.25877   0.42901   0.25785   0.00000  Uiso   1.00
H260   H     0.55179   0.24091   0.40107   0.00000  Uiso   1.00
H261   H     0.26778   0.29701   0.03301   0.00000  Uiso   1.00
H262   H     0.78091   0.82320   0.93466   0.00000  Uiso   1.00
H263   H     0.18481   0.32552   0.03941   0.00000  Uiso   1.00
H264   H     0.32377   0.23632   0.10733   0.00000  Uiso   1.00
H265   H     0.81728   0.86171   0.85342   0.00000  Uiso   1.00
H266   H     0.11465   0.36658   0.07432   0.00000  Uiso   1.00
H267   H     0.90767   0.67849   0.21754   0.00000  Uiso   1.00
O268   O     0.90100   0.91147   0.88435   0.00000  Uiso   1.00
O269   O     0.13516   0.41787   0.17417   0.00000  Uiso   1.00
O270   O     0.51960   0.17109   0.36207   0.00000  Uiso   1.00
N271   N     0.92569   0.90584   0.00726   0.00000  Uiso   1.00
N272   N     0.23624   0.41040   0.21378   0.00000  Uiso   1.00
N273   N     0.51018   0.23455   0.34769   0.00000  Uiso   1.00
N274   N     0.84814   0.87225   0.90851   0.00000  Uiso   1.00
N275   N     0.15869   0.37681   0.11502   0.00000  Uiso   1.00
N276   N     0.43263   0.20096   0.24893   0.00000  Uiso   1.00
C277   C     0.20971   0.12785   0.35425   0.00000  Uiso   1.00
C278   C     0.20840   0.12148   0.42176   0.00000  Uiso   1.00
C279   C     0.18696   0.09004   0.43338   0.00000  Uiso   1.00
C280   C     0.18965   0.08957   0.49867   0.00000  Uiso   1.00
C281   C     0.68403   0.57513   0.59560   0.00000  Uiso   1.00
C282   C     0.17171   0.16275   0.31256   0.00000  Uiso   1.00
C283   C     0.11943   0.16601   0.23236   0.00000  Uiso   1.00
C284   C     0.09124   0.20029   0.20573   0.00000  Uiso   1.00
C285   C     0.02869   0.24993   0.13312   0.00000  Uiso   1.00
C286   C     0.27844   0.13706   0.39373   0.00000  Uiso   1.00
C287   C     0.31589   0.11873   0.38176   0.00000  Uiso   1.00
C288   C     0.37756   0.13138   0.42345   0.00000  Uiso   1.00
C289   C     0.48071   0.14114   0.47685   0.00000  Uiso   1.00
C290   C     0.25262   0.18292   0.44955   0.00000  Uiso   1.00
C291   C     0.23170   0.15139   0.47352   0.00000  Uiso   1.00
C292   C     0.73443   0.65097   0.53881   0.00000  Uiso   1.00
C293   C     0.71300   0.61953   0.55053   0.00000  Uiso   1.00
C294   C     0.19501   0.19266   0.36432   0.00000  Uiso   1.00
C295   C     0.16690   0.22694   0.33780   0.00000  Uiso   1.00
C296   C     0.11459   0.23025   0.25759   0.00000  Uiso   1.00
C297   C     0.30174   0.16697   0.44549   0.00000  Uiso   1.00
C298   C     0.36336   0.17966   0.48720   0.00000  Uiso   1.00
C299   C     0.40090   0.16135   0.47530   0.00000  Uiso   1.00
H300   H     0.19157   0.10456   0.31395   0.00000  Uiso   1.00
H301   H     0.16892   0.06690   0.39330   0.00000  Uiso   1.00
H302   H     0.10141   0.14286   0.19232   0.00000  Uiso   1.00
H303   H     0.29784   0.09558   0.34170   0.00000  Uiso   1.00
H304   H     0.15406   0.03833   0.50409   0.00000  Uiso   1.00
H305   H     0.01173   0.19851   0.08031   0.00000  Uiso   1.00
H306   H     0.42594   0.09882   0.39529   0.00000  Uiso   1.00
H307   H     0.27077   0.20621   0.48985   0.00000  Uiso   1.00
H308   H     0.75247   0.67412   0.57886   0.00000  Uiso   1.00
H309   H     0.18495   0.25008   0.37788   0.00000  Uiso   1.00
H310   H     0.38138   0.20281   0.52725   0.00000  Uiso   1.00
H311   H     0.72187   0.62536   0.65470   0.00000  Uiso   1.00
H312   H     0.07954   0.28554   0.23091   0.00000  Uiso   1.00
H313   H     0.49375   0.18584   0.54590   0.00000  Uiso   1.00
O314   O     0.67448   0.55890   0.63476   0.00000  Uiso   1.00
O315   O     0.98775   0.26905   0.07877   0.00000  Uiso   1.00
O316   O     0.53118   0.13826   0.49202   0.00000  Uiso   1.00
N317   N     0.17255   0.06321   0.52733   0.00000  Uiso   1.00
N318   N     0.03946   0.21297   0.13112   0.00000  Uiso   1.00
N319   N     0.42671   0.11977   0.42559   0.00000  Uiso   1.00
N320   N     0.70903   0.61004   0.60837   0.00000  Uiso   1.00
N321   N     0.07595   0.25980   0.21216   0.00000  Uiso   1.00
N322   N     0.46320   0.16660   0.50663   0.00000  Uiso   1.00
C323   C     0.68843   0.02282   0.03281   0.00000  Uiso   1.00
C324   C     0.70220   0.01975   0.11184   0.00000  Uiso   1.00
C325   C     0.25857   0.52958   0.18563   0.00000  Uiso   1.00
C326   C     0.26177   0.52466   0.25078   0.00000  Uiso   1.00
C327   C     0.79097   0.02203   0.37477   0.00000  Uiso   1.00
C328   C     0.66959   0.98453   0.99678   0.00000  Uiso   1.00
C329   C     0.69853   0.96474   0.97383   0.00000  Uiso   1.00
C330   C     0.67427   0.93018   0.94212   0.00000  Uiso   1.00
C331   C     0.65282   0.87288   0.88744   0.00000  Uiso   1.00
C332   C     0.62871   0.04622   0.97919   0.00000  Uiso   1.00
C333   C     0.62327   0.07831   0.94142   0.00000  Uiso   1.00
C334   C     0.56459   0.09568   0.89488   0.00000  Uiso   1.00
C335   C     0.97966   0.63418   0.81287   0.00000  Uiso   1.00
C336   C     0.59388   0.99661   0.01729   0.00000  Uiso   1.00
C337   C     0.15084   0.50551   0.10340   0.00000  Uiso   1.00
C338   C     0.65395   0.00058   0.16846   0.00000  Uiso   1.00
C339   C     0.71032   0.01040   0.24234   0.00000  Uiso   1.00
C340   C     0.61823   0.97029   0.98835   0.00000  Uiso   1.00
C341   C     0.59392   0.93575   0.95666   0.00000  Uiso   1.00
C342   C     0.62282   0.91591   0.93368   0.00000  Uiso   1.00
C343   C     0.57735   0.03199   0.97076   0.00000  Uiso   1.00
C344   C     0.01866   0.54931   0.92426   0.00000  Uiso   1.00
C345   C     0.01314   0.58142   0.88643   0.00000  Uiso   1.00
H346   H     0.72842   0.03390   0.03937   0.00000  Uiso   1.00
H347   H     0.79830   0.04059   0.19213   0.00000  Uiso   1.00
H348   H     0.73827   0.97577   0.98036   0.00000  Uiso   1.00
H349   H     0.66303   0.08932   0.94796   0.00000  Uiso   1.00
H350   H     0.35315   0.54171   0.35777   0.00000  Uiso   1.00
H351   H     0.72656   0.90504   0.91122   0.00000  Uiso   1.00
H352   H     0.56789   0.14448   0.84289   0.00000  Uiso   1.00
H353   H     0.55389   0.98553   0.01073   0.00000  Uiso   1.00
H354   H     0.61420   0.98956   0.16192   0.00000  Uiso   1.00
H355   H     0.55418   0.92474   0.95015   0.00000  Uiso   1.00
H356   H     0.97893   0.53828   0.91775   0.00000  Uiso   1.00
H357   H     0.70373   0.00029   0.33325   0.00000  Uiso   1.00
H358   H     0.57714   0.86362   0.88669   0.00000  Uiso   1.00
H359   H     0.91846   0.60306   0.81837   0.00000  Uiso   1.00
O360   O     0.82127   0.02452   0.44549   0.00000  Uiso   1.00
O361   O     0.65518   0.84521   0.85961   0.00000  Uiso   1.00
O362   O     0.94701   0.65935   0.76997   0.00000  Uiso   1.00
N363   N     0.30970   0.53142   0.33125   0.00000  Uiso   1.00
N364   N     0.69135   0.90363   0.91376   0.00000  Uiso   1.00
N365   N     0.54300   0.12748   0.84986   0.00000  Uiso   1.00
N366   N     0.72930   0.00913   0.31806   0.00000  Uiso   1.00
N367   N     0.61095   0.88135   0.90057   0.00000  Uiso   1.00
N368   N     0.96260   0.60520   0.83667   0.00000  Uiso   1.00
C369   C     0.10245   0.85321   0.30175   0.00000  Uiso   1.00
C370   C     0.11364   0.85950   0.37851   0.00000  Uiso   1.00
C371   C     0.07986   0.88351   0.38805   0.00000  Uiso   1.00
C372   C     0.09738   0.88530   0.46300   0.00000  Uiso   1.00
C373   C     0.60724   0.39834   0.57261   0.00000  Uiso   1.00
C374   C     0.16586   0.86077   0.32161   0.00000  Uiso   1.00
C375   C     0.17597   0.88583   0.28329   0.00000  Uiso   1.00
C376   C     0.23746   0.88868   0.31032   0.00000  Uiso   1.00
C377   C     0.32838   0.90367   0.33155   0.00000  Uiso   1.00
C378   C     0.09035   0.81230   0.28470   0.00000  Uiso   1.00
C379   C     0.03699   0.79661   0.21535   0.00000  Uiso   1.00
C380   C     0.03492   0.75866   0.21131   0.00000  Uiso   1.00
C381   C     0.00860   0.69840   0.17524   0.00000  Uiso   1.00
C382   C     0.19365   0.81371   0.41788   0.00000  Uiso   1.00
C383   C     0.16318   0.83805   0.44159   0.00000  Uiso   1.00
C384   C     0.18076   0.83980   0.51654   0.00000  Uiso   1.00
C385   C     0.64700   0.36380   0.52619   0.00000  Uiso   1.00
C386   C     0.21539   0.83931   0.38468   0.00000  Uiso   1.00
C387   C     0.27687   0.84213   0.41178   0.00000  Uiso   1.00
C388   C     0.28708   0.86719   0.37352   0.00000  Uiso   1.00
C389   C     0.13989   0.79085   0.34778   0.00000  Uiso   1.00
C390   C     0.13789   0.75291   0.34385   0.00000  Uiso   1.00
C391   C     0.08454   0.73717   0.27450   0.00000  Uiso   1.00
H392   H     0.06389   0.86992   0.25264   0.00000  Uiso   1.00
H393   H     0.04153   0.90011   0.33922   0.00000  Uiso   1.00
H394   H     0.13763   0.90243   0.23447   0.00000  Uiso   1.00
H395   H     0.99867   0.81322   0.16655   0.00000  Uiso   1.00
H396   H     0.03860   0.92413   0.46305   0.00000  Uiso   1.00
H397   H     0.24123   0.92901   0.24215   0.00000  Uiso   1.00
H398   H     0.94821   0.74091   0.09893   0.00000  Uiso   1.00
H399   H     0.23222   0.79701   0.46699   0.00000  Uiso   1.00
H400   H     0.71909   0.32320   0.56534   0.00000  Uiso   1.00
H401   H     0.31519   0.82552   0.46059   0.00000  Uiso   1.00
H402   H     0.17623   0.73632   0.39267   0.00000  Uiso   1.00
H403   H     0.68272   0.36171   0.64658   0.00000  Uiso   1.00
H404   H     0.38535   0.86658   0.42568   0.00000  Uiso   1.00
H405   H     0.59233   0.17849   0.28246   0.00000  Uiso   1.00
O406   O     0.59900   0.41147   0.61565   0.00000  Uiso   1.00
O407   O     0.36484   0.91787   0.32583   0.00000  Uiso   1.00
O408   O     0.98040   0.67109   0.13793   0.00000  Uiso   1.00
N409   N     0.57431   0.40584   0.49274   0.00000  Uiso   1.00
N410   N     0.26376   0.91040   0.28622   0.00000  Uiso   1.00
N411   N     0.98982   0.73455   0.15231   0.00000  Uiso   1.00
N412   N     0.65186   0.37225   0.59149   0.00000  Uiso   1.00
N413   N     0.34131   0.87681   0.38498   0.00000  Uiso   1.00
N414   N     0.06737   0.70096   0.25107   0.00000  Uiso   1.00
C415   C     0.70971   0.62785   0.35425   0.00000  Uiso   1.00
C416   C     0.70840   0.62148   0.42176   0.00000  Uiso   1.00
C417   C     0.68696   0.59004   0.43338   0.00000  Uiso   1.00
C418   C     0.68965   0.58957   0.49867   0.00000  Uiso   1.00
C419   C     0.18403   0.07513   0.59560   0.00000  Uiso   1.00
C420   C     0.67171   0.66275   0.31256   0.00000  Uiso   1.00
C421   C     0.61943   0.66601   0.23236   0.00000  Uiso   1.00
C422   C     0.59124   0.70029   0.20573   0.00000  Uiso   1.00
C423   C     0.52869   0.74993   0.13312   0.00000  Uiso   1.00
C424   C     0.77844   0.63706   0.39373   0.00000  Uiso   1.00
C425   C     0.81589   0.61873   0.38176   0.00000  Uiso   1.00
C426   C     0.87756   0.63138   0.42345   0.00000  Uiso   1.00
C427   C     0.98071   0.64114   0.47685   0.00000  Uiso   1.00
C428   C     0.75262   0.68292   0.44955   0.00000  Uiso   1.00
C429   C     0.73170   0.65139   0.47352   0.00000  Uiso   1.00
C430   C     0.23443   0.15097   0.53881   0.00000  Uiso   1.00
C431   C     0.21300   0.11953   0.55053   0.00000  Uiso   1.00
C432   C     0.69501   0.69266   0.36432   0.00000  Uiso   1.00
C433   C     0.66690   0.72694   0.33780   0.00000  Uiso   1.00
C434   C     0.61459   0.73025   0.25759   0.00000  Uiso   1.00
C435   C     0.80174   0.66697   0.44549   0.00000  Uiso   1.00
C436   C     0.86336   0.67966   0.48720   0.00000  Uiso   1.00
C437   C     0.90090   0.66135   0.47530   0.00000  Uiso   1.00
H438   H     0.69157   0.60456   0.31395   0.00000  Uiso   1.00
H439   H     0.66892   0.56690   0.39330   0.00000  Uiso   1.00
H440   H     0.60141   0.64286   0.19232   0.00000  Uiso   1.00
H441   H     0.79784   0.59558   0.34170   0.00000  Uiso   1.00
H442   H     0.65406   0.53833   0.50409   0.00000  Uiso   1.00
H443   H     0.51173   0.69851   0.08031   0.00000  Uiso   1.00
H444   H     0.92594   0.59882   0.39529   0.00000  Uiso   1.00
H445   H     0.77077   0.70621   0.48985   0.00000  Uiso   1.00
H446   H     0.25247   0.17412   0.57886   0.00000  Uiso   1.00
H447   H     0.68495   0.75008   0.37788   0.00000  Uiso   1.00
H448   H     0.88138   0.70281   0.52725   0.00000  Uiso   1.00
H449   H     0.22187   0.12536   0.65470   0.00000  Uiso   1.00
H450   H     0.57954   0.78554   0.23091   0.00000  Uiso   1.00
H451   H     0.99375   0.68584   0.54590   0.00000  Uiso   1.00
O452   O     0.17448   0.05890   0.63476   0.00000  Uiso   1.00
O453   O     0.48775   0.76905   0.07877   0.00000  Uiso   1.00
O454   O     0.03118   0.63826   0.49202   0.00000  Uiso   1.00
N455   N     0.67255   0.56321   0.52733   0.00000  Uiso   1.00
N456   N     0.53946   0.71297   0.13112   0.00000  Uiso   1.00
N457   N     0.92671   0.61977   0.42559   0.00000  Uiso   1.00
N458   N     0.20903   0.11004   0.60837   0.00000  Uiso   1.00
N459   N     0.57595   0.75980   0.21216   0.00000  Uiso   1.00
N460   N     0.96320   0.66660   0.50663   0.00000  Uiso   1.00
C461   C     0.18843   0.52282   0.03281   0.00000  Uiso   1.00
C462   C     0.20220   0.51975   0.11184   0.00000  Uiso   1.00
C463   C     0.75857   0.02958   0.18563   0.00000  Uiso   1.00
C464   C     0.76177   0.02466   0.25078   0.00000  Uiso   1.00
C465   C     0.29097   0.52203   0.37477   0.00000  Uiso   1.00
C466   C     0.16959   0.48453   0.99678   0.00000  Uiso   1.00
C467   C     0.19853   0.46474   0.97383   0.00000  Uiso   1.00
C468   C     0.17427   0.43018   0.94212   0.00000  Uiso   1.00
C469   C     0.15282   0.37288   0.88744   0.00000  Uiso   1.00
C470   C     0.12871   0.54622   0.97919   0.00000  Uiso   1.00
C471   C     0.12327   0.57831   0.94142   0.00000  Uiso   1.00
C472   C     0.06459   0.59568   0.89488   0.00000  Uiso   1.00
C473   C     0.47966   0.13418   0.81287   0.00000  Uiso   1.00
C474   C     0.09388   0.49661   0.01729   0.00000  Uiso   1.00
C475   C     0.65084   0.00551   0.10340   0.00000  Uiso   1.00
C476   C     0.15395   0.50058   0.16846   0.00000  Uiso   1.00
C477   C     0.21032   0.51040   0.24234   0.00000  Uiso   1.00
C478   C     0.11823   0.47029   0.98835   0.00000  Uiso   1.00
C479   C     0.09392   0.43575   0.95666   0.00000  Uiso   1.00
C480   C     0.12282   0.41591   0.93368   0.00000  Uiso   1.00
C481   C     0.07735   0.53199   0.97076   0.00000  Uiso   1.00
C482   C     0.51866   0.04931   0.92426   0.00000  Uiso   1.00
C483   C     0.51314   0.08142   0.88643   0.00000  Uiso   1.00
H484   H     0.22842   0.53390   0.03937   0.00000  Uiso   1.00
H485   H     0.29830   0.54059   0.19213   0.00000  Uiso   1.00
H486   H     0.23827   0.47577   0.98036   0.00000  Uiso   1.00
H487   H     0.16303   0.58932   0.94796   0.00000  Uiso   1.00
H488   H     0.85315   0.04171   0.35777   0.00000  Uiso   1.00
H489   H     0.22656   0.40504   0.91122   0.00000  Uiso   1.00
H490   H     0.06789   0.64448   0.84289   0.00000  Uiso   1.00
H491   H     0.05389   0.48553   0.01073   0.00000  Uiso   1.00
H492   H     0.11420   0.48956   0.16192   0.00000  Uiso   1.00
H493   H     0.05418   0.42474   0.95015   0.00000  Uiso   1.00
H494   H     0.47893   0.03828   0.91775   0.00000  Uiso   1.00
H495   H     0.20373   0.50029   0.33325   0.00000  Uiso   1.00
H496   H     0.07714   0.36362   0.88669   0.00000  Uiso   1.00
H497   H     0.41846   0.10306   0.81837   0.00000  Uiso   1.00
O498   O     0.32127   0.52452   0.44549   0.00000  Uiso   1.00
O499   O     0.15518   0.34521   0.85961   0.00000  Uiso   1.00
O500   O     0.44701   0.15935   0.76997   0.00000  Uiso   1.00
N501   N     0.80970   0.03142   0.33125   0.00000  Uiso   1.00
N502   N     0.19135   0.40363   0.91376   0.00000  Uiso   1.00
N503   N     0.04300   0.62748   0.84986   0.00000  Uiso   1.00
N504   N     0.22930   0.50913   0.31806   0.00000  Uiso   1.00
N505   N     0.11095   0.38135   0.90057   0.00000  Uiso   1.00
N506   N     0.46260   0.10520   0.83667   0.00000  Uiso   1.00
C507   C     0.60245   0.35321   0.30175   0.00000  Uiso   1.00
C508   C     0.61364   0.35950   0.37851   0.00000  Uiso   1.00
C509   C     0.57986   0.38351   0.38805   0.00000  Uiso   1.00
C510   C     0.59738   0.38530   0.46300   0.00000  Uiso   1.00
C511   C     0.10724   0.89834   0.57261   0.00000  Uiso   1.00
C512   C     0.66586   0.36077   0.32161   0.00000  Uiso   1.00
C513   C     0.67597   0.38583   0.28329   0.00000  Uiso   1.00
C514   C     0.73746   0.38868   0.31032   0.00000  Uiso   1.00
C515   C     0.82838   0.40367   0.33155   0.00000  Uiso   1.00
C516   C     0.59035   0.31230   0.28470   0.00000  Uiso   1.00
C517   C     0.53699   0.29661   0.21535   0.00000  Uiso   1.00
C518   C     0.53492   0.25866   0.21131   0.00000  Uiso   1.00
C519   C     0.50860   0.19840   0.17524   0.00000  Uiso   1.00
C520   C     0.69365   0.31371   0.41788   0.00000  Uiso   1.00
C521   C     0.66318   0.33805   0.44159   0.00000  Uiso   1.00
C522   C     0.68076   0.33980   0.51654   0.00000  Uiso   1.00
C523   C     0.14700   0.86380   0.52619   0.00000  Uiso   1.00
C524   C     0.71539   0.33931   0.38468   0.00000  Uiso   1.00
C525   C     0.77687   0.34213   0.41178   0.00000  Uiso   1.00
C526   C     0.78708   0.36719   0.37352   0.00000  Uiso   1.00
C527   C     0.63989   0.29085   0.34778   0.00000  Uiso   1.00
C528   C     0.63789   0.25291   0.34385   0.00000  Uiso   1.00
C529   C     0.58454   0.23717   0.27450   0.00000  Uiso   1.00
H530   H     0.56389   0.36992   0.25264   0.00000  Uiso   1.00
H531   H     0.54153   0.40011   0.33922   0.00000  Uiso   1.00
H532   H     0.63763   0.40243   0.23447   0.00000  Uiso   1.00
H533   H     0.49867   0.31322   0.16655   0.00000  Uiso   1.00
H534   H     0.53860   0.42413   0.46305   0.00000  Uiso   1.00
H535   H     0.74123   0.42901   0.24215   0.00000  Uiso   1.00
H536   H     0.44821   0.24091   0.09893   0.00000  Uiso   1.00
H537   H     0.73222   0.29701   0.46699   0.00000  Uiso   1.00
H538   H     0.21909   0.82320   0.56534   0.00000  Uiso   1.00
H539   H     0.81519   0.32552   0.46059   0.00000  Uiso   1.00
H540   H     0.67623   0.23632   0.39267   0.00000  Uiso   1.00
H541   H     0.18272   0.86171   0.64658   0.00000  Uiso   1.00
H542   H     0.88535   0.36658   0.42568   0.00000  Uiso   1.00
H543   H     0.09233   0.67849   0.28246   0.00000  Uiso   1.00
O544   O     0.09900   0.91147   0.61565   0.00000  Uiso   1.00
O545   O     0.86484   0.41787   0.32583   0.00000  Uiso   1.00
O546   O     0.48040   0.17109   0.13793   0.00000  Uiso   1.00
N547   N     0.07431   0.90584   0.49274   0.00000  Uiso   1.00
N548   N     0.76376   0.41040   0.28622   0.00000  Uiso   1.00
N549   N     0.48982   0.23455   0.15231   0.00000  Uiso   1.00
N550   N     0.15186   0.87225   0.59149   0.00000  Uiso   1.00
N551   N     0.84131   0.37681   0.38498   0.00000  Uiso   1.00
N552   N     0.56737   0.20096   0.25107   0.00000  Uiso   1.00
C553   C     0.20971   0.87215   0.85425   0.00000  Uiso   1.00
C554   C     0.20840   0.87852   0.92176   0.00000  Uiso   1.00
C555   C     0.18696   0.90996   0.93338   0.00000  Uiso   1.00
C556   C     0.18965   0.91043   0.99867   0.00000  Uiso   1.00
C557   C     0.68403   0.42487   0.09560   0.00000  Uiso   1.00
C558   C     0.17171   0.83725   0.81256   0.00000  Uiso   1.00
C559   C     0.11943   0.83399   0.73236   0.00000  Uiso   1.00
C560   C     0.09124   0.79971   0.70573   0.00000  Uiso   1.00
C561   C     0.02869   0.75007   0.63312   0.00000  Uiso   1.00
C562   C     0.27844   0.86294   0.89373   0.00000  Uiso   1.00
C563   C     0.31589   0.88127   0.88176   0.00000  Uiso   1.00
C564   C     0.37756   0.86862   0.92345   0.00000  Uiso   1.00
C565   C     0.48071   0.85886   0.97685   0.00000  Uiso   1.00
C566   C     0.25262   0.81708   0.94955   0.00000  Uiso   1.00
C567   C     0.23170   0.84861   0.97352   0.00000  Uiso   1.00
C568   C     0.73443   0.34903   0.03881   0.00000  Uiso   1.00
C569   C     0.71300   0.38047   0.05053   0.00000  Uiso   1.00
C570   C     0.19501   0.80734   0.86432   0.00000  Uiso   1.00
C571   C     0.16690   0.77306   0.83780   0.00000  Uiso   1.00
C572   C     0.11459   0.76975   0.75759   0.00000  Uiso   1.00
C573   C     0.30174   0.83303   0.94549   0.00000  Uiso   1.00
C574   C     0.36336   0.82034   0.98720   0.00000  Uiso   1.00
C575   C     0.40090   0.83865   0.97530   0.00000  Uiso   1.00
H576   H     0.19157   0.89544   0.81395   0.00000  Uiso   1.00
H577   H     0.16892   0.93310   0.89330   0.00000  Uiso   1.00
H578   H     0.10141   0.85714   0.69232   0.00000  Uiso   1.00
H579   H     0.29784   0.90442   0.84170   0.00000  Uiso   1.00
H580   H     0.15406   0.96167   0.00409   0.00000  Uiso   1.00
H581   H     0.01173   0.80149   0.58031   0.00000  Uiso   1.00
H582   H     0.42594   0.90118   0.89529   0.00000  Uiso   1.00
H583   H     0.27077   0.79379   0.98985   0.00000  Uiso   1.00
H584   H     0.75247   0.32588   0.07886   0.00000  Uiso   1.00
H585   H     0.18495   0.74992   0.87788   0.00000  Uiso   1.00
H586   H     0.38138   0.79719   0.02725   0.00000  Uiso   1.00
H587   H     0.72187   0.37464   0.15470   0.00000  Uiso   1.00
H588   H     0.07954   0.71446   0.73091   0.00000  Uiso   1.00
H589   H     0.49375   0.81416   0.04590   0.00000  Uiso   1.00
O590   O     0.67448   0.44110   0.13476   0.00000  Uiso   1.00
O591   O     0.98775   0.73095   0.57877   0.00000  Uiso   1.00
O592   O     0.53118   0.86174   0.99202   0.00000  Uiso   1.00
N593   N     0.17255   0.93679   0.02733   0.00000  Uiso   1.00
N594   N     0.03946   0.78703   0.63112   0.00000  Uiso   1.00
N595   N     0.42671   0.88023   0.92559   0.00000  Uiso   1.00
N596   N     0.70903   0.38996   0.10837   0.00000  Uiso   1.00
N597   N     0.07595   0.74020   0.71216   0.00000  Uiso   1.00
N598   N     0.46320   0.83340   0.00663   0.00000  Uiso   1.00
C599   C     0.68843   0.97718   0.53281   0.00000  Uiso   1.00
C600   C     0.70220   0.98025   0.61184   0.00000  Uiso   1.00
C601   C     0.25857   0.47042   0.68563   0.00000  Uiso   1.00
C602   C     0.26177   0.47534   0.75078   0.00000  Uiso   1.00
C603   C     0.79097   0.97797   0.87477   0.00000  Uiso   1.00
C604   C     0.66959   0.01547   0.49678   0.00000  Uiso   1.00
C605   C     0.69853   0.03526   0.47383   0.00000  Uiso   1.00
C606   C     0.67427   0.06982   0.44212   0.00000  Uiso   1.00
C607   C     0.65282   0.12712   0.38744   0.00000  Uiso   1.00
C608   C     0.62871   0.95378   0.47919   0.00000  Uiso   1.00
C609   C     0.62327   0.92169   0.44142   0.00000  Uiso   1.00
C610   C     0.56459   0.90432   0.39488   0.00000  Uiso   1.00
C611   C     0.97966   0.36582   0.31287   0.00000  Uiso   1.00
C612   C     0.59388   0.00339   0.51729   0.00000  Uiso   1.00
C613   C     0.15084   0.49449   0.60340   0.00000  Uiso   1.00
C614   C     0.65395   0.99942   0.66846   0.00000  Uiso   1.00
C615   C     0.71032   0.98960   0.74234   0.00000  Uiso   1.00
C616   C     0.61823   0.02971   0.48835   0.00000  Uiso   1.00
C617   C     0.59392   0.06425   0.45666   0.00000  Uiso   1.00
C618   C     0.62282   0.08409   0.43368   0.00000  Uiso   1.00
C619   C     0.57735   0.96801   0.47076   0.00000  Uiso   1.00
C620   C     0.01866   0.45069   0.42426   0.00000  Uiso   1.00
C621   C     0.01314   0.41858   0.38643   0.00000  Uiso   1.00
H622   H     0.72842   0.96610   0.53937   0.00000  Uiso   1.00
H623   H     0.79830   0.95941   0.69213   0.00000  Uiso   1.00
H624   H     0.73827   0.02423   0.48036   0.00000  Uiso   1.00
H625   H     0.66303   0.91068   0.44796   0.00000  Uiso   1.00
H626   H     0.35315   0.45829   0.85777   0.00000  Uiso   1.00
H627   H     0.72656   0.09496   0.41122   0.00000  Uiso   1.00
H628   H     0.56789   0.85552   0.34289   0.00000  Uiso   1.00
H629   H     0.55389   0.01447   0.51073   0.00000  Uiso   1.00
H630   H     0.61420   0.01044   0.66192   0.00000  Uiso   1.00
H631   H     0.55418   0.07526   0.45015   0.00000  Uiso   1.00
H632   H     0.97893   0.46172   0.41775   0.00000  Uiso   1.00
H633   H     0.70373   0.99971   0.83325   0.00000  Uiso   1.00
H634   H     0.57714   0.13638   0.38669   0.00000  Uiso   1.00
H635   H     0.91846   0.39694   0.31837   0.00000  Uiso   1.00
O636   O     0.82127   0.97548   0.94549   0.00000  Uiso   1.00
O637   O     0.65518   0.15479   0.35961   0.00000  Uiso   1.00
O638   O     0.94701   0.34065   0.26997   0.00000  Uiso   1.00
N639   N     0.30970   0.46858   0.83125   0.00000  Uiso   1.00
N640   N     0.69135   0.09637   0.41376   0.00000  Uiso   1.00
N641   N     0.54300   0.87252   0.34986   0.00000  Uiso   1.00
N642   N     0.72930   0.99087   0.81806   0.00000  Uiso   1.00
N643   N     0.61095   0.11865   0.40057   0.00000  Uiso   1.00
N644   N     0.96260   0.39480   0.33667   0.00000  Uiso   1.00
C645   C     0.10245   0.14679   0.80175   0.00000  Uiso   1.00
C646   C     0.11364   0.14050   0.87851   0.00000  Uiso   1.00
C647   C     0.07986   0.11649   0.88805   0.00000  Uiso   1.00
C648   C     0.09738   0.11470   0.96300   0.00000  Uiso   1.00
C649   C     0.60724   0.60166   0.07261   0.00000  Uiso   1.00
C650   C     0.16586   0.13923   0.82161   0.00000  Uiso   1.00
C651   C     0.17597   0.11417   0.78329   0.00000  Uiso   1.00
C652   C     0.23746   0.11132   0.81032   0.00000  Uiso   1.00
C653   C     0.32838   0.09633   0.83155   0.00000  Uiso   1.00
C654   C     0.09035   0.18770   0.78470   0.00000  Uiso   1.00
C655   C     0.03699   0.20339   0.71535   0.00000  Uiso   1.00
C656   C     0.03492   0.24134   0.71131   0.00000  Uiso   1.00
C657   C     0.00860   0.30160   0.67524   0.00000  Uiso   1.00
C658   C     0.19365   0.18629   0.91788   0.00000  Uiso   1.00
C659   C     0.16318   0.16195   0.94159   0.00000  Uiso   1.00
C660   C     0.18076   0.16020   0.01654   0.00000  Uiso   1.00
C661   C     0.64700   0.63620   0.02619   0.00000  Uiso   1.00
C662   C     0.21539   0.16069   0.88468   0.00000  Uiso   1.00
C663   C     0.27687   0.15787   0.91178   0.00000  Uiso   1.00
C664   C     0.28708   0.13281   0.87352   0.00000  Uiso   1.00
C665   C     0.13989   0.20915   0.84778   0.00000  Uiso   1.00
C666   C     0.13789   0.24709   0.84385   0.00000  Uiso   1.00
C667   C     0.08454   0.26283   0.77450   0.00000  Uiso   1.00
H668   H     0.06389   0.13008   0.75264   0.00000  Uiso   1.00
H669   H     0.04153   0.09989   0.83922   0.00000  Uiso   1.00
H670   H     0.13763   0.09757   0.73447   0.00000  Uiso   1.00
H671   H     0.99867   0.18678   0.66655   0.00000  Uiso   1.00
H672   H     0.03860   0.07587   0.96305   0.00000  Uiso   1.00
H673   H     0.24123   0.07099   0.74215   0.00000  Uiso   1.00
H674   H     0.94821   0.25909   0.59893   0.00000  Uiso   1.00
H675   H     0.23222   0.20299   0.96699   0.00000  Uiso   1.00
H676   H     0.71909   0.67680   0.06534   0.00000  Uiso   1.00
H677   H     0.31519   0.17448   0.96059   0.00000  Uiso   1.00
H678   H     0.17623   0.26368   0.89267   0.00000  Uiso   1.00
H679   H     0.68272   0.63829   0.14658   0.00000  Uiso   1.00
H680   H     0.38535   0.13342   0.92568   0.00000  Uiso   1.00
H681   H     0.59233   0.82151   0.78246   0.00000  Uiso   1.00
O682   O     0.59900   0.58853   0.11565   0.00000  Uiso   1.00
O683   O     0.36484   0.08213   0.82583   0.00000  Uiso   1.00
O684   O     0.98040   0.32891   0.63793   0.00000  Uiso   1.00
N685   N     0.57431   0.59416   0.99274   0.00000  Uiso   1.00
N686   N     0.26376   0.08960   0.78622   0.00000  Uiso   1.00
N687   N     0.98982   0.26545   0.65231   0.00000  Uiso   1.00
N688   N     0.65186   0.62775   0.09149   0.00000  Uiso   1.00
N689   N     0.34131   0.12319   0.88498   0.00000  Uiso   1.00
N690   N     0.06737   0.29904   0.75107   0.00000  Uiso   1.00
C691   C     0.70971   0.37215   0.85425   0.00000  Uiso   1.00
C692   C     0.70840   0.37852   0.92176   0.00000  Uiso   1.00
C693   C     0.68696   0.40996   0.93338   0.00000  Uiso   1.00
C694   C     0.68965   0.41043   0.99867   0.00000  Uiso   1.00
C695   C     0.18403   0.92487   0.09560   0.00000  Uiso   1.00
C696   C     0.67171   0.33725   0.81256   0.00000  Uiso   1.00
C697   C     0.61943   0.33399   0.73236   0.00000  Uiso   1.00
C698   C     0.59124   0.29971   0.70573   0.00000  Uiso   1.00
C699   C     0.52869   0.25007   0.63312   0.00000  Uiso   1.00
C700   C     0.77844   0.36294   0.89373   0.00000  Uiso   1.00
C701   C     0.81589   0.38127   0.88176   0.00000  Uiso   1.00
C702   C     0.87756   0.36862   0.92345   0.00000  Uiso   1.00
C703   C     0.98071   0.35886   0.97685   0.00000  Uiso   1.00
C704   C     0.75262   0.31708   0.94955   0.00000  Uiso   1.00
C705   C     0.73170   0.34861   0.97352   0.00000  Uiso   1.00
C706   C     0.23443   0.84903   0.03881   0.00000  Uiso   1.00
C707   C     0.21300   0.88047   0.05053   0.00000  Uiso   1.00
C708   C     0.69501   0.30734   0.86432   0.00000  Uiso   1.00
C709   C     0.66690   0.27306   0.83780   0.00000  Uiso   1.00
C710   C     0.61459   0.26975   0.75759   0.00000  Uiso   1.00
C711   C     0.80174   0.33303   0.94549   0.00000  Uiso   1.00
C712   C     0.86336   0.32034   0.98720   0.00000  Uiso   1.00
C713   C     0.90090   0.33865   0.97530   0.00000  Uiso   1.00
H714   H     0.69157   0.39544   0.81395   0.00000  Uiso   1.00
H715   H     0.66892   0.43310   0.89330   0.00000  Uiso   1.00
H716   H     0.60141   0.35714   0.69232   0.00000  Uiso   1.00
H717   H     0.79784   0.40442   0.84170   0.00000  Uiso   1.00
H718   H     0.65406   0.46167   0.00409   0.00000  Uiso   1.00
H719   H     0.51173   0.30149   0.58031   0.00000  Uiso   1.00
H720   H     0.92594   0.40118   0.89529   0.00000  Uiso   1.00
H721   H     0.77077   0.29379   0.98985   0.00000  Uiso   1.00
H722   H     0.25247   0.82588   0.07886   0.00000  Uiso   1.00
H723   H     0.68495   0.24992   0.87788   0.00000  Uiso   1.00
H724   H     0.88138   0.29719   0.02725   0.00000  Uiso   1.00
H725   H     0.22187   0.87464   0.15470   0.00000  Uiso   1.00
H726   H     0.57954   0.21446   0.73091   0.00000  Uiso   1.00
H727   H     0.99375   0.31416   0.04590   0.00000  Uiso   1.00
O728   O     0.17448   0.94110   0.13476   0.00000  Uiso   1.00
O729   O     0.48775   0.23095   0.57877   0.00000  Uiso   1.00
O730   O     0.03118   0.36174   0.99202   0.00000  Uiso   1.00
N731   N     0.67255   0.43679   0.02733   0.00000  Uiso   1.00
N732   N     0.53946   0.28703   0.63112   0.00000  Uiso   1.00
N733   N     0.92671   0.38023   0.92559   0.00000  Uiso   1.00
N734   N     0.20903   0.88996   0.10837   0.00000  Uiso   1.00
N735   N     0.57595   0.24020   0.71216   0.00000  Uiso   1.00
N736   N     0.96320   0.33340   0.00663   0.00000  Uiso   1.00
C737   C     0.18843   0.47718   0.53281   0.00000  Uiso   1.00
C738   C     0.20220   0.48025   0.61184   0.00000  Uiso   1.00
C739   C     0.75857   0.97042   0.68563   0.00000  Uiso   1.00
C740   C     0.76177   0.97534   0.75078   0.00000  Uiso   1.00
C741   C     0.29097   0.47797   0.87477   0.00000  Uiso   1.00
C742   C     0.16959   0.51547   0.49678   0.00000  Uiso   1.00
C743   C     0.19853   0.53526   0.47383   0.00000  Uiso   1.00
C744   C     0.17427   0.56982   0.44212   0.00000  Uiso   1.00
C745   C     0.15282   0.62712   0.38744   0.00000  Uiso   1.00
C746   C     0.12871   0.45378   0.47919   0.00000  Uiso   1.00
C747   C     0.12327   0.42169   0.44142   0.00000  Uiso   1.00
C748   C     0.06459   0.40432   0.39488   0.00000  Uiso   1.00
C749   C     0.47966   0.86582   0.31287   0.00000  Uiso   1.00
C750   C     0.09388   0.50339   0.51729   0.00000  Uiso   1.00
C751   C     0.65084   0.99449   0.60340   0.00000  Uiso   1.00
C752   C     0.15395   0.49942   0.66846   0.00000  Uiso   1.00
C753   C     0.21032   0.48960   0.74234   0.00000  Uiso   1.00
C754   C     0.11823   0.52971   0.48835   0.00000  Uiso   1.00
C755   C     0.09392   0.56425   0.45666   0.00000  Uiso   1.00
C756   C     0.12282   0.58409   0.43368   0.00000  Uiso   1.00
C757   C     0.07735   0.46801   0.47076   0.00000  Uiso   1.00
C758   C     0.51866   0.95069   0.42426   0.00000  Uiso   1.00
C759   C     0.51314   0.91858   0.38643   0.00000  Uiso   1.00
H760   H     0.22842   0.46610   0.53937   0.00000  Uiso   1.00
H761   H     0.29830   0.45941   0.69213   0.00000  Uiso   1.00
H762   H     0.23827   0.52423   0.48036   0.00000  Uiso   1.00
H763   H     0.16303   0.41068   0.44796   0.00000  Uiso   1.00
H764   H     0.85315   0.95829   0.85777   0.00000  Uiso   1.00
H765   H     0.22656   0.59496   0.41122   0.00000  Uiso   1.00
H766   H     0.06789   0.35552   0.34289   0.00000  Uiso   1.00
H767   H     0.05389   0.51447   0.51073   0.00000  Uiso   1.00
H768   H     0.11420   0.51044   0.66192   0.00000  Uiso   1.00
H769   H     0.05418   0.57526   0.45015   0.00000  Uiso   1.00
H770   H     0.47893   0.96172   0.41775   0.00000  Uiso   1.00
H771   H     0.20373   0.49971   0.83325   0.00000  Uiso   1.00
H772   H     0.07714   0.63638   0.38669   0.00000  Uiso   1.00
H773   H     0.41846   0.89694   0.31837   0.00000  Uiso   1.00
O774   O     0.32127   0.47548   0.94549   0.00000  Uiso   1.00
O775   O     0.15518   0.65479   0.35961   0.00000  Uiso   1.00
O776   O     0.44701   0.84065   0.26997   0.00000  Uiso   1.00
N777   N     0.80970   0.96858   0.83125   0.00000  Uiso   1.00
N778   N     0.19135   0.59637   0.41376   0.00000  Uiso   1.00
N779   N     0.04300   0.37252   0.34986   0.00000  Uiso   1.00
N780   N     0.22930   0.49087   0.81806   0.00000  Uiso   1.00
N781   N     0.11095   0.61865   0.40057   0.00000  Uiso   1.00
N782   N     0.46260   0.89480   0.33667   0.00000  Uiso   1.00
C783   C     0.60245   0.64679   0.80175   0.00000  Uiso   1.00
C784   C     0.61364   0.64050   0.87851   0.00000  Uiso   1.00
C785   C     0.57986   0.61649   0.88805   0.00000  Uiso   1.00
C786   C     0.59738   0.61470   0.96300   0.00000  Uiso   1.00
C787   C     0.10724   0.10166   0.07261   0.00000  Uiso   1.00
C788   C     0.66586   0.63923   0.82161   0.00000  Uiso   1.00
C789   C     0.67597   0.61417   0.78329   0.00000  Uiso   1.00
C790   C     0.73746   0.61132   0.81032   0.00000  Uiso   1.00
C791   C     0.82838   0.59633   0.83155   0.00000  Uiso   1.00
C792   C     0.59035   0.68770   0.78470   0.00000  Uiso   1.00
C793   C     0.53699   0.70339   0.71535   0.00000  Uiso   1.00
C794   C     0.53492   0.74134   0.71131   0.00000  Uiso   1.00
C795   C     0.50860   0.80160   0.67524   0.00000  Uiso   1.00
C796   C     0.69365   0.68629   0.91788   0.00000  Uiso   1.00
C797   C     0.66318   0.66195   0.94159   0.00000  Uiso   1.00
C798   C     0.68076   0.66020   0.01654   0.00000  Uiso   1.00
C799   C     0.14700   0.13620   0.02619   0.00000  Uiso   1.00
C800   C     0.71539   0.66069   0.88468   0.00000  Uiso   1.00
C801   C     0.77687   0.65787   0.91178   0.00000  Uiso   1.00
C802   C     0.78708   0.63281   0.87352   0.00000  Uiso   1.00
C803   C     0.63989   0.70915   0.84778   0.00000  Uiso   1.00
C804   C     0.63789   0.74709   0.84385   0.00000  Uiso   1.00
C805   C     0.58454   0.76283   0.77450   0.00000  Uiso   1.00
H806   H     0.56389   0.63008   0.75264   0.00000  Uiso   1.00
H807   H     0.54153   0.59989   0.83922   0.00000  Uiso   1.00
H808   H     0.63763   0.59757   0.73447   0.00000  Uiso   1.00
H809   H     0.49867   0.68678   0.66655   0.00000  Uiso   1.00
H810   H     0.53860   0.57587   0.96305   0.00000  Uiso   1.00
H811   H     0.74123   0.57099   0.74215   0.00000  Uiso   1.00
H812   H     0.44821   0.75909   0.59893   0.00000  Uiso   1.00
H813   H     0.73222   0.70299   0.96699   0.00000  Uiso   1.00
H814   H     0.21909   0.17680   0.06534   0.00000  Uiso   1.00
H815   H     0.81519   0.67448   0.96059   0.00000  Uiso   1.00
H816   H     0.67623   0.76368   0.89267   0.00000  Uiso   1.00
H817   H     0.18272   0.13829   0.14658   0.00000  Uiso   1.00
H818   H     0.88535   0.63342   0.92568   0.00000  Uiso   1.00
H819   H     0.09233   0.32151   0.78246   0.00000  Uiso   1.00
O820   O     0.09900   0.08853   0.11565   0.00000  Uiso   1.00
O821   O     0.86484   0.58213   0.82583   0.00000  Uiso   1.00
O822   O     0.48040   0.82891   0.63793   0.00000  Uiso   1.00
N823   N     0.07431   0.09416   0.99274   0.00000  Uiso   1.00
N824   N     0.76376   0.58960   0.78622   0.00000  Uiso   1.00
N825   N     0.48982   0.76545   0.65231   0.00000  Uiso   1.00
N826   N     0.15186   0.12775   0.09149   0.00000  Uiso   1.00
N827   N     0.84131   0.62319   0.88498   0.00000  Uiso   1.00
N828   N     0.56737   0.79904   0.75107   0.00000  Uiso   1.00
C829   C     0.79029   0.87215   0.64575   0.00000  Uiso   1.00
C830   C     0.79160   0.87852   0.57824   0.00000  Uiso   1.00
C831   C     0.81304   0.90996   0.56662   0.00000  Uiso   1.00
C832   C     0.81035   0.91043   0.50133   0.00000  Uiso   1.00
C833   C     0.31597   0.42487   0.40440   0.00000  Uiso   1.00
C834   C     0.82829   0.83725   0.68744   0.00000  Uiso   1.00
C835   C     0.88057   0.83399   0.76764   0.00000  Uiso   1.00
C836   C     0.90876   0.79971   0.79427   0.00000  Uiso   1.00
C837   C     0.97131   0.75007   0.86688   0.00000  Uiso   1.00
C838   C     0.72156   0.86294   0.60627   0.00000  Uiso   1.00
C839   C     0.68411   0.88127   0.61824   0.00000  Uiso   1.00
C840   C     0.62244   0.86862   0.57655   0.00000  Uiso   1.00
C841   C     0.51929   0.85886   0.52315   0.00000  Uiso   1.00
C842   C     0.74738   0.81708   0.55045   0.00000  Uiso   1.00
C843   C     0.76830   0.84861   0.52648   0.00000  Uiso   1.00
C844   C     0.26557   0.34903   0.46119   0.00000  Uiso   1.00
C845   C     0.28700   0.38047   0.44947   0.00000  Uiso   1.00
C846   C     0.80499   0.80734   0.63568   0.00000  Uiso   1.00
C847   C     0.83310   0.77306   0.66220   0.00000  Uiso   1.00
C848   C     0.88541   0.76975   0.74241   0.00000  Uiso   1.00
C849   C     0.69826   0.83303   0.55451   0.00000  Uiso   1.00
C850   C     0.63664   0.82034   0.51280   0.00000  Uiso   1.00
C851   C     0.59910   0.83865   0.52470   0.00000  Uiso   1.00
H852   H     0.80843   0.89544   0.68605   0.00000  Uiso   1.00
H853   H     0.83108   0.93310   0.60670   0.00000  Uiso   1.00
H854   H     0.89859   0.85714   0.80768   0.00000  Uiso   1.00
H855   H     0.70216   0.90442   0.65830   0.00000  Uiso   1.00
H856   H     0.84594   0.96167   0.49591   0.00000  Uiso   1.00
H857   H     0.98827   0.80149   0.91969   0.00000  Uiso   1.00
H858   H     0.57406   0.90118   0.60471   0.00000  Uiso   1.00
H859   H     0.72923   0.79379   0.51015   0.00000  Uiso   1.00
H860   H     0.24753   0.32588   0.42114   0.00000  Uiso   1.00
H861   H     0.81505   0.74992   0.62212   0.00000  Uiso   1.00
H862   H     0.61862   0.79719   0.47275   0.00000  Uiso   1.00
H863   H     0.27813   0.37464   0.34530   0.00000  Uiso   1.00
H864   H     0.92046   0.71446   0.76909   0.00000  Uiso   1.00
H865   H     0.50625   0.81416   0.45410   0.00000  Uiso   1.00
O866   O     0.32552   0.44110   0.36524   0.00000  Uiso   1.00
O867   O     0.01225   0.73095   0.92123   0.00000  Uiso   1.00
O868   O     0.46882   0.86174   0.50798   0.00000  Uiso   1.00
N869   N     0.82745   0.93679   0.47267   0.00000  Uiso   1.00
N870   N     0.96054   0.78703   0.86888   0.00000  Uiso   1.00
N871   N     0.57329   0.88023   0.57441   0.00000  Uiso   1.00
N872   N     0.29097   0.38996   0.39163   0.00000  Uiso   1.00
N873   N     0.92405   0.74020   0.78784   0.00000  Uiso   1.00
N874   N     0.53680   0.83340   0.49337   0.00000  Uiso   1.00
C875   C     0.31157   0.97718   0.96719   0.00000  Uiso   1.00
C876   C     0.29780   0.98025   0.88816   0.00000  Uiso   1.00
C877   C     0.74143   0.47042   0.81437   0.00000  Uiso   1.00
C878   C     0.73823   0.47534   0.74922   0.00000  Uiso   1.00
C879   C     0.20903   0.97797   0.62523   0.00000  Uiso   1.00
C880   C     0.33041   0.01547   0.00322   0.00000  Uiso   1.00
C881   C     0.30147   0.03526   0.02617   0.00000  Uiso   1.00
C882   C     0.32573   0.06982   0.05788   0.00000  Uiso   1.00
C883   C     0.34718   0.12712   0.11256   0.00000  Uiso   1.00
C884   C     0.37129   0.95378   0.02081   0.00000  Uiso   1.00
C885   C     0.37673   0.92169   0.05858   0.00000  Uiso   1.00
C886   C     0.43541   0.90432   0.10512   0.00000  Uiso   1.00
C887   C     0.02034   0.36582   0.18713   0.00000  Uiso   1.00
C888   C     0.40612   0.00339   0.98271   0.00000  Uiso   1.00
C889   C     0.84916   0.49449   0.89660   0.00000  Uiso   1.00
C890   C     0.34605   0.99942   0.83154   0.00000  Uiso   1.00
C891   C     0.28968   0.98960   0.75766   0.00000  Uiso   1.00
C892   C     0.38177   0.02971   0.01165   0.00000  Uiso   1.00
C893   C     0.40608   0.06425   0.04334   0.00000  Uiso   1.00
C894   C     0.37718   0.08409   0.06632   0.00000  Uiso   1.00
C895   C     0.42265   0.96801   0.02924   0.00000  Uiso   1.00
C896   C     0.98134   0.45069   0.07574   0.00000  Uiso   1.00
C897   C     0.98686   0.41858   0.11357   0.00000  Uiso   1.00
H898   H     0.27158   0.96610   0.96063   0.00000  Uiso   1.00
H899   H     0.20170   0.95941   0.80787   0.00000  Uiso   1.00
H900   H     0.26173   0.02423   0.01964   0.00000  Uiso   1.00
H901   H     0.33697   0.91068   0.05204   0.00000  Uiso   1.00
H902   H     0.64685   0.45829   0.64223   0.00000  Uiso   1.00
H903   H     0.27344   0.09496   0.08878   0.00000  Uiso   1.00
H904   H     0.43211   0.85552   0.15711   0.00000  Uiso   1.00
H905   H     0.44611   0.01447   0.98927   0.00000  Uiso   1.00
H906   H     0.38580   0.01044   0.83808   0.00000  Uiso   1.00
H907   H     0.44582   0.07526   0.04985   0.00000  Uiso   1.00
H908   H     0.02107   0.46172   0.08225   0.00000  Uiso   1.00
H909   H     0.29627   0.99971   0.66675   0.00000  Uiso   1.00
H910   H     0.42286   0.13638   0.11331   0.00000  Uiso   1.00
H911   H     0.08154   0.39694   0.18163   0.00000  Uiso   1.00
O912   O     0.17873   0.97548   0.55451   0.00000  Uiso   1.00
O913   O     0.34482   0.15479   0.14039   0.00000  Uiso   1.00
O914   O     0.05299   0.34065   0.23003   0.00000  Uiso   1.00
N915   N     0.69030   0.46858   0.66875   0.00000  Uiso   1.00
N916   N     0.30865   0.09637   0.08624   0.00000  Uiso   1.00
N917   N     0.45700   0.87252   0.15014   0.00000  Uiso   1.00
N918   N     0.27070   0.99087   0.68194   0.00000  Uiso   1.00
N919   N     0.38905   0.11865   0.09943   0.00000  Uiso   1.00
N920   N     0.03740   0.39480   0.16333   0.00000  Uiso   1.00
C921   C     0.89755   0.14679   0.69825   0.00000  Uiso   1.00
C922   C     0.88636   0.14050   0.62149   0.00000  Uiso   1.00
C923   C     0.92014   0.11649   0.61195   0.00000  Uiso   1.00
C924   C     0.90262   0.11470   0.53700   0.00000  Uiso   1.00
C925   C     0.39276   0.60166   0.42739   0.00000  Uiso   1.00
C926   C     0.83414   0.13923   0.67839   0.00000  Uiso   1.00
C927   C     0.82403   0.11417   0.71671   0.00000  Uiso   1.00
C928   C     0.76254   0.11132   0.68968   0.00000  Uiso   1.00
C929   C     0.67162   0.09633   0.66845   0.00000  Uiso   1.00
C930   C     0.90965   0.18770   0.71530   0.00000  Uiso   1.00
C931   C     0.96301   0.20339   0.78465   0.00000  Uiso   1.00
C932   C     0.96508   0.24134   0.78869   0.00000  Uiso   1.00
C933   C     0.99140   0.30160   0.82476   0.00000  Uiso   1.00
C934   C     0.80635   0.18629   0.58212   0.00000  Uiso   1.00
C935   C     0.83682   0.16195   0.55841   0.00000  Uiso   1.00
C936   C     0.81924   0.16020   0.48346   0.00000  Uiso   1.00
C937   C     0.35300   0.63620   0.47381   0.00000  Uiso   1.00
C938   C     0.78461   0.16069   0.61532   0.00000  Uiso   1.00
C939   C     0.72313   0.15787   0.58822   0.00000  Uiso   1.00
C940   C     0.71292   0.13281   0.62648   0.00000  Uiso   1.00
C941   C     0.86011   0.20915   0.65222   0.00000  Uiso   1.00
C942   C     0.86211   0.24709   0.65615   0.00000  Uiso   1.00
C943   C     0.91546   0.26283   0.72550   0.00000  Uiso   1.00
H944   H     0.93611   0.13008   0.74736   0.00000  Uiso   1.00
H945   H     0.95847   0.09989   0.66078   0.00000  Uiso   1.00
H946   H     0.86237   0.09757   0.76553   0.00000  Uiso   1.00
H947   H     0.00133   0.18678   0.83345   0.00000  Uiso   1.00
H948   H     0.96140   0.07587   0.53695   0.00000  Uiso   1.00
H949   H     0.75877   0.07099   0.75785   0.00000  Uiso   1.00
H950   H     0.05179   0.25909   0.90107   0.00000  Uiso   1.00
H951   H     0.76778   0.20299   0.53301   0.00000  Uiso   1.00
H952   H     0.28091   0.67680   0.43466   0.00000  Uiso   1.00
H953   H     0.68481   0.17448   0.53941   0.00000  Uiso   1.00
H954   H     0.82377   0.26368   0.60733   0.00000  Uiso   1.00
H955   H     0.31728   0.63829   0.35342   0.00000  Uiso   1.00
H956   H     0.61465   0.13342   0.57432   0.00000  Uiso   1.00
H957   H     0.40767   0.82151   0.71754   0.00000  Uiso   1.00
O958   O     0.40100   0.58853   0.38435   0.00000  Uiso   1.00
O959   O     0.63516   0.08213   0.67417   0.00000  Uiso   1.00
O960   O     0.01960   0.32891   0.86207   0.00000  Uiso   1.00
N961   N     0.42569   0.59416   0.50726   0.00000  Uiso   1.00
N962   N     0.73624   0.08960   0.71378   0.00000  Uiso   1.00
N963   N     0.01018   0.26545   0.84769   0.00000  Uiso   1.00
N964   N     0.34814   0.62775   0.40851   0.00000  Uiso   1.00
N965   N     0.65869   0.12319   0.61502   0.00000  Uiso   1.00
N966   N     0.93263   0.29904   0.74893   0.00000  Uiso   1.00
C967   C     0.29029   0.37215   0.64575   0.00000  Uiso   1.00
C968   C     0.29160   0.37852   0.57824   0.00000  Uiso   1.00
C969   C     0.31304   0.40996   0.56662   0.00000  Uiso   1.00
C970   C     0.31035   0.41043   0.50133   0.00000  Uiso   1.00
C971   C     0.81597   0.92487   0.40440   0.00000  Uiso   1.00
C972   C     0.32829   0.33725   0.68744   0.00000  Uiso   1.00
C973   C     0.38057   0.33399   0.76764   0.00000  Uiso   1.00
C974   C     0.40876   0.29971   0.79427   0.00000  Uiso   1.00
C975   C     0.47131   0.25007   0.86688   0.00000  Uiso   1.00
C976   C     0.22156   0.36294   0.60627   0.00000  Uiso   1.00
C977   C     0.18411   0.38127   0.61824   0.00000  Uiso   1.00
C978   C     0.12244   0.36862   0.57655   0.00000  Uiso   1.00
C979   C     0.01929   0.35886   0.52315   0.00000  Uiso   1.00
C980   C     0.24738   0.31708   0.55045   0.00000  Uiso   1.00
C981   C     0.26830   0.34861   0.52648   0.00000  Uiso   1.00
C982   C     0.76557   0.84903   0.46119   0.00000  Uiso   1.00
C983   C     0.78700   0.88047   0.44947   0.00000  Uiso   1.00
C984   C     0.30499   0.30734   0.63568   0.00000  Uiso   1.00
C985   C     0.33310   0.27306   0.66220   0.00000  Uiso   1.00
C986   C     0.38541   0.26975   0.74241   0.00000  Uiso   1.00
C987   C     0.19826   0.33303   0.55451   0.00000  Uiso   1.00
C988   C     0.13664   0.32034   0.51280   0.00000  Uiso   1.00
C989   C     0.09910   0.33865   0.52470   0.00000  Uiso   1.00
H990   H     0.30843   0.39544   0.68605   0.00000  Uiso   1.00
H991   H     0.33108   0.43310   0.60670   0.00000  Uiso   1.00
H992   H     0.39859   0.35714   0.80768   0.00000  Uiso   1.00
H993   H     0.20216   0.40442   0.65830   0.00000  Uiso   1.00
H994   H     0.34594   0.46167   0.49591   0.00000  Uiso   1.00
H995   H     0.48827   0.30149   0.91969   0.00000  Uiso   1.00
H996   H     0.07406   0.40118   0.60471   0.00000  Uiso   1.00
H997   H     0.22923   0.29379   0.51015   0.00000  Uiso   1.00
H998   H     0.74753   0.82588   0.42114   0.00000  Uiso   1.00
H999   H     0.31505   0.24992   0.62212   0.00000  Uiso   1.00
H1000  H     0.11862   0.29719   0.47275   0.00000  Uiso   1.00
H1001  H     0.77813   0.87464   0.34530   0.00000  Uiso   1.00
H1002  H     0.42046   0.21446   0.76909   0.00000  Uiso   1.00
H1003  H     0.00625   0.31416   0.45410   0.00000  Uiso   1.00
O1004  O     0.82552   0.94110   0.36524   0.00000  Uiso   1.00
O1005  O     0.51225   0.23095   0.92123   0.00000  Uiso   1.00
O1006  O     0.96882   0.36174   0.50798   0.00000  Uiso   1.00
N1007  N     0.32745   0.43679   0.47267   0.00000  Uiso   1.00
N1008  N     0.46054   0.28703   0.86888   0.00000  Uiso   1.00
N1009  N     0.07329   0.38023   0.57441   0.00000  Uiso   1.00
N1010  N     0.79097   0.88996   0.39163   0.00000  Uiso   1.00
N1011  N     0.42405   0.24020   0.78784   0.00000  Uiso   1.00
N1012  N     0.03680   0.33340   0.49337   0.00000  Uiso   1.00
C1013  C     0.81157   0.47718   0.96719   0.00000  Uiso   1.00
C1014  C     0.79780   0.48025   0.88816   0.00000  Uiso   1.00
C1015  C     0.24143   0.97042   0.81437   0.00000  Uiso   1.00
C1016  C     0.23823   0.97534   0.74922   0.00000  Uiso   1.00
C1017  C     0.70903   0.47797   0.62523   0.00000  Uiso   1.00
C1018  C     0.83041   0.51547   0.00322   0.00000  Uiso   1.00
C1019  C     0.80147   0.53526   0.02617   0.00000  Uiso   1.00
C1020  C     0.82573   0.56982   0.05788   0.00000  Uiso   1.00
C1021  C     0.84718   0.62712   0.11256   0.00000  Uiso   1.00
C1022  C     0.87129   0.45378   0.02081   0.00000  Uiso   1.00
C1023  C     0.87673   0.42169   0.05858   0.00000  Uiso   1.00
C1024  C     0.93541   0.40432   0.10512   0.00000  Uiso   1.00
C1025  C     0.52034   0.86582   0.18713   0.00000  Uiso   1.00
C1026  C     0.90612   0.50339   0.98271   0.00000  Uiso   1.00
C1027  C     0.34916   0.99449   0.89660   0.00000  Uiso   1.00
C1028  C     0.84605   0.49942   0.83154   0.00000  Uiso   1.00
C1029  C     0.78968   0.48960   0.75766   0.00000  Uiso   1.00
C1030  C     0.88177   0.52971   0.01165   0.00000  Uiso   1.00
C1031  C     0.90608   0.56425   0.04334   0.00000  Uiso   1.00
C1032  C     0.87718   0.58409   0.06632   0.00000  Uiso   1.00
C1033  C     0.92265   0.46801   0.02924   0.00000  Uiso   1.00
C1034  C     0.48134   0.95069   0.07574   0.00000  Uiso   1.00
C1035  C     0.48686   0.91858   0.11357   0.00000  Uiso   1.00
H1036  H     0.77158   0.46610   0.96063   0.00000  Uiso   1.00
H1037  H     0.70170   0.45941   0.80787   0.00000  Uiso   1.00
H1038  H     0.76173   0.52423   0.01964   0.00000  Uiso   1.00
H1039  H     0.83697   0.41068   0.05204   0.00000  Uiso   1.00
H1040  H     0.14685   0.95829   0.64223   0.00000  Uiso   1.00
H1041  H     0.77344   0.59496   0.08878   0.00000  Uiso   1.00
H1042  H     0.93211   0.35552   0.15711   0.00000  Uiso   1.00
H1043  H     0.94611   0.51447   0.98927   0.00000  Uiso   1.00
H1044  H     0.88580   0.51044   0.83808   0.00000  Uiso   1.00
H1045  H     0.94582   0.57526   0.04985   0.00000  Uiso   1.00
H1046  H     0.52107   0.96172   0.08225   0.00000  Uiso   1.00
H1047  H     0.79627   0.49971   0.66675   0.00000  Uiso   1.00
H1048  H     0.92286   0.63638   0.11331   0.00000  Uiso   1.00
H1049  H     0.58154   0.89694   0.18163   0.00000  Uiso   1.00
O1050  O     0.67873   0.47548   0.55451   0.00000  Uiso   1.00
O1051  O     0.84482   0.65479   0.14039   0.00000  Uiso   1.00
O1052  O     0.55299   0.84065   0.23003   0.00000  Uiso   1.00
N1053  N     0.19030   0.96858   0.66875   0.00000  Uiso   1.00
N1054  N     0.80865   0.59637   0.08624   0.00000  Uiso   1.00
N1055  N     0.95700   0.37252   0.15014   0.00000  Uiso   1.00
N1056  N     0.77070   0.49087   0.68194   0.00000  Uiso   1.00
N1057  N     0.88905   0.61865   0.09943   0.00000  Uiso   1.00
N1058  N     0.53740   0.89480   0.16333   0.00000  Uiso   1.00
C1059  C     0.39755   0.64679   0.69825   0.00000  Uiso   1.00
C1060  C     0.38636   0.64050   0.62149   0.00000  Uiso   1.00
C1061  C     0.42014   0.61649   0.61195   0.00000  Uiso   1.00
C1062  C     0.40262   0.61470   0.53700   0.00000  Uiso   1.00
C1063  C     0.89276   0.10166   0.42739   0.00000  Uiso   1.00
C1064  C     0.33414   0.63923   0.67839   0.00000  Uiso   1.00
C1065  C     0.32403   0.61417   0.71671   0.00000  Uiso   1.00
C1066  C     0.26254   0.61132   0.68968   0.00000  Uiso   1.00
C1067  C     0.17162   0.59633   0.66845   0.00000  Uiso   1.00
C1068  C     0.40965   0.68770   0.71530   0.00000  Uiso   1.00
C1069  C     0.46301   0.70339   0.78465   0.00000  Uiso   1.00
C1070  C     0.46508   0.74134   0.78869   0.00000  Uiso   1.00
C1071  C     0.49140   0.80160   0.82476   0.00000  Uiso   1.00
C1072  C     0.30635   0.68629   0.58212   0.00000  Uiso   1.00
C1073  C     0.33682   0.66195   0.55841   0.00000  Uiso   1.00
C1074  C     0.31924   0.66020   0.48346   0.00000  Uiso   1.00
C1075  C     0.85300   0.13620   0.47381   0.00000  Uiso   1.00
C1076  C     0.28461   0.66069   0.61532   0.00000  Uiso   1.00
C1077  C     0.22313   0.65787   0.58822   0.00000  Uiso   1.00
C1078  C     0.21292   0.63281   0.62648   0.00000  Uiso   1.00
C1079  C     0.36011   0.70915   0.65222   0.00000  Uiso   1.00
C1080  C     0.36211   0.74709   0.65615   0.00000  Uiso   1.00
C1081  C     0.41546   0.76283   0.72550   0.00000  Uiso   1.00
H1082  H     0.43611   0.63008   0.74736   0.00000  Uiso   1.00
H1083  H     0.45847   0.59989   0.66078   0.00000  Uiso   1.00
H1084  H     0.36237   0.59757   0.76553   0.00000  Uiso   1.00
H1085  H     0.50133   0.68678   0.83345   0.00000  Uiso   1.00
H1086  H     0.46140   0.57587   0.53695   0.00000  Uiso   1.00
H1087  H     0.25877   0.57099   0.75785   0.00000  Uiso   1.00
H1088  H     0.55179   0.75909   0.90107   0.00000  Uiso   1.00
H1089  H     0.26778   0.70299   0.53301   0.00000  Uiso   1.00
H1090  H     0.78091   0.17680   0.43466   0.00000  Uiso   1.00
H1091  H     0.18481   0.67448   0.53941   0.00000  Uiso   1.00
H1092  H     0.32377   0.76368   0.60733   0.00000  Uiso   1.00
H1093  H     0.81728   0.13829   0.35342   0.00000  Uiso   1.00
H1094  H     0.11465   0.63342   0.57432   0.00000  Uiso   1.00
H1095  H     0.90767   0.32151   0.71754   0.00000  Uiso   1.00
O1096  O     0.90100   0.08853   0.38435   0.00000  Uiso   1.00
O1097  O     0.13516   0.58213   0.67417   0.00000  Uiso   1.00
O1098  O     0.51960   0.82891   0.86207   0.00000  Uiso   1.00
N1099  N     0.92569   0.09416   0.50726   0.00000  Uiso   1.00
N1100  N     0.23624   0.58960   0.71378   0.00000  Uiso   1.00
N1101  N     0.51018   0.76545   0.84769   0.00000  Uiso   1.00
N1102  N     0.84814   0.12775   0.40851   0.00000  Uiso   1.00
N1103  N     0.15869   0.62319   0.61502   0.00000  Uiso   1.00
N1104  N     0.43263   0.79904   0.74893   0.00000  Uiso   1.00
