data_job_01839
_audit_creation_date              2018-12-19
_audit_creation_method            'Materials Studio'
_symmetry_space_group_name_H-M    'P1'
_symmetry_Int_Tables_number       1
_symmetry_cell_setting            triclinic
loop_
_symmetry_equiv_pos_as_xyz
  x,y,z
_cell_length_a                    21.4861
_cell_length_b                    33.3825
_cell_length_c                    12.6613
_cell_angle_alpha                 90.0000
_cell_angle_beta                  90.0000
_cell_angle_gamma                 90.0000
loop_
_atom_site_label
_atom_site_type_symbol
_atom_site_fract_x
_atom_site_fract_y
_atom_site_fract_z
_atom_site_U_iso_or_equiv
_atom_site_adp_type
_atom_site_occupancy
C1     C     0.79173   0.51115   0.45019   0.00000  Uiso   1.00
C2     C     0.76672   0.47987   0.52702   0.00000  Uiso   1.00
C3     C     0.70615   0.46547   0.52984   0.00000  Uiso   1.00
C4     C     0.69251   0.43692   0.60612   0.00000  Uiso   1.00
C5     C     0.64677   0.39044   0.71468   0.00000  Uiso   1.00
C6     C     0.81863   0.54467   0.51810   0.00000  Uiso   1.00
C7     C     0.80171   0.58475   0.51342   0.00000  Uiso   1.00
C8     C     0.83177   0.61074   0.58218   0.00000  Uiso   1.00
C9     C     0.86665   0.66486   0.67684   0.00000  Uiso   1.00
C10    C     0.84705   0.49170   0.39484   0.00000  Uiso   1.00
C11    C     0.85403   0.48726   0.28650   0.00000  Uiso   1.00
C12    C     0.90802   0.46866   0.25148   0.00000  Uiso   1.00
C13    C     0.98703   0.44055   0.15475   0.00000  Uiso   1.00
C14    C     0.87521   0.48603   0.58063   0.00000  Uiso   1.00
C15    C     0.81206   0.46623   0.59787   0.00000  Uiso   1.00
C16    C     0.79851   0.43768   0.67417   0.00000  Uiso   1.00
C17    C     0.73793   0.42325   0.67710   0.00000  Uiso   1.00
C18    C     0.86397   0.53102   0.58896   0.00000  Uiso   1.00
C19    C     0.89406   0.55696   0.65774   0.00000  Uiso   1.00
C20    C     0.87719   0.59707   0.65316   0.00000  Uiso   1.00
C21    C     0.89239   0.47806   0.46569   0.00000  Uiso   1.00
C22    C     0.94638   0.45946   0.43083   0.00000  Uiso   1.00
C23    C     0.95345   0.45499   0.32246   0.00000  Uiso   1.00
H24    H     0.75644   0.52177   0.39503   0.00000  Uiso   1.00
H25    H     0.67108   0.47604   0.47500   0.00000  Uiso   1.00
H26    H     0.76663   0.59530   0.45857   0.00000  Uiso   1.00
H27    H     0.81894   0.49782   0.23169   0.00000  Uiso   1.00
H28    H     0.59643   0.41933   0.59494   0.00000  Uiso   1.00
H29    H     0.79791   0.67080   0.56027   0.00000  Uiso   1.00
H30    H     0.90822   0.46524   0.08185   0.00000  Uiso   1.00
H31    H     0.91051   0.47541   0.63580   0.00000  Uiso   1.00
H32    H     0.83360   0.42713   0.72899   0.00000  Uiso   1.00
H33    H     0.92915   0.54639   0.71256   0.00000  Uiso   1.00
H34    H     0.98146   0.44891   0.48568   0.00000  Uiso   1.00
H35    H     0.72834   0.37964   0.80109   0.00000  Uiso   1.00
H36    H     0.92982   0.63110   0.76641   0.00000  Uiso   1.00
H37    H     0.04013   0.42555   0.28800   0.00000  Uiso   1.00
O38    O     0.60901   0.36858   0.75500   0.00000  Uiso   1.00
O39    O     0.87335   0.69848   0.70949   0.00000  Uiso   1.00
O40    O     0.01808   0.42880   0.08182   0.00000  Uiso   1.00
N41    N     0.63803   0.41661   0.63066   0.00000  Uiso   1.00
N42    N     0.82640   0.65171   0.59825   0.00000  Uiso   1.00
N43    N     0.92954   0.45955   0.15097   0.00000  Uiso   1.00
N44    N     0.70901   0.39525   0.74158   0.00000  Uiso   1.00
N45    N     0.89738   0.63035   0.70918   0.00000  Uiso   1.00
N46    N     0.00052   0.43819   0.26189   0.00000  Uiso   1.00
C47    C     0.79173   0.01115   0.95019   0.00000  Uiso   1.00
C48    C     0.76672   0.97987   0.02702   0.00000  Uiso   1.00
C49    C     0.70615   0.96547   0.02984   0.00000  Uiso   1.00
C50    C     0.69251   0.93692   0.10612   0.00000  Uiso   1.00
C51    C     0.64677   0.89044   0.21468   0.00000  Uiso   1.00
C52    C     0.81863   0.04467   0.01810   0.00000  Uiso   1.00
C53    C     0.80171   0.08475   0.01342   0.00000  Uiso   1.00
C54    C     0.83177   0.11074   0.08218   0.00000  Uiso   1.00
C55    C     0.86665   0.16486   0.17684   0.00000  Uiso   1.00
C56    C     0.84705   0.99170   0.89484   0.00000  Uiso   1.00
C57    C     0.85403   0.98726   0.78650   0.00000  Uiso   1.00
C58    C     0.90802   0.96866   0.75148   0.00000  Uiso   1.00
C59    C     0.98703   0.94055   0.65475   0.00000  Uiso   1.00
C60    C     0.87521   0.98603   0.08063   0.00000  Uiso   1.00
C61    C     0.81206   0.96623   0.09787   0.00000  Uiso   1.00
C62    C     0.79851   0.93768   0.17417   0.00000  Uiso   1.00
C63    C     0.73793   0.92325   0.17710   0.00000  Uiso   1.00
C64    C     0.86397   0.03102   0.08896   0.00000  Uiso   1.00
C65    C     0.89406   0.05696   0.15774   0.00000  Uiso   1.00
C66    C     0.87719   0.09707   0.15316   0.00000  Uiso   1.00
C67    C     0.89239   0.97806   0.96569   0.00000  Uiso   1.00
C68    C     0.94638   0.95946   0.93083   0.00000  Uiso   1.00
C69    C     0.95345   0.95499   0.82246   0.00000  Uiso   1.00
H70    H     0.75644   0.02177   0.89503   0.00000  Uiso   1.00
H71    H     0.67108   0.97604   0.97500   0.00000  Uiso   1.00
H72    H     0.76663   0.09530   0.95857   0.00000  Uiso   1.00
H73    H     0.81894   0.99782   0.73169   0.00000  Uiso   1.00
H74    H     0.59643   0.91933   0.09494   0.00000  Uiso   1.00
H75    H     0.79791   0.17080   0.06027   0.00000  Uiso   1.00
H76    H     0.90822   0.96524   0.58185   0.00000  Uiso   1.00
H77    H     0.91051   0.97541   0.13580   0.00000  Uiso   1.00
H78    H     0.83360   0.92713   0.22899   0.00000  Uiso   1.00
H79    H     0.92915   0.04639   0.21256   0.00000  Uiso   1.00
H80    H     0.98146   0.94891   0.98568   0.00000  Uiso   1.00
H81    H     0.72834   0.87964   0.30109   0.00000  Uiso   1.00
H82    H     0.92982   0.13110   0.26641   0.00000  Uiso   1.00
H83    H     0.04013   0.92555   0.78800   0.00000  Uiso   1.00
O84    O     0.60901   0.86858   0.25500   0.00000  Uiso   1.00
O85    O     0.87335   0.19848   0.20949   0.00000  Uiso   1.00
O86    O     0.01808   0.92880   0.58182   0.00000  Uiso   1.00
N87    N     0.63803   0.91661   0.13066   0.00000  Uiso   1.00
N88    N     0.82640   0.15171   0.09825   0.00000  Uiso   1.00
N89    N     0.92954   0.95955   0.65097   0.00000  Uiso   1.00
N90    N     0.70901   0.89525   0.24158   0.00000  Uiso   1.00
N91    N     0.89738   0.13035   0.20918   0.00000  Uiso   1.00
N92    N     0.00052   0.93819   0.76189   0.00000  Uiso   1.00
C93    C     0.29173   0.51115   0.95019   0.00000  Uiso   1.00
C94    C     0.26672   0.47987   0.02702   0.00000  Uiso   1.00
C95    C     0.20615   0.46547   0.02984   0.00000  Uiso   1.00
C96    C     0.19251   0.43692   0.10612   0.00000  Uiso   1.00
C97    C     0.14677   0.39044   0.21468   0.00000  Uiso   1.00
C98    C     0.31863   0.54467   0.01810   0.00000  Uiso   1.00
C99    C     0.30171   0.58475   0.01342   0.00000  Uiso   1.00
C100   C     0.33177   0.61074   0.08218   0.00000  Uiso   1.00
C101   C     0.36665   0.66486   0.17684   0.00000  Uiso   1.00
C102   C     0.34705   0.49170   0.89484   0.00000  Uiso   1.00
C103   C     0.35403   0.48726   0.78650   0.00000  Uiso   1.00
C104   C     0.40802   0.46866   0.75148   0.00000  Uiso   1.00
C105   C     0.48703   0.44055   0.65475   0.00000  Uiso   1.00
C106   C     0.37521   0.48603   0.08063   0.00000  Uiso   1.00
C107   C     0.31206   0.46623   0.09787   0.00000  Uiso   1.00
C108   C     0.29851   0.43768   0.17417   0.00000  Uiso   1.00
C109   C     0.23793   0.42325   0.17710   0.00000  Uiso   1.00
C110   C     0.36397   0.53102   0.08896   0.00000  Uiso   1.00
C111   C     0.39406   0.55696   0.15774   0.00000  Uiso   1.00
C112   C     0.37719   0.59707   0.15316   0.00000  Uiso   1.00
C113   C     0.39239   0.47806   0.96569   0.00000  Uiso   1.00
C114   C     0.44638   0.45946   0.93083   0.00000  Uiso   1.00
C115   C     0.45345   0.45499   0.82246   0.00000  Uiso   1.00
H116   H     0.25644   0.52177   0.89503   0.00000  Uiso   1.00
H117   H     0.17108   0.47604   0.97500   0.00000  Uiso   1.00
H118   H     0.26663   0.59530   0.95857   0.00000  Uiso   1.00
H119   H     0.31894   0.49782   0.73169   0.00000  Uiso   1.00
H120   H     0.09643   0.41933   0.09494   0.00000  Uiso   1.00
H121   H     0.29791   0.67080   0.06027   0.00000  Uiso   1.00
H122   H     0.40822   0.46524   0.58185   0.00000  Uiso   1.00
H123   H     0.41051   0.47541   0.13580   0.00000  Uiso   1.00
H124   H     0.33360   0.42713   0.22899   0.00000  Uiso   1.00
H125   H     0.42915   0.54639   0.21256   0.00000  Uiso   1.00
H126   H     0.48146   0.44891   0.98568   0.00000  Uiso   1.00
H127   H     0.22834   0.37964   0.30109   0.00000  Uiso   1.00
H128   H     0.42982   0.63110   0.26641   0.00000  Uiso   1.00
H129   H     0.54013   0.42555   0.78800   0.00000  Uiso   1.00
O130   O     0.10901   0.36858   0.25500   0.00000  Uiso   1.00
O131   O     0.37335   0.69848   0.20949   0.00000  Uiso   1.00
O132   O     0.51808   0.42880   0.58182   0.00000  Uiso   1.00
N133   N     0.13803   0.41661   0.13066   0.00000  Uiso   1.00
N134   N     0.32640   0.65171   0.09825   0.00000  Uiso   1.00
N135   N     0.42954   0.45955   0.65097   0.00000  Uiso   1.00
N136   N     0.20901   0.39525   0.24158   0.00000  Uiso   1.00
N137   N     0.39738   0.63035   0.20918   0.00000  Uiso   1.00
N138   N     0.50052   0.43819   0.76189   0.00000  Uiso   1.00
C139   C     0.29173   0.01115   0.45019   0.00000  Uiso   1.00
C140   C     0.26672   0.97987   0.52702   0.00000  Uiso   1.00
C141   C     0.20615   0.96547   0.52984   0.00000  Uiso   1.00
C142   C     0.19251   0.93692   0.60612   0.00000  Uiso   1.00
C143   C     0.14677   0.89044   0.71468   0.00000  Uiso   1.00
C144   C     0.31863   0.04467   0.51810   0.00000  Uiso   1.00
C145   C     0.30171   0.08475   0.51342   0.00000  Uiso   1.00
C146   C     0.33177   0.11074   0.58218   0.00000  Uiso   1.00
C147   C     0.36665   0.16486   0.67684   0.00000  Uiso   1.00
C148   C     0.34705   0.99170   0.39484   0.00000  Uiso   1.00
C149   C     0.35403   0.98726   0.28650   0.00000  Uiso   1.00
C150   C     0.40802   0.96866   0.25148   0.00000  Uiso   1.00
C151   C     0.48703   0.94055   0.15475   0.00000  Uiso   1.00
C152   C     0.37521   0.98603   0.58063   0.00000  Uiso   1.00
C153   C     0.31206   0.96623   0.59787   0.00000  Uiso   1.00
C154   C     0.29851   0.93768   0.67417   0.00000  Uiso   1.00
C155   C     0.23793   0.92325   0.67710   0.00000  Uiso   1.00
C156   C     0.36397   0.03102   0.58896   0.00000  Uiso   1.00
C157   C     0.39406   0.05696   0.65774   0.00000  Uiso   1.00
C158   C     0.37719   0.09707   0.65316   0.00000  Uiso   1.00
C159   C     0.39239   0.97806   0.46569   0.00000  Uiso   1.00
C160   C     0.44638   0.95946   0.43083   0.00000  Uiso   1.00
C161   C     0.45345   0.95499   0.32246   0.00000  Uiso   1.00
H162   H     0.25644   0.02177   0.39503   0.00000  Uiso   1.00
H163   H     0.17108   0.97604   0.47500   0.00000  Uiso   1.00
H164   H     0.26663   0.09530   0.45857   0.00000  Uiso   1.00
H165   H     0.31894   0.99782   0.23169   0.00000  Uiso   1.00
H166   H     0.09643   0.91933   0.59494   0.00000  Uiso   1.00
H167   H     0.29791   0.17080   0.56027   0.00000  Uiso   1.00
H168   H     0.40822   0.96524   0.08185   0.00000  Uiso   1.00
H169   H     0.41051   0.97541   0.63580   0.00000  Uiso   1.00
H170   H     0.33360   0.92713   0.72899   0.00000  Uiso   1.00
H171   H     0.42915   0.04639   0.71256   0.00000  Uiso   1.00
H172   H     0.48146   0.94891   0.48568   0.00000  Uiso   1.00
H173   H     0.22834   0.87964   0.80109   0.00000  Uiso   1.00
H174   H     0.42982   0.13110   0.76641   0.00000  Uiso   1.00
H175   H     0.54013   0.92555   0.28800   0.00000  Uiso   1.00
O176   O     0.10901   0.86858   0.75500   0.00000  Uiso   1.00
O177   O     0.37335   0.19848   0.70949   0.00000  Uiso   1.00
O178   O     0.51808   0.92880   0.08182   0.00000  Uiso   1.00
N179   N     0.13803   0.91661   0.63066   0.00000  Uiso   1.00
N180   N     0.32640   0.15171   0.59825   0.00000  Uiso   1.00
N181   N     0.42954   0.95955   0.15097   0.00000  Uiso   1.00
N182   N     0.20901   0.89525   0.74158   0.00000  Uiso   1.00
N183   N     0.39738   0.13035   0.70918   0.00000  Uiso   1.00
N184   N     0.50052   0.93819   0.26189   0.00000  Uiso   1.00
C185   C     0.20827   0.48885   0.45019   0.00000  Uiso   1.00
C186   C     0.23328   0.52013   0.52702   0.00000  Uiso   1.00
C187   C     0.29385   0.53453   0.52984   0.00000  Uiso   1.00
C188   C     0.30749   0.56308   0.60612   0.00000  Uiso   1.00
C189   C     0.35323   0.60956   0.71468   0.00000  Uiso   1.00
C190   C     0.18137   0.45533   0.51810   0.00000  Uiso   1.00
C191   C     0.19829   0.41525   0.51342   0.00000  Uiso   1.00
C192   C     0.16823   0.38926   0.58218   0.00000  Uiso   1.00
C193   C     0.13335   0.33514   0.67684   0.00000  Uiso   1.00
C194   C     0.15295   0.50830   0.39484   0.00000  Uiso   1.00
C195   C     0.14597   0.51274   0.28650   0.00000  Uiso   1.00
C196   C     0.09198   0.53134   0.25148   0.00000  Uiso   1.00
C197   C     0.01297   0.55945   0.15475   0.00000  Uiso   1.00
C198   C     0.12479   0.51397   0.58063   0.00000  Uiso   1.00
C199   C     0.18794   0.53377   0.59787   0.00000  Uiso   1.00
C200   C     0.20149   0.56232   0.67417   0.00000  Uiso   1.00
C201   C     0.26207   0.57675   0.67710   0.00000  Uiso   1.00
C202   C     0.13603   0.46898   0.58896   0.00000  Uiso   1.00
C203   C     0.10594   0.44304   0.65774   0.00000  Uiso   1.00
C204   C     0.12281   0.40293   0.65316   0.00000  Uiso   1.00
C205   C     0.10761   0.52194   0.46569   0.00000  Uiso   1.00
C206   C     0.05362   0.54054   0.43083   0.00000  Uiso   1.00
C207   C     0.04655   0.54501   0.32246   0.00000  Uiso   1.00
H208   H     0.24356   0.47823   0.39503   0.00000  Uiso   1.00
H209   H     0.32892   0.52396   0.47500   0.00000  Uiso   1.00
H210   H     0.23337   0.40470   0.45857   0.00000  Uiso   1.00
H211   H     0.18106   0.50218   0.23169   0.00000  Uiso   1.00
H212   H     0.40357   0.58067   0.59494   0.00000  Uiso   1.00
H213   H     0.20209   0.32920   0.56027   0.00000  Uiso   1.00
H214   H     0.09178   0.53476   0.08185   0.00000  Uiso   1.00
H215   H     0.08949   0.52459   0.63580   0.00000  Uiso   1.00
H216   H     0.16640   0.57287   0.72899   0.00000  Uiso   1.00
H217   H     0.07085   0.45361   0.71256   0.00000  Uiso   1.00
H218   H     0.01854   0.55109   0.48568   0.00000  Uiso   1.00
H219   H     0.27166   0.62036   0.80109   0.00000  Uiso   1.00
H220   H     0.07018   0.36890   0.76641   0.00000  Uiso   1.00
H221   H     0.95987   0.57445   0.28800   0.00000  Uiso   1.00
O222   O     0.39099   0.63142   0.75500   0.00000  Uiso   1.00
O223   O     0.12665   0.30152   0.70949   0.00000  Uiso   1.00
O224   O     0.98192   0.57120   0.08182   0.00000  Uiso   1.00
N225   N     0.36197   0.58339   0.63066   0.00000  Uiso   1.00
N226   N     0.17360   0.34829   0.59825   0.00000  Uiso   1.00
N227   N     0.07046   0.54045   0.15097   0.00000  Uiso   1.00
N228   N     0.29099   0.60475   0.74158   0.00000  Uiso   1.00
N229   N     0.10262   0.36965   0.70918   0.00000  Uiso   1.00
N230   N     0.99948   0.56181   0.26189   0.00000  Uiso   1.00
C231   C     0.20827   0.98885   0.95019   0.00000  Uiso   1.00
C232   C     0.23328   0.02013   0.02702   0.00000  Uiso   1.00
C233   C     0.29385   0.03453   0.02984   0.00000  Uiso   1.00
C234   C     0.30749   0.06308   0.10612   0.00000  Uiso   1.00
C235   C     0.35323   0.10956   0.21468   0.00000  Uiso   1.00
C236   C     0.18137   0.95533   0.01810   0.00000  Uiso   1.00
C237   C     0.19829   0.91525   0.01342   0.00000  Uiso   1.00
C238   C     0.16823   0.88926   0.08218   0.00000  Uiso   1.00
C239   C     0.13335   0.83514   0.17684   0.00000  Uiso   1.00
C240   C     0.15295   0.00830   0.89484   0.00000  Uiso   1.00
C241   C     0.14597   0.01274   0.78650   0.00000  Uiso   1.00
C242   C     0.09198   0.03134   0.75148   0.00000  Uiso   1.00
C243   C     0.01297   0.05945   0.65475   0.00000  Uiso   1.00
C244   C     0.12479   0.01397   0.08063   0.00000  Uiso   1.00
C245   C     0.18794   0.03377   0.09787   0.00000  Uiso   1.00
C246   C     0.20149   0.06232   0.17417   0.00000  Uiso   1.00
C247   C     0.26207   0.07675   0.17710   0.00000  Uiso   1.00
C248   C     0.13603   0.96898   0.08896   0.00000  Uiso   1.00
C249   C     0.10594   0.94304   0.15774   0.00000  Uiso   1.00
C250   C     0.12281   0.90293   0.15316   0.00000  Uiso   1.00
C251   C     0.10761   0.02194   0.96569   0.00000  Uiso   1.00
C252   C     0.05362   0.04054   0.93083   0.00000  Uiso   1.00
C253   C     0.04655   0.04501   0.82246   0.00000  Uiso   1.00
H254   H     0.24356   0.97823   0.89503   0.00000  Uiso   1.00
H255   H     0.32892   0.02396   0.97500   0.00000  Uiso   1.00
H256   H     0.23337   0.90470   0.95857   0.00000  Uiso   1.00
H257   H     0.18106   0.00218   0.73169   0.00000  Uiso   1.00
H258   H     0.40357   0.08067   0.09494   0.00000  Uiso   1.00
H259   H     0.20209   0.82920   0.06027   0.00000  Uiso   1.00
H260   H     0.09178   0.03476   0.58185   0.00000  Uiso   1.00
H261   H     0.08949   0.02459   0.13580   0.00000  Uiso   1.00
H262   H     0.16640   0.07287   0.22899   0.00000  Uiso   1.00
H263   H     0.07085   0.95361   0.21256   0.00000  Uiso   1.00
H264   H     0.01854   0.05109   0.98568   0.00000  Uiso   1.00
H265   H     0.27166   0.12036   0.30109   0.00000  Uiso   1.00
H266   H     0.07018   0.86890   0.26641   0.00000  Uiso   1.00
H267   H     0.95987   0.07445   0.78800   0.00000  Uiso   1.00
O268   O     0.39099   0.13142   0.25500   0.00000  Uiso   1.00
O269   O     0.12665   0.80152   0.20949   0.00000  Uiso   1.00
O270   O     0.98192   0.07120   0.58182   0.00000  Uiso   1.00
N271   N     0.36197   0.08339   0.13066   0.00000  Uiso   1.00
N272   N     0.17360   0.84829   0.09825   0.00000  Uiso   1.00
N273   N     0.07046   0.04045   0.65097   0.00000  Uiso   1.00
N274   N     0.29099   0.10475   0.24158   0.00000  Uiso   1.00
N275   N     0.10262   0.86965   0.20918   0.00000  Uiso   1.00
N276   N     0.99948   0.06181   0.76189   0.00000  Uiso   1.00
C277   C     0.70827   0.48885   0.95019   0.00000  Uiso   1.00
C278   C     0.73328   0.52013   0.02702   0.00000  Uiso   1.00
C279   C     0.79385   0.53453   0.02984   0.00000  Uiso   1.00
C280   C     0.80749   0.56308   0.10612   0.00000  Uiso   1.00
C281   C     0.85323   0.60956   0.21468   0.00000  Uiso   1.00
C282   C     0.68137   0.45533   0.01810   0.00000  Uiso   1.00
C283   C     0.69829   0.41525   0.01342   0.00000  Uiso   1.00
C284   C     0.66823   0.38926   0.08218   0.00000  Uiso   1.00
C285   C     0.63335   0.33514   0.17684   0.00000  Uiso   1.00
C286   C     0.65295   0.50830   0.89484   0.00000  Uiso   1.00
C287   C     0.64597   0.51274   0.78650   0.00000  Uiso   1.00
C288   C     0.59198   0.53134   0.75148   0.00000  Uiso   1.00
C289   C     0.51297   0.55945   0.65475   0.00000  Uiso   1.00
C290   C     0.62479   0.51397   0.08063   0.00000  Uiso   1.00
C291   C     0.68794   0.53377   0.09787   0.00000  Uiso   1.00
C292   C     0.70149   0.56232   0.17417   0.00000  Uiso   1.00
C293   C     0.76207   0.57675   0.17710   0.00000  Uiso   1.00
C294   C     0.63603   0.46898   0.08896   0.00000  Uiso   1.00
C295   C     0.60594   0.44304   0.15774   0.00000  Uiso   1.00
C296   C     0.62281   0.40293   0.15316   0.00000  Uiso   1.00
C297   C     0.60761   0.52194   0.96569   0.00000  Uiso   1.00
C298   C     0.55362   0.54054   0.93083   0.00000  Uiso   1.00
C299   C     0.54655   0.54501   0.82246   0.00000  Uiso   1.00
H300   H     0.74356   0.47823   0.89503   0.00000  Uiso   1.00
H301   H     0.82892   0.52396   0.97500   0.00000  Uiso   1.00
H302   H     0.73337   0.40470   0.95857   0.00000  Uiso   1.00
H303   H     0.68106   0.50218   0.73169   0.00000  Uiso   1.00
H304   H     0.90357   0.58067   0.09494   0.00000  Uiso   1.00
H305   H     0.70209   0.32920   0.06027   0.00000  Uiso   1.00
H306   H     0.59178   0.53476   0.58185   0.00000  Uiso   1.00
H307   H     0.58949   0.52459   0.13580   0.00000  Uiso   1.00
H308   H     0.66640   0.57287   0.22899   0.00000  Uiso   1.00
H309   H     0.57085   0.45361   0.21256   0.00000  Uiso   1.00
H310   H     0.51854   0.55109   0.98568   0.00000  Uiso   1.00
H311   H     0.77166   0.62036   0.30109   0.00000  Uiso   1.00
H312   H     0.57018   0.36890   0.26641   0.00000  Uiso   1.00
H313   H     0.45987   0.57445   0.78800   0.00000  Uiso   1.00
O314   O     0.89099   0.63142   0.25500   0.00000  Uiso   1.00
O315   O     0.62665   0.30152   0.20949   0.00000  Uiso   1.00
O316   O     0.48192   0.57120   0.58182   0.00000  Uiso   1.00
N317   N     0.86197   0.58339   0.13066   0.00000  Uiso   1.00
N318   N     0.67360   0.34829   0.09825   0.00000  Uiso   1.00
N319   N     0.57046   0.54045   0.65097   0.00000  Uiso   1.00
N320   N     0.79099   0.60475   0.24158   0.00000  Uiso   1.00
N321   N     0.60262   0.36965   0.20918   0.00000  Uiso   1.00
N322   N     0.49948   0.56181   0.76189   0.00000  Uiso   1.00
C323   C     0.70827   0.98885   0.45019   0.00000  Uiso   1.00
C324   C     0.73328   0.02013   0.52702   0.00000  Uiso   1.00
C325   C     0.79385   0.03453   0.52984   0.00000  Uiso   1.00
C326   C     0.80749   0.06308   0.60612   0.00000  Uiso   1.00
C327   C     0.85323   0.10956   0.71468   0.00000  Uiso   1.00
C328   C     0.68137   0.95533   0.51810   0.00000  Uiso   1.00
C329   C     0.69829   0.91525   0.51342   0.00000  Uiso   1.00
C330   C     0.66823   0.88926   0.58218   0.00000  Uiso   1.00
C331   C     0.63335   0.83514   0.67684   0.00000  Uiso   1.00
C332   C     0.65295   0.00830   0.39484   0.00000  Uiso   1.00
C333   C     0.64597   0.01274   0.28650   0.00000  Uiso   1.00
C334   C     0.59198   0.03134   0.25148   0.00000  Uiso   1.00
C335   C     0.51297   0.05945   0.15475   0.00000  Uiso   1.00
C336   C     0.62479   0.01397   0.58063   0.00000  Uiso   1.00
C337   C     0.68794   0.03377   0.59787   0.00000  Uiso   1.00
C338   C     0.70149   0.06232   0.67417   0.00000  Uiso   1.00
C339   C     0.76207   0.07675   0.67710   0.00000  Uiso   1.00
C340   C     0.63603   0.96898   0.58896   0.00000  Uiso   1.00
C341   C     0.60594   0.94304   0.65774   0.00000  Uiso   1.00
C342   C     0.62281   0.90293   0.65316   0.00000  Uiso   1.00
C343   C     0.60761   0.02194   0.46569   0.00000  Uiso   1.00
C344   C     0.55362   0.04054   0.43083   0.00000  Uiso   1.00
C345   C     0.54655   0.04501   0.32246   0.00000  Uiso   1.00
H346   H     0.74356   0.97823   0.39503   0.00000  Uiso   1.00
H347   H     0.82892   0.02396   0.47500   0.00000  Uiso   1.00
H348   H     0.73337   0.90470   0.45857   0.00000  Uiso   1.00
H349   H     0.68106   0.00218   0.23169   0.00000  Uiso   1.00
H350   H     0.90357   0.08067   0.59494   0.00000  Uiso   1.00
H351   H     0.70209   0.82920   0.56027   0.00000  Uiso   1.00
H352   H     0.59178   0.03476   0.08185   0.00000  Uiso   1.00
H353   H     0.58949   0.02459   0.63580   0.00000  Uiso   1.00
H354   H     0.66640   0.07287   0.72899   0.00000  Uiso   1.00
H355   H     0.57085   0.95361   0.71256   0.00000  Uiso   1.00
H356   H     0.51854   0.05109   0.48568   0.00000  Uiso   1.00
H357   H     0.77166   0.12036   0.80109   0.00000  Uiso   1.00
H358   H     0.57018   0.86890   0.76641   0.00000  Uiso   1.00
H359   H     0.45987   0.07445   0.28800   0.00000  Uiso   1.00
O360   O     0.89099   0.13142   0.75500   0.00000  Uiso   1.00
O361   O     0.62665   0.80152   0.70949   0.00000  Uiso   1.00
O362   O     0.48192   0.07120   0.08182   0.00000  Uiso   1.00
N363   N     0.86197   0.08339   0.63066   0.00000  Uiso   1.00
N364   N     0.67360   0.84829   0.59825   0.00000  Uiso   1.00
N365   N     0.57046   0.04045   0.15097   0.00000  Uiso   1.00
N366   N     0.79099   0.10475   0.74158   0.00000  Uiso   1.00
N367   N     0.60262   0.86965   0.70918   0.00000  Uiso   1.00
N368   N     0.49948   0.06181   0.26189   0.00000  Uiso   1.00
C369   C     0.04173   0.73885   0.70019   0.00000  Uiso   1.00
C370   C     0.01672   0.77013   0.77702   0.00000  Uiso   1.00
C371   C     0.95615   0.78453   0.77984   0.00000  Uiso   1.00
C372   C     0.94251   0.81308   0.85612   0.00000  Uiso   1.00
C373   C     0.89677   0.85956   0.96468   0.00000  Uiso   1.00
C374   C     0.06863   0.70533   0.76810   0.00000  Uiso   1.00
C375   C     0.05171   0.66525   0.76342   0.00000  Uiso   1.00
C376   C     0.08177   0.63926   0.83218   0.00000  Uiso   1.00
C377   C     0.11665   0.58514   0.92684   0.00000  Uiso   1.00
C378   C     0.09705   0.75830   0.64484   0.00000  Uiso   1.00
C379   C     0.10403   0.76274   0.53650   0.00000  Uiso   1.00
C380   C     0.15802   0.78134   0.50148   0.00000  Uiso   1.00
C381   C     0.23703   0.80945   0.40475   0.00000  Uiso   1.00
C382   C     0.12521   0.76397   0.83063   0.00000  Uiso   1.00
C383   C     0.06206   0.78377   0.84787   0.00000  Uiso   1.00
C384   C     0.04851   0.81232   0.92417   0.00000  Uiso   1.00
C385   C     0.98793   0.82675   0.92710   0.00000  Uiso   1.00
C386   C     0.11397   0.71898   0.83896   0.00000  Uiso   1.00
C387   C     0.14406   0.69304   0.90774   0.00000  Uiso   1.00
C388   C     0.12719   0.65293   0.90316   0.00000  Uiso   1.00
C389   C     0.14239   0.77194   0.71569   0.00000  Uiso   1.00
C390   C     0.19638   0.79054   0.68083   0.00000  Uiso   1.00
C391   C     0.20345   0.79501   0.57246   0.00000  Uiso   1.00
H392   H     0.00644   0.72823   0.64503   0.00000  Uiso   1.00
H393   H     0.92108   0.77396   0.72500   0.00000  Uiso   1.00
H394   H     0.01663   0.65470   0.70857   0.00000  Uiso   1.00
H395   H     0.06894   0.75218   0.48169   0.00000  Uiso   1.00
H396   H     0.84643   0.83067   0.84494   0.00000  Uiso   1.00
H397   H     0.04791   0.57920   0.81027   0.00000  Uiso   1.00
H398   H     0.15822   0.78476   0.33185   0.00000  Uiso   1.00
H399   H     0.16051   0.77459   0.88580   0.00000  Uiso   1.00
H400   H     0.08360   0.82287   0.97899   0.00000  Uiso   1.00
H401   H     0.17915   0.70361   0.96256   0.00000  Uiso   1.00
H402   H     0.23146   0.80109   0.73568   0.00000  Uiso   1.00
H403   H     0.97834   0.87036   0.05109   0.00000  Uiso   1.00
H404   H     0.17982   0.61890   0.01641   0.00000  Uiso   1.00
H405   H     0.29013   0.82445   0.53800   0.00000  Uiso   1.00
O406   O     0.85901   0.88142   0.00500   0.00000  Uiso   1.00
O407   O     0.12335   0.55152   0.95949   0.00000  Uiso   1.00
O408   O     0.26808   0.82120   0.33182   0.00000  Uiso   1.00
N409   N     0.88803   0.83339   0.88066   0.00000  Uiso   1.00
N410   N     0.07640   0.59829   0.84825   0.00000  Uiso   1.00
N411   N     0.17954   0.79045   0.40097   0.00000  Uiso   1.00
N412   N     0.95901   0.85475   0.99158   0.00000  Uiso   1.00
N413   N     0.14738   0.61965   0.95918   0.00000  Uiso   1.00
N414   N     0.25052   0.81181   0.51189   0.00000  Uiso   1.00
C415   C     0.04173   0.23885   0.20019   0.00000  Uiso   1.00
C416   C     0.01672   0.27013   0.27702   0.00000  Uiso   1.00
C417   C     0.95615   0.28453   0.27984   0.00000  Uiso   1.00
C418   C     0.94251   0.31308   0.35612   0.00000  Uiso   1.00
C419   C     0.89677   0.35956   0.46468   0.00000  Uiso   1.00
C420   C     0.06863   0.20533   0.26810   0.00000  Uiso   1.00
C421   C     0.05171   0.16525   0.26342   0.00000  Uiso   1.00
C422   C     0.08177   0.13926   0.33218   0.00000  Uiso   1.00
C423   C     0.11665   0.08514   0.42684   0.00000  Uiso   1.00
C424   C     0.09705   0.25830   0.14484   0.00000  Uiso   1.00
C425   C     0.10403   0.26274   0.03650   0.00000  Uiso   1.00
C426   C     0.15802   0.28134   0.00148   0.00000  Uiso   1.00
C427   C     0.23703   0.30945   0.90475   0.00000  Uiso   1.00
C428   C     0.12521   0.26397   0.33063   0.00000  Uiso   1.00
C429   C     0.06206   0.28377   0.34787   0.00000  Uiso   1.00
C430   C     0.04851   0.31232   0.42417   0.00000  Uiso   1.00
C431   C     0.98793   0.32675   0.42710   0.00000  Uiso   1.00
C432   C     0.11397   0.21898   0.33896   0.00000  Uiso   1.00
C433   C     0.14406   0.19304   0.40774   0.00000  Uiso   1.00
C434   C     0.12719   0.15293   0.40316   0.00000  Uiso   1.00
C435   C     0.14239   0.27194   0.21569   0.00000  Uiso   1.00
C436   C     0.19638   0.29054   0.18083   0.00000  Uiso   1.00
C437   C     0.20345   0.29501   0.07246   0.00000  Uiso   1.00
H438   H     0.00644   0.22823   0.14503   0.00000  Uiso   1.00
H439   H     0.92108   0.27396   0.22500   0.00000  Uiso   1.00
H440   H     0.01663   0.15470   0.20857   0.00000  Uiso   1.00
H441   H     0.06894   0.25218   0.98169   0.00000  Uiso   1.00
H442   H     0.84643   0.33067   0.34494   0.00000  Uiso   1.00
H443   H     0.04791   0.07920   0.31027   0.00000  Uiso   1.00
H444   H     0.15822   0.28476   0.83185   0.00000  Uiso   1.00
H445   H     0.16051   0.27459   0.38580   0.00000  Uiso   1.00
H446   H     0.08360   0.32287   0.47899   0.00000  Uiso   1.00
H447   H     0.17915   0.20361   0.46256   0.00000  Uiso   1.00
H448   H     0.23146   0.30109   0.23568   0.00000  Uiso   1.00
H449   H     0.97834   0.37036   0.55109   0.00000  Uiso   1.00
H450   H     0.17982   0.11890   0.51641   0.00000  Uiso   1.00
H451   H     0.29013   0.32445   0.03800   0.00000  Uiso   1.00
O452   O     0.85901   0.38142   0.50500   0.00000  Uiso   1.00
O453   O     0.12335   0.05152   0.45949   0.00000  Uiso   1.00
O454   O     0.26808   0.32120   0.83182   0.00000  Uiso   1.00
N455   N     0.88803   0.33339   0.38066   0.00000  Uiso   1.00
N456   N     0.07640   0.09829   0.34825   0.00000  Uiso   1.00
N457   N     0.17954   0.29045   0.90097   0.00000  Uiso   1.00
N458   N     0.95901   0.35475   0.49158   0.00000  Uiso   1.00
N459   N     0.14738   0.11965   0.45918   0.00000  Uiso   1.00
N460   N     0.25052   0.31181   0.01189   0.00000  Uiso   1.00
C461   C     0.54173   0.73885   0.20019   0.00000  Uiso   1.00
C462   C     0.51672   0.77013   0.27702   0.00000  Uiso   1.00
C463   C     0.45615   0.78453   0.27984   0.00000  Uiso   1.00
C464   C     0.44251   0.81308   0.35612   0.00000  Uiso   1.00
C465   C     0.39677   0.85956   0.46468   0.00000  Uiso   1.00
C466   C     0.56863   0.70533   0.26810   0.00000  Uiso   1.00
C467   C     0.55171   0.66525   0.26342   0.00000  Uiso   1.00
C468   C     0.58177   0.63926   0.33218   0.00000  Uiso   1.00
C469   C     0.61665   0.58514   0.42684   0.00000  Uiso   1.00
C470   C     0.59705   0.75830   0.14484   0.00000  Uiso   1.00
C471   C     0.60403   0.76274   0.03650   0.00000  Uiso   1.00
C472   C     0.65802   0.78134   0.00148   0.00000  Uiso   1.00
C473   C     0.73703   0.80945   0.90475   0.00000  Uiso   1.00
C474   C     0.62521   0.76397   0.33063   0.00000  Uiso   1.00
C475   C     0.56206   0.78377   0.34787   0.00000  Uiso   1.00
C476   C     0.54851   0.81232   0.42417   0.00000  Uiso   1.00
C477   C     0.48793   0.82675   0.42710   0.00000  Uiso   1.00
C478   C     0.61397   0.71898   0.33896   0.00000  Uiso   1.00
C479   C     0.64406   0.69304   0.40774   0.00000  Uiso   1.00
C480   C     0.62719   0.65293   0.40316   0.00000  Uiso   1.00
C481   C     0.64239   0.77194   0.21569   0.00000  Uiso   1.00
C482   C     0.69638   0.79054   0.18083   0.00000  Uiso   1.00
C483   C     0.70345   0.79501   0.07246   0.00000  Uiso   1.00
H484   H     0.50644   0.72823   0.14503   0.00000  Uiso   1.00
H485   H     0.42108   0.77396   0.22500   0.00000  Uiso   1.00
H486   H     0.51663   0.65470   0.20857   0.00000  Uiso   1.00
H487   H     0.56894   0.75218   0.98169   0.00000  Uiso   1.00
H488   H     0.34643   0.83067   0.34494   0.00000  Uiso   1.00
H489   H     0.54791   0.57920   0.31027   0.00000  Uiso   1.00
H490   H     0.65822   0.78476   0.83185   0.00000  Uiso   1.00
H491   H     0.66051   0.77459   0.38580   0.00000  Uiso   1.00
H492   H     0.58360   0.82287   0.47899   0.00000  Uiso   1.00
H493   H     0.67915   0.70361   0.46256   0.00000  Uiso   1.00
H494   H     0.73146   0.80109   0.23568   0.00000  Uiso   1.00
H495   H     0.47834   0.87036   0.55109   0.00000  Uiso   1.00
H496   H     0.67982   0.61890   0.51641   0.00000  Uiso   1.00
H497   H     0.79013   0.82445   0.03800   0.00000  Uiso   1.00
O498   O     0.35901   0.88142   0.50500   0.00000  Uiso   1.00
O499   O     0.62335   0.55152   0.45949   0.00000  Uiso   1.00
O500   O     0.76808   0.82120   0.83182   0.00000  Uiso   1.00
N501   N     0.38803   0.83339   0.38066   0.00000  Uiso   1.00
N502   N     0.57640   0.59829   0.34825   0.00000  Uiso   1.00
N503   N     0.67954   0.79045   0.90097   0.00000  Uiso   1.00
N504   N     0.45901   0.85475   0.49158   0.00000  Uiso   1.00
N505   N     0.64738   0.61965   0.45918   0.00000  Uiso   1.00
N506   N     0.75052   0.81181   0.01189   0.00000  Uiso   1.00
C507   C     0.54173   0.23885   0.70019   0.00000  Uiso   1.00
C508   C     0.51672   0.27013   0.77702   0.00000  Uiso   1.00
C509   C     0.45615   0.28453   0.77984   0.00000  Uiso   1.00
C510   C     0.44251   0.31308   0.85612   0.00000  Uiso   1.00
C511   C     0.39677   0.35956   0.96468   0.00000  Uiso   1.00
C512   C     0.56863   0.20533   0.76810   0.00000  Uiso   1.00
C513   C     0.55171   0.16525   0.76342   0.00000  Uiso   1.00
C514   C     0.58177   0.13926   0.83218   0.00000  Uiso   1.00
C515   C     0.61665   0.08514   0.92684   0.00000  Uiso   1.00
C516   C     0.59705   0.25830   0.64484   0.00000  Uiso   1.00
C517   C     0.60403   0.26274   0.53650   0.00000  Uiso   1.00
C518   C     0.65802   0.28134   0.50148   0.00000  Uiso   1.00
C519   C     0.73703   0.30945   0.40475   0.00000  Uiso   1.00
C520   C     0.62521   0.26397   0.83063   0.00000  Uiso   1.00
C521   C     0.56206   0.28377   0.84787   0.00000  Uiso   1.00
C522   C     0.54851   0.31232   0.92417   0.00000  Uiso   1.00
C523   C     0.48793   0.32675   0.92710   0.00000  Uiso   1.00
C524   C     0.61397   0.21898   0.83896   0.00000  Uiso   1.00
C525   C     0.64406   0.19304   0.90774   0.00000  Uiso   1.00
C526   C     0.62719   0.15293   0.90316   0.00000  Uiso   1.00
C527   C     0.64239   0.27194   0.71569   0.00000  Uiso   1.00
C528   C     0.69638   0.29054   0.68083   0.00000  Uiso   1.00
C529   C     0.70345   0.29501   0.57246   0.00000  Uiso   1.00
H530   H     0.50644   0.22823   0.64503   0.00000  Uiso   1.00
H531   H     0.42108   0.27396   0.72500   0.00000  Uiso   1.00
H532   H     0.51663   0.15470   0.70857   0.00000  Uiso   1.00
H533   H     0.56894   0.25218   0.48169   0.00000  Uiso   1.00
H534   H     0.34643   0.33067   0.84494   0.00000  Uiso   1.00
H535   H     0.54791   0.07920   0.81027   0.00000  Uiso   1.00
H536   H     0.65822   0.28476   0.33185   0.00000  Uiso   1.00
H537   H     0.66051   0.27459   0.88580   0.00000  Uiso   1.00
H538   H     0.58360   0.32287   0.97899   0.00000  Uiso   1.00
H539   H     0.67915   0.20361   0.96256   0.00000  Uiso   1.00
H540   H     0.73146   0.30109   0.73568   0.00000  Uiso   1.00
H541   H     0.47834   0.37036   0.05109   0.00000  Uiso   1.00
H542   H     0.67982   0.11890   0.01641   0.00000  Uiso   1.00
H543   H     0.79013   0.32445   0.53800   0.00000  Uiso   1.00
O544   O     0.35901   0.38142   0.00500   0.00000  Uiso   1.00
O545   O     0.62335   0.05152   0.95949   0.00000  Uiso   1.00
O546   O     0.76808   0.32120   0.33182   0.00000  Uiso   1.00
N547   N     0.38803   0.33339   0.88066   0.00000  Uiso   1.00
N548   N     0.57640   0.09829   0.84825   0.00000  Uiso   1.00
N549   N     0.67954   0.29045   0.40097   0.00000  Uiso   1.00
N550   N     0.45901   0.35475   0.99158   0.00000  Uiso   1.00
N551   N     0.64738   0.11965   0.95918   0.00000  Uiso   1.00
N552   N     0.75052   0.31181   0.51189   0.00000  Uiso   1.00
C553   C     0.45827   0.76115   0.70019   0.00000  Uiso   1.00
C554   C     0.48328   0.72987   0.77702   0.00000  Uiso   1.00
C555   C     0.54385   0.71547   0.77984   0.00000  Uiso   1.00
C556   C     0.55749   0.68692   0.85612   0.00000  Uiso   1.00
C557   C     0.60323   0.64044   0.96468   0.00000  Uiso   1.00
C558   C     0.43137   0.79467   0.76810   0.00000  Uiso   1.00
C559   C     0.44829   0.83475   0.76342   0.00000  Uiso   1.00
C560   C     0.41823   0.86074   0.83218   0.00000  Uiso   1.00
C561   C     0.38335   0.91486   0.92684   0.00000  Uiso   1.00
C562   C     0.40295   0.74170   0.64484   0.00000  Uiso   1.00
C563   C     0.39597   0.73726   0.53650   0.00000  Uiso   1.00
C564   C     0.34198   0.71866   0.50148   0.00000  Uiso   1.00
C565   C     0.26297   0.69055   0.40475   0.00000  Uiso   1.00
C566   C     0.37479   0.73603   0.83063   0.00000  Uiso   1.00
C567   C     0.43794   0.71623   0.84787   0.00000  Uiso   1.00
C568   C     0.45149   0.68768   0.92417   0.00000  Uiso   1.00
C569   C     0.51207   0.67325   0.92710   0.00000  Uiso   1.00
C570   C     0.38603   0.78102   0.83896   0.00000  Uiso   1.00
C571   C     0.35594   0.80696   0.90774   0.00000  Uiso   1.00
C572   C     0.37281   0.84707   0.90316   0.00000  Uiso   1.00
C573   C     0.35761   0.72806   0.71569   0.00000  Uiso   1.00
C574   C     0.30362   0.70946   0.68083   0.00000  Uiso   1.00
C575   C     0.29655   0.70499   0.57246   0.00000  Uiso   1.00
H576   H     0.49356   0.77177   0.64503   0.00000  Uiso   1.00
H577   H     0.57892   0.72604   0.72500   0.00000  Uiso   1.00
H578   H     0.48337   0.84530   0.70857   0.00000  Uiso   1.00
H579   H     0.43106   0.74782   0.48169   0.00000  Uiso   1.00
H580   H     0.65357   0.66933   0.84494   0.00000  Uiso   1.00
H581   H     0.45209   0.92080   0.81027   0.00000  Uiso   1.00
H582   H     0.34178   0.71524   0.33185   0.00000  Uiso   1.00
H583   H     0.33949   0.72541   0.88580   0.00000  Uiso   1.00
H584   H     0.41640   0.67713   0.97899   0.00000  Uiso   1.00
H585   H     0.32085   0.79639   0.96256   0.00000  Uiso   1.00
H586   H     0.26854   0.69891   0.73568   0.00000  Uiso   1.00
H587   H     0.52166   0.62964   0.05109   0.00000  Uiso   1.00
H588   H     0.32018   0.88110   0.01641   0.00000  Uiso   1.00
H589   H     0.20987   0.67555   0.53800   0.00000  Uiso   1.00
O590   O     0.64099   0.61858   0.00500   0.00000  Uiso   1.00
O591   O     0.37665   0.94848   0.95949   0.00000  Uiso   1.00
O592   O     0.23192   0.67880   0.33182   0.00000  Uiso   1.00
N593   N     0.61197   0.66661   0.88066   0.00000  Uiso   1.00
N594   N     0.42360   0.90171   0.84825   0.00000  Uiso   1.00
N595   N     0.32046   0.70955   0.40097   0.00000  Uiso   1.00
N596   N     0.54099   0.64525   0.99158   0.00000  Uiso   1.00
N597   N     0.35262   0.88035   0.95918   0.00000  Uiso   1.00
N598   N     0.24948   0.68819   0.51189   0.00000  Uiso   1.00
C599   C     0.45827   0.26115   0.20019   0.00000  Uiso   1.00
C600   C     0.48328   0.22987   0.27702   0.00000  Uiso   1.00
C601   C     0.54385   0.21547   0.27984   0.00000  Uiso   1.00
C602   C     0.55749   0.18692   0.35612   0.00000  Uiso   1.00
C603   C     0.60323   0.14044   0.46468   0.00000  Uiso   1.00
C604   C     0.43137   0.29467   0.26810   0.00000  Uiso   1.00
C605   C     0.44829   0.33475   0.26342   0.00000  Uiso   1.00
C606   C     0.41823   0.36074   0.33218   0.00000  Uiso   1.00
C607   C     0.38335   0.41486   0.42684   0.00000  Uiso   1.00
C608   C     0.40295   0.24170   0.14484   0.00000  Uiso   1.00
C609   C     0.39597   0.23726   0.03650   0.00000  Uiso   1.00
C610   C     0.34198   0.21866   0.00148   0.00000  Uiso   1.00
C611   C     0.26297   0.19055   0.90475   0.00000  Uiso   1.00
C612   C     0.37479   0.23603   0.33063   0.00000  Uiso   1.00
C613   C     0.43794   0.21623   0.34787   0.00000  Uiso   1.00
C614   C     0.45149   0.18768   0.42417   0.00000  Uiso   1.00
C615   C     0.51207   0.17325   0.42710   0.00000  Uiso   1.00
C616   C     0.38603   0.28102   0.33896   0.00000  Uiso   1.00
C617   C     0.35594   0.30696   0.40774   0.00000  Uiso   1.00
C618   C     0.37281   0.34707   0.40316   0.00000  Uiso   1.00
C619   C     0.35761   0.22806   0.21569   0.00000  Uiso   1.00
C620   C     0.30362   0.20946   0.18083   0.00000  Uiso   1.00
C621   C     0.29655   0.20499   0.07246   0.00000  Uiso   1.00
H622   H     0.49356   0.27177   0.14503   0.00000  Uiso   1.00
H623   H     0.57892   0.22604   0.22500   0.00000  Uiso   1.00
H624   H     0.48337   0.34530   0.20857   0.00000  Uiso   1.00
H625   H     0.43106   0.24782   0.98169   0.00000  Uiso   1.00
H626   H     0.65357   0.16933   0.34494   0.00000  Uiso   1.00
H627   H     0.45209   0.42080   0.31027   0.00000  Uiso   1.00
H628   H     0.34178   0.21524   0.83185   0.00000  Uiso   1.00
H629   H     0.33949   0.22541   0.38580   0.00000  Uiso   1.00
H630   H     0.41640   0.17713   0.47899   0.00000  Uiso   1.00
H631   H     0.32085   0.29639   0.46256   0.00000  Uiso   1.00
H632   H     0.26854   0.19891   0.23568   0.00000  Uiso   1.00
H633   H     0.52166   0.12964   0.55109   0.00000  Uiso   1.00
H634   H     0.32018   0.38110   0.51641   0.00000  Uiso   1.00
H635   H     0.20987   0.17555   0.03800   0.00000  Uiso   1.00
O636   O     0.64099   0.11858   0.50500   0.00000  Uiso   1.00
O637   O     0.37665   0.44848   0.45949   0.00000  Uiso   1.00
O638   O     0.23192   0.17880   0.83182   0.00000  Uiso   1.00
N639   N     0.61197   0.16661   0.38066   0.00000  Uiso   1.00
N640   N     0.42360   0.40171   0.34825   0.00000  Uiso   1.00
N641   N     0.32046   0.20955   0.90097   0.00000  Uiso   1.00
N642   N     0.54099   0.14525   0.49158   0.00000  Uiso   1.00
N643   N     0.35262   0.38035   0.45918   0.00000  Uiso   1.00
N644   N     0.24948   0.18819   0.01189   0.00000  Uiso   1.00
C645   C     0.95827   0.76115   0.20019   0.00000  Uiso   1.00
C646   C     0.98328   0.72987   0.27702   0.00000  Uiso   1.00
C647   C     0.04385   0.71547   0.27984   0.00000  Uiso   1.00
C648   C     0.05749   0.68692   0.35612   0.00000  Uiso   1.00
C649   C     0.10323   0.64044   0.46468   0.00000  Uiso   1.00
C650   C     0.93137   0.79467   0.26810   0.00000  Uiso   1.00
C651   C     0.94829   0.83475   0.26342   0.00000  Uiso   1.00
C652   C     0.91823   0.86074   0.33218   0.00000  Uiso   1.00
C653   C     0.88335   0.91486   0.42684   0.00000  Uiso   1.00
C654   C     0.90295   0.74170   0.14484   0.00000  Uiso   1.00
C655   C     0.89597   0.73726   0.03650   0.00000  Uiso   1.00
C656   C     0.84198   0.71866   0.00148   0.00000  Uiso   1.00
C657   C     0.76297   0.69055   0.90475   0.00000  Uiso   1.00
C658   C     0.87479   0.73603   0.33063   0.00000  Uiso   1.00
C659   C     0.93794   0.71623   0.34787   0.00000  Uiso   1.00
C660   C     0.95149   0.68768   0.42417   0.00000  Uiso   1.00
C661   C     0.01207   0.67325   0.42710   0.00000  Uiso   1.00
C662   C     0.88603   0.78102   0.33896   0.00000  Uiso   1.00
C663   C     0.85594   0.80696   0.40774   0.00000  Uiso   1.00
C664   C     0.87281   0.84707   0.40316   0.00000  Uiso   1.00
C665   C     0.85761   0.72806   0.21569   0.00000  Uiso   1.00
C666   C     0.80362   0.70946   0.18083   0.00000  Uiso   1.00
C667   C     0.79655   0.70499   0.07246   0.00000  Uiso   1.00
H668   H     0.99356   0.77177   0.14503   0.00000  Uiso   1.00
H669   H     0.07892   0.72604   0.22500   0.00000  Uiso   1.00
H670   H     0.98337   0.84530   0.20857   0.00000  Uiso   1.00
H671   H     0.93106   0.74782   0.98169   0.00000  Uiso   1.00
H672   H     0.15357   0.66933   0.34494   0.00000  Uiso   1.00
H673   H     0.95209   0.92080   0.31027   0.00000  Uiso   1.00
H674   H     0.84178   0.71524   0.83185   0.00000  Uiso   1.00
H675   H     0.83949   0.72541   0.38580   0.00000  Uiso   1.00
H676   H     0.91640   0.67713   0.47899   0.00000  Uiso   1.00
H677   H     0.82085   0.79639   0.46256   0.00000  Uiso   1.00
H678   H     0.76854   0.69891   0.23568   0.00000  Uiso   1.00
H679   H     0.02166   0.62964   0.55109   0.00000  Uiso   1.00
H680   H     0.82018   0.88110   0.51641   0.00000  Uiso   1.00
H681   H     0.70987   0.67555   0.03800   0.00000  Uiso   1.00
O682   O     0.14099   0.61858   0.50500   0.00000  Uiso   1.00
O683   O     0.87665   0.94848   0.45949   0.00000  Uiso   1.00
O684   O     0.73192   0.67880   0.83182   0.00000  Uiso   1.00
N685   N     0.11197   0.66661   0.38066   0.00000  Uiso   1.00
N686   N     0.92360   0.90171   0.34825   0.00000  Uiso   1.00
N687   N     0.82046   0.70955   0.90097   0.00000  Uiso   1.00
N688   N     0.04099   0.64525   0.49158   0.00000  Uiso   1.00
N689   N     0.85262   0.88035   0.45918   0.00000  Uiso   1.00
N690   N     0.74948   0.68819   0.01189   0.00000  Uiso   1.00
C691   C     0.95827   0.26115   0.70019   0.00000  Uiso   1.00
C692   C     0.98328   0.22987   0.77702   0.00000  Uiso   1.00
C693   C     0.04385   0.21547   0.77984   0.00000  Uiso   1.00
C694   C     0.05749   0.18692   0.85612   0.00000  Uiso   1.00
C695   C     0.10323   0.14044   0.96468   0.00000  Uiso   1.00
C696   C     0.93137   0.29467   0.76810   0.00000  Uiso   1.00
C697   C     0.94829   0.33475   0.76342   0.00000  Uiso   1.00
C698   C     0.91823   0.36074   0.83218   0.00000  Uiso   1.00
C699   C     0.88335   0.41486   0.92684   0.00000  Uiso   1.00
C700   C     0.90295   0.24170   0.64484   0.00000  Uiso   1.00
C701   C     0.89597   0.23726   0.53650   0.00000  Uiso   1.00
C702   C     0.84198   0.21866   0.50148   0.00000  Uiso   1.00
C703   C     0.76297   0.19055   0.40475   0.00000  Uiso   1.00
C704   C     0.87479   0.23603   0.83063   0.00000  Uiso   1.00
C705   C     0.93794   0.21623   0.84787   0.00000  Uiso   1.00
C706   C     0.95149   0.18768   0.92417   0.00000  Uiso   1.00
C707   C     0.01207   0.17325   0.92710   0.00000  Uiso   1.00
C708   C     0.88603   0.28102   0.83896   0.00000  Uiso   1.00
C709   C     0.85594   0.30696   0.90774   0.00000  Uiso   1.00
C710   C     0.87281   0.34707   0.90316   0.00000  Uiso   1.00
C711   C     0.85761   0.22806   0.71569   0.00000  Uiso   1.00
C712   C     0.80362   0.20946   0.68083   0.00000  Uiso   1.00
C713   C     0.79655   0.20499   0.57246   0.00000  Uiso   1.00
H714   H     0.99356   0.27177   0.64503   0.00000  Uiso   1.00
H715   H     0.07892   0.22604   0.72500   0.00000  Uiso   1.00
H716   H     0.98337   0.34530   0.70857   0.00000  Uiso   1.00
H717   H     0.93106   0.24782   0.48169   0.00000  Uiso   1.00
H718   H     0.15357   0.16933   0.84494   0.00000  Uiso   1.00
H719   H     0.95209   0.42080   0.81027   0.00000  Uiso   1.00
H720   H     0.84178   0.21524   0.33185   0.00000  Uiso   1.00
H721   H     0.83949   0.22541   0.88580   0.00000  Uiso   1.00
H722   H     0.91640   0.17713   0.97899   0.00000  Uiso   1.00
H723   H     0.82085   0.29639   0.96256   0.00000  Uiso   1.00
H724   H     0.76854   0.19891   0.73568   0.00000  Uiso   1.00
H725   H     0.02166   0.12964   0.05109   0.00000  Uiso   1.00
H726   H     0.82018   0.38110   0.01641   0.00000  Uiso   1.00
H727   H     0.70987   0.17555   0.53800   0.00000  Uiso   1.00
O728   O     0.14099   0.11858   0.00500   0.00000  Uiso   1.00
O729   O     0.87665   0.44848   0.95949   0.00000  Uiso   1.00
O730   O     0.73192   0.17880   0.33182   0.00000  Uiso   1.00
N731   N     0.11197   0.16661   0.88066   0.00000  Uiso   1.00
N732   N     0.92360   0.40171   0.84825   0.00000  Uiso   1.00
N733   N     0.82046   0.20955   0.40097   0.00000  Uiso   1.00
N734   N     0.04099   0.14525   0.99158   0.00000  Uiso   1.00
N735   N     0.85262   0.38035   0.95918   0.00000  Uiso   1.00
N736   N     0.74948   0.18819   0.51189   0.00000  Uiso   1.00
