data_job_04200
_audit_creation_date              2018-12-19
_audit_creation_method            'Materials Studio'
_symmetry_space_group_name_H-M    'P1'
_symmetry_Int_Tables_number       1
_symmetry_cell_setting            triclinic
loop_
_symmetry_equiv_pos_as_xyz
  x,y,z
_cell_length_a                    15.5537
_cell_length_b                    15.5537
_cell_length_c                    42.0504
_cell_angle_alpha                 90.0000
_cell_angle_beta                  90.0000
_cell_angle_gamma                 90.0000
loop_
_atom_site_label
_atom_site_type_symbol
_atom_site_fract_x
_atom_site_fract_y
_atom_site_fract_z
_atom_site_U_iso_or_equiv
_atom_site_adp_type
_atom_site_occupancy
C1     C     0.52964   0.25055   0.48021   0.00000  Uiso   1.00
C2     C     0.47130   0.30491   0.45911   0.00000  Uiso   1.00
C3     C     0.44774   0.38961   0.46474   0.00000  Uiso   1.00
C4     C     0.39383   0.42805   0.44260   0.00000  Uiso   1.00
C5     C     0.30765   0.51924   0.41393   0.00000  Uiso   1.00
C6     C     0.47794   0.17055   0.48879   0.00000  Uiso   1.00
C7     C     0.45997   0.14228   0.51938   0.00000  Uiso   1.00
C8     C     0.41166   0.06761   0.52222   0.00000  Uiso   1.00
C9     C     0.33584   0.95017   0.53962   0.00000  Uiso   1.00
C10    C     0.60278   0.21977   0.45891   0.00000  Uiso   1.00
C11    C     0.68980   0.23286   0.46439   0.00000  Uiso   1.00
C12    C     0.74660   0.19962   0.44208   0.00000  Uiso   1.00
C13    C     0.86462   0.15861   0.41309   0.00000  Uiso   1.00
C14    C     0.47579   0.16821   0.43086   0.00000  Uiso   1.00
C15    C     0.44205   0.26018   0.43231   0.00000  Uiso   1.00
C16    C     0.38816   0.29851   0.41015   0.00000  Uiso   1.00
C17    C     0.36453   0.38325   0.41575   0.00000  Uiso   1.00
C18    C     0.44869   0.12582   0.46199   0.00000  Uiso   1.00
C19    C     0.40039   0.05118   0.46478   0.00000  Uiso   1.00
C20    C     0.38235   0.02280   0.49537   0.00000  Uiso   1.00
C21    C     0.57354   0.17505   0.43211   0.00000  Uiso   1.00
C22    C     0.63021   0.14177   0.40979   0.00000  Uiso   1.00
C23    C     0.71729   0.15481   0.41523   0.00000  Uiso   1.00
H24    H     0.55242   0.28537   0.50108   0.00000  Uiso   1.00
H25    H     0.47039   0.42419   0.48549   0.00000  Uiso   1.00
H26    H     0.48262   0.17690   0.54012   0.00000  Uiso   1.00
H27    H     0.71241   0.26748   0.48513   0.00000  Uiso   1.00
H28    H     0.36652   0.55837   0.45640   0.00000  Uiso   1.00
H29    H     0.39234   0.03692   0.57158   0.00000  Uiso   1.00
H30    H     0.87689   0.22792   0.45563   0.00000  Uiso   1.00
H31    H     0.45302   0.13339   0.40999   0.00000  Uiso   1.00
H32    H     0.36554   0.26388   0.38941   0.00000  Uiso   1.00
H33    H     0.37777   0.01658   0.44404   0.00000  Uiso   1.00
H34    H     0.60756   0.10716   0.38905   0.00000  Uiso   1.00
H35    H     0.28141   0.42825   0.37841   0.00000  Uiso   1.00
H36    H     0.30724   0.90680   0.49360   0.00000  Uiso   1.00
H37    H     0.79179   0.09780   0.37765   0.00000  Uiso   1.00
O38    O     0.26819   0.58189   0.40551   0.00000  Uiso   1.00
O39    O     0.30209   0.89775   0.55663   0.00000  Uiso   1.00
O40    O     0.93780   0.14835   0.40451   0.00000  Uiso   1.00
N41    N     0.35851   0.50985   0.44087   0.00000  Uiso   1.00
N42    N     0.38264   0.02233   0.54855   0.00000  Uiso   1.00
N43    N     0.83566   0.20088   0.44016   0.00000  Uiso   1.00
N44    N     0.31272   0.43983   0.39890   0.00000  Uiso   1.00
N45    N     0.33685   0.95231   0.50659   0.00000  Uiso   1.00
N46    N     0.78986   0.13086   0.39820   0.00000  Uiso   1.00
C47    C     0.02964   0.75055   0.98021   0.00000  Uiso   1.00
C48    C     0.97130   0.80491   0.95911   0.00000  Uiso   1.00
C49    C     0.94774   0.88961   0.96474   0.00000  Uiso   1.00
C50    C     0.89383   0.92805   0.94260   0.00000  Uiso   1.00
C51    C     0.80765   0.01924   0.91393   0.00000  Uiso   1.00
C52    C     0.97794   0.67055   0.98879   0.00000  Uiso   1.00
C53    C     0.95997   0.64228   0.01938   0.00000  Uiso   1.00
C54    C     0.91166   0.56761   0.02222   0.00000  Uiso   1.00
C55    C     0.83584   0.45017   0.03962   0.00000  Uiso   1.00
C56    C     0.10278   0.71977   0.95891   0.00000  Uiso   1.00
C57    C     0.18980   0.73286   0.96439   0.00000  Uiso   1.00
C58    C     0.24660   0.69962   0.94208   0.00000  Uiso   1.00
C59    C     0.36462   0.65861   0.91309   0.00000  Uiso   1.00
C60    C     0.97579   0.66821   0.93086   0.00000  Uiso   1.00
C61    C     0.94205   0.76018   0.93231   0.00000  Uiso   1.00
C62    C     0.88816   0.79851   0.91015   0.00000  Uiso   1.00
C63    C     0.86453   0.88325   0.91575   0.00000  Uiso   1.00
C64    C     0.94869   0.62582   0.96199   0.00000  Uiso   1.00
C65    C     0.90039   0.55118   0.96478   0.00000  Uiso   1.00
C66    C     0.88235   0.52280   0.99537   0.00000  Uiso   1.00
C67    C     0.07354   0.67505   0.93211   0.00000  Uiso   1.00
C68    C     0.13021   0.64177   0.90979   0.00000  Uiso   1.00
C69    C     0.21729   0.65481   0.91523   0.00000  Uiso   1.00
H70    H     0.05242   0.78537   0.00108   0.00000  Uiso   1.00
H71    H     0.97039   0.92419   0.98549   0.00000  Uiso   1.00
H72    H     0.98262   0.67690   0.04012   0.00000  Uiso   1.00
H73    H     0.21241   0.76748   0.98513   0.00000  Uiso   1.00
H74    H     0.86652   0.05837   0.95640   0.00000  Uiso   1.00
H75    H     0.89234   0.53692   0.07158   0.00000  Uiso   1.00
H76    H     0.37689   0.72792   0.95563   0.00000  Uiso   1.00
H77    H     0.95302   0.63339   0.90999   0.00000  Uiso   1.00
H78    H     0.86554   0.76388   0.88941   0.00000  Uiso   1.00
H79    H     0.87777   0.51658   0.94404   0.00000  Uiso   1.00
H80    H     0.10756   0.60716   0.88905   0.00000  Uiso   1.00
H81    H     0.78141   0.92825   0.87841   0.00000  Uiso   1.00
H82    H     0.80724   0.40680   0.99360   0.00000  Uiso   1.00
H83    H     0.29179   0.59780   0.87765   0.00000  Uiso   1.00
O84    O     0.76819   0.08189   0.90551   0.00000  Uiso   1.00
O85    O     0.80209   0.39775   0.05663   0.00000  Uiso   1.00
O86    O     0.43780   0.64835   0.90451   0.00000  Uiso   1.00
N87    N     0.85851   0.00985   0.94087   0.00000  Uiso   1.00
N88    N     0.88264   0.52233   0.04855   0.00000  Uiso   1.00
N89    N     0.33566   0.70088   0.94016   0.00000  Uiso   1.00
N90    N     0.81272   0.93983   0.89890   0.00000  Uiso   1.00
N91    N     0.83685   0.45231   0.00659   0.00000  Uiso   1.00
N92    N     0.28986   0.63086   0.89820   0.00000  Uiso   1.00
C93    C     0.97036   0.24945   0.98021   0.00000  Uiso   1.00
C94    C     0.02870   0.19509   0.95911   0.00000  Uiso   1.00
C95    C     0.05226   0.11039   0.96474   0.00000  Uiso   1.00
C96    C     0.10617   0.07195   0.94260   0.00000  Uiso   1.00
C97    C     0.19235   0.98076   0.91393   0.00000  Uiso   1.00
C98    C     0.02206   0.32945   0.98879   0.00000  Uiso   1.00
C99    C     0.04003   0.35772   0.01938   0.00000  Uiso   1.00
C100   C     0.08834   0.43239   0.02222   0.00000  Uiso   1.00
C101   C     0.16416   0.54983   0.03962   0.00000  Uiso   1.00
C102   C     0.89722   0.28023   0.95891   0.00000  Uiso   1.00
C103   C     0.81020   0.26714   0.96439   0.00000  Uiso   1.00
C104   C     0.75340   0.30038   0.94208   0.00000  Uiso   1.00
C105   C     0.63538   0.34139   0.91309   0.00000  Uiso   1.00
C106   C     0.02421   0.33179   0.93086   0.00000  Uiso   1.00
C107   C     0.05795   0.23982   0.93231   0.00000  Uiso   1.00
C108   C     0.11184   0.20149   0.91015   0.00000  Uiso   1.00
C109   C     0.13547   0.11675   0.91575   0.00000  Uiso   1.00
C110   C     0.05131   0.37418   0.96199   0.00000  Uiso   1.00
C111   C     0.09961   0.44882   0.96478   0.00000  Uiso   1.00
C112   C     0.11765   0.47720   0.99537   0.00000  Uiso   1.00
C113   C     0.92646   0.32495   0.93211   0.00000  Uiso   1.00
C114   C     0.86979   0.35823   0.90979   0.00000  Uiso   1.00
C115   C     0.78271   0.34519   0.91523   0.00000  Uiso   1.00
H116   H     0.94758   0.21463   0.00108   0.00000  Uiso   1.00
H117   H     0.02961   0.07581   0.98549   0.00000  Uiso   1.00
H118   H     0.01738   0.32310   0.04012   0.00000  Uiso   1.00
H119   H     0.78759   0.23252   0.98513   0.00000  Uiso   1.00
H120   H     0.13348   0.94163   0.95640   0.00000  Uiso   1.00
H121   H     0.10766   0.46308   0.07158   0.00000  Uiso   1.00
H122   H     0.62311   0.27208   0.95563   0.00000  Uiso   1.00
H123   H     0.04698   0.36661   0.90999   0.00000  Uiso   1.00
H124   H     0.13446   0.23612   0.88941   0.00000  Uiso   1.00
H125   H     0.12223   0.48342   0.94404   0.00000  Uiso   1.00
H126   H     0.89244   0.39284   0.88905   0.00000  Uiso   1.00
H127   H     0.21859   0.07175   0.87841   0.00000  Uiso   1.00
H128   H     0.19276   0.59320   0.99360   0.00000  Uiso   1.00
H129   H     0.70821   0.40220   0.87765   0.00000  Uiso   1.00
O130   O     0.23181   0.91811   0.90551   0.00000  Uiso   1.00
O131   O     0.19791   0.60225   0.05663   0.00000  Uiso   1.00
O132   O     0.56220   0.35165   0.90451   0.00000  Uiso   1.00
N133   N     0.14149   0.99015   0.94087   0.00000  Uiso   1.00
N134   N     0.11736   0.47767   0.04855   0.00000  Uiso   1.00
N135   N     0.66434   0.29912   0.94016   0.00000  Uiso   1.00
N136   N     0.18728   0.06017   0.89890   0.00000  Uiso   1.00
N137   N     0.16315   0.54769   0.00659   0.00000  Uiso   1.00
N138   N     0.71014   0.36914   0.89820   0.00000  Uiso   1.00
C139   C     0.47036   0.74945   0.48021   0.00000  Uiso   1.00
C140   C     0.52870   0.69509   0.45911   0.00000  Uiso   1.00
C141   C     0.55226   0.61039   0.46474   0.00000  Uiso   1.00
C142   C     0.60617   0.57195   0.44260   0.00000  Uiso   1.00
C143   C     0.69235   0.48076   0.41393   0.00000  Uiso   1.00
C144   C     0.52206   0.82945   0.48879   0.00000  Uiso   1.00
C145   C     0.54003   0.85772   0.51938   0.00000  Uiso   1.00
C146   C     0.58834   0.93239   0.52222   0.00000  Uiso   1.00
C147   C     0.66416   0.04983   0.53962   0.00000  Uiso   1.00
C148   C     0.39722   0.78023   0.45891   0.00000  Uiso   1.00
C149   C     0.31020   0.76714   0.46439   0.00000  Uiso   1.00
C150   C     0.25340   0.80038   0.44208   0.00000  Uiso   1.00
C151   C     0.13538   0.84139   0.41309   0.00000  Uiso   1.00
C152   C     0.52421   0.83179   0.43086   0.00000  Uiso   1.00
C153   C     0.55795   0.73982   0.43231   0.00000  Uiso   1.00
C154   C     0.61184   0.70149   0.41015   0.00000  Uiso   1.00
C155   C     0.63547   0.61675   0.41575   0.00000  Uiso   1.00
C156   C     0.55131   0.87418   0.46199   0.00000  Uiso   1.00
C157   C     0.59961   0.94882   0.46478   0.00000  Uiso   1.00
C158   C     0.61765   0.97720   0.49537   0.00000  Uiso   1.00
C159   C     0.42646   0.82495   0.43211   0.00000  Uiso   1.00
C160   C     0.36979   0.85823   0.40979   0.00000  Uiso   1.00
C161   C     0.28271   0.84519   0.41523   0.00000  Uiso   1.00
H162   H     0.44758   0.71463   0.50108   0.00000  Uiso   1.00
H163   H     0.52961   0.57581   0.48549   0.00000  Uiso   1.00
H164   H     0.51738   0.82310   0.54012   0.00000  Uiso   1.00
H165   H     0.28759   0.73252   0.48513   0.00000  Uiso   1.00
H166   H     0.63348   0.44163   0.45640   0.00000  Uiso   1.00
H167   H     0.60766   0.96308   0.57158   0.00000  Uiso   1.00
H168   H     0.12311   0.77208   0.45563   0.00000  Uiso   1.00
H169   H     0.54698   0.86661   0.40999   0.00000  Uiso   1.00
H170   H     0.63446   0.73612   0.38941   0.00000  Uiso   1.00
H171   H     0.62223   0.98342   0.44404   0.00000  Uiso   1.00
H172   H     0.39244   0.89284   0.38905   0.00000  Uiso   1.00
H173   H     0.71859   0.57175   0.37841   0.00000  Uiso   1.00
H174   H     0.69276   0.09320   0.49360   0.00000  Uiso   1.00
H175   H     0.20821   0.90220   0.37765   0.00000  Uiso   1.00
O176   O     0.73181   0.41811   0.40551   0.00000  Uiso   1.00
O177   O     0.69791   0.10225   0.55663   0.00000  Uiso   1.00
O178   O     0.06220   0.85165   0.40451   0.00000  Uiso   1.00
N179   N     0.64149   0.49015   0.44087   0.00000  Uiso   1.00
N180   N     0.61736   0.97767   0.54855   0.00000  Uiso   1.00
N181   N     0.16434   0.79912   0.44016   0.00000  Uiso   1.00
N182   N     0.68728   0.56017   0.39890   0.00000  Uiso   1.00
N183   N     0.66315   0.04769   0.50659   0.00000  Uiso   1.00
N184   N     0.21014   0.86914   0.39820   0.00000  Uiso   1.00
C185   C     0.74945   0.02964   0.73021   0.00000  Uiso   1.00
C186   C     0.69509   0.97130   0.70911   0.00000  Uiso   1.00
C187   C     0.61039   0.94774   0.71474   0.00000  Uiso   1.00
C188   C     0.57195   0.89383   0.69260   0.00000  Uiso   1.00
C189   C     0.48076   0.80765   0.66393   0.00000  Uiso   1.00
C190   C     0.82945   0.97794   0.73879   0.00000  Uiso   1.00
C191   C     0.85772   0.95997   0.76938   0.00000  Uiso   1.00
C192   C     0.93239   0.91166   0.77222   0.00000  Uiso   1.00
C193   C     0.04983   0.83584   0.78962   0.00000  Uiso   1.00
C194   C     0.78023   0.10278   0.70891   0.00000  Uiso   1.00
C195   C     0.76714   0.18980   0.71439   0.00000  Uiso   1.00
C196   C     0.80038   0.24660   0.69208   0.00000  Uiso   1.00
C197   C     0.84139   0.36462   0.66309   0.00000  Uiso   1.00
C198   C     0.83179   0.97579   0.68086   0.00000  Uiso   1.00
C199   C     0.73982   0.94205   0.68231   0.00000  Uiso   1.00
C200   C     0.70149   0.88816   0.66015   0.00000  Uiso   1.00
C201   C     0.61675   0.86453   0.66575   0.00000  Uiso   1.00
C202   C     0.87418   0.94869   0.71199   0.00000  Uiso   1.00
C203   C     0.94882   0.90039   0.71478   0.00000  Uiso   1.00
C204   C     0.97720   0.88235   0.74537   0.00000  Uiso   1.00
C205   C     0.82495   0.07354   0.68211   0.00000  Uiso   1.00
C206   C     0.85823   0.13021   0.65979   0.00000  Uiso   1.00
C207   C     0.84519   0.21729   0.66523   0.00000  Uiso   1.00
H208   H     0.71463   0.05242   0.75108   0.00000  Uiso   1.00
H209   H     0.57581   0.97039   0.73549   0.00000  Uiso   1.00
H210   H     0.82310   0.98262   0.79012   0.00000  Uiso   1.00
H211   H     0.73252   0.21241   0.73513   0.00000  Uiso   1.00
H212   H     0.44163   0.86652   0.70640   0.00000  Uiso   1.00
H213   H     0.96308   0.89234   0.82158   0.00000  Uiso   1.00
H214   H     0.77208   0.37689   0.70563   0.00000  Uiso   1.00
H215   H     0.86661   0.95302   0.65999   0.00000  Uiso   1.00
H216   H     0.73612   0.86554   0.63941   0.00000  Uiso   1.00
H217   H     0.98342   0.87777   0.69404   0.00000  Uiso   1.00
H218   H     0.89284   0.10756   0.63905   0.00000  Uiso   1.00
H219   H     0.57175   0.78141   0.62841   0.00000  Uiso   1.00
H220   H     0.09320   0.80724   0.74360   0.00000  Uiso   1.00
H221   H     0.90220   0.29179   0.62765   0.00000  Uiso   1.00
O222   O     0.41811   0.76819   0.65551   0.00000  Uiso   1.00
O223   O     0.10225   0.80209   0.80663   0.00000  Uiso   1.00
O224   O     0.85165   0.43780   0.65451   0.00000  Uiso   1.00
N225   N     0.49015   0.85851   0.69087   0.00000  Uiso   1.00
N226   N     0.97767   0.88264   0.79855   0.00000  Uiso   1.00
N227   N     0.79912   0.33566   0.69016   0.00000  Uiso   1.00
N228   N     0.56017   0.81272   0.64890   0.00000  Uiso   1.00
N229   N     0.04769   0.83685   0.75659   0.00000  Uiso   1.00
N230   N     0.86914   0.28986   0.64820   0.00000  Uiso   1.00
C231   C     0.24945   0.52964   0.23021   0.00000  Uiso   1.00
C232   C     0.19509   0.47130   0.20911   0.00000  Uiso   1.00
C233   C     0.11039   0.44774   0.21474   0.00000  Uiso   1.00
C234   C     0.07195   0.39383   0.19260   0.00000  Uiso   1.00
C235   C     0.98076   0.30765   0.16393   0.00000  Uiso   1.00
C236   C     0.32945   0.47794   0.23879   0.00000  Uiso   1.00
C237   C     0.35772   0.45997   0.26938   0.00000  Uiso   1.00
C238   C     0.43239   0.41166   0.27222   0.00000  Uiso   1.00
C239   C     0.54983   0.33584   0.28962   0.00000  Uiso   1.00
C240   C     0.28023   0.60278   0.20891   0.00000  Uiso   1.00
C241   C     0.26714   0.68980   0.21439   0.00000  Uiso   1.00
C242   C     0.30038   0.74660   0.19208   0.00000  Uiso   1.00
C243   C     0.34139   0.86462   0.16309   0.00000  Uiso   1.00
C244   C     0.33179   0.47579   0.18086   0.00000  Uiso   1.00
C245   C     0.23982   0.44205   0.18231   0.00000  Uiso   1.00
C246   C     0.20149   0.38816   0.16015   0.00000  Uiso   1.00
C247   C     0.11675   0.36453   0.16575   0.00000  Uiso   1.00
C248   C     0.37418   0.44869   0.21199   0.00000  Uiso   1.00
C249   C     0.44882   0.40039   0.21478   0.00000  Uiso   1.00
C250   C     0.47720   0.38235   0.24537   0.00000  Uiso   1.00
C251   C     0.32495   0.57354   0.18211   0.00000  Uiso   1.00
C252   C     0.35823   0.63021   0.15979   0.00000  Uiso   1.00
C253   C     0.34519   0.71729   0.16523   0.00000  Uiso   1.00
H254   H     0.21463   0.55242   0.25108   0.00000  Uiso   1.00
H255   H     0.07581   0.47039   0.23549   0.00000  Uiso   1.00
H256   H     0.32310   0.48262   0.29012   0.00000  Uiso   1.00
H257   H     0.23252   0.71241   0.23513   0.00000  Uiso   1.00
H258   H     0.94163   0.36652   0.20640   0.00000  Uiso   1.00
H259   H     0.46308   0.39234   0.32158   0.00000  Uiso   1.00
H260   H     0.27208   0.87689   0.20563   0.00000  Uiso   1.00
H261   H     0.36661   0.45302   0.15999   0.00000  Uiso   1.00
H262   H     0.23612   0.36554   0.13941   0.00000  Uiso   1.00
H263   H     0.48342   0.37777   0.19404   0.00000  Uiso   1.00
H264   H     0.39284   0.60756   0.13905   0.00000  Uiso   1.00
H265   H     0.07175   0.28141   0.12841   0.00000  Uiso   1.00
H266   H     0.59320   0.30724   0.24360   0.00000  Uiso   1.00
H267   H     0.40220   0.79179   0.12765   0.00000  Uiso   1.00
O268   O     0.91811   0.26819   0.15551   0.00000  Uiso   1.00
O269   O     0.60225   0.30209   0.30663   0.00000  Uiso   1.00
O270   O     0.35165   0.93780   0.15451   0.00000  Uiso   1.00
N271   N     0.99015   0.35851   0.19087   0.00000  Uiso   1.00
N272   N     0.47767   0.38264   0.29855   0.00000  Uiso   1.00
N273   N     0.29912   0.83566   0.19016   0.00000  Uiso   1.00
N274   N     0.06017   0.31272   0.14890   0.00000  Uiso   1.00
N275   N     0.54769   0.33685   0.25659   0.00000  Uiso   1.00
N276   N     0.36914   0.78986   0.14820   0.00000  Uiso   1.00
C277   C     0.75055   0.47036   0.23021   0.00000  Uiso   1.00
C278   C     0.80491   0.52870   0.20911   0.00000  Uiso   1.00
C279   C     0.88961   0.55226   0.21474   0.00000  Uiso   1.00
C280   C     0.92805   0.60617   0.19260   0.00000  Uiso   1.00
C281   C     0.01924   0.69235   0.16393   0.00000  Uiso   1.00
C282   C     0.67055   0.52206   0.23879   0.00000  Uiso   1.00
C283   C     0.64228   0.54003   0.26938   0.00000  Uiso   1.00
C284   C     0.56761   0.58834   0.27222   0.00000  Uiso   1.00
C285   C     0.45017   0.66416   0.28962   0.00000  Uiso   1.00
C286   C     0.71977   0.39722   0.20891   0.00000  Uiso   1.00
C287   C     0.73286   0.31020   0.21439   0.00000  Uiso   1.00
C288   C     0.69962   0.25340   0.19208   0.00000  Uiso   1.00
C289   C     0.65861   0.13538   0.16309   0.00000  Uiso   1.00
C290   C     0.66821   0.52421   0.18086   0.00000  Uiso   1.00
C291   C     0.76018   0.55795   0.18231   0.00000  Uiso   1.00
C292   C     0.79851   0.61184   0.16015   0.00000  Uiso   1.00
C293   C     0.88325   0.63547   0.16575   0.00000  Uiso   1.00
C294   C     0.62582   0.55131   0.21199   0.00000  Uiso   1.00
C295   C     0.55118   0.59961   0.21478   0.00000  Uiso   1.00
C296   C     0.52280   0.61765   0.24537   0.00000  Uiso   1.00
C297   C     0.67505   0.42646   0.18211   0.00000  Uiso   1.00
C298   C     0.64177   0.36979   0.15979   0.00000  Uiso   1.00
C299   C     0.65481   0.28271   0.16523   0.00000  Uiso   1.00
H300   H     0.78537   0.44758   0.25108   0.00000  Uiso   1.00
H301   H     0.92419   0.52961   0.23549   0.00000  Uiso   1.00
H302   H     0.67690   0.51738   0.29012   0.00000  Uiso   1.00
H303   H     0.76748   0.28759   0.23513   0.00000  Uiso   1.00
H304   H     0.05837   0.63348   0.20640   0.00000  Uiso   1.00
H305   H     0.53692   0.60766   0.32158   0.00000  Uiso   1.00
H306   H     0.72792   0.12311   0.20563   0.00000  Uiso   1.00
H307   H     0.63339   0.54698   0.15999   0.00000  Uiso   1.00
H308   H     0.76388   0.63446   0.13941   0.00000  Uiso   1.00
H309   H     0.51658   0.62223   0.19404   0.00000  Uiso   1.00
H310   H     0.60716   0.39244   0.13905   0.00000  Uiso   1.00
H311   H     0.92825   0.71859   0.12841   0.00000  Uiso   1.00
H312   H     0.40680   0.69276   0.24360   0.00000  Uiso   1.00
H313   H     0.59780   0.20821   0.12765   0.00000  Uiso   1.00
O314   O     0.08189   0.73181   0.15551   0.00000  Uiso   1.00
O315   O     0.39775   0.69791   0.30663   0.00000  Uiso   1.00
O316   O     0.64835   0.06220   0.15451   0.00000  Uiso   1.00
N317   N     0.00985   0.64149   0.19087   0.00000  Uiso   1.00
N318   N     0.52233   0.61736   0.29855   0.00000  Uiso   1.00
N319   N     0.70088   0.16434   0.19016   0.00000  Uiso   1.00
N320   N     0.93983   0.68728   0.14890   0.00000  Uiso   1.00
N321   N     0.45231   0.66315   0.25659   0.00000  Uiso   1.00
N322   N     0.63086   0.21014   0.14820   0.00000  Uiso   1.00
C323   C     0.25055   0.97036   0.73021   0.00000  Uiso   1.00
C324   C     0.30491   0.02870   0.70911   0.00000  Uiso   1.00
C325   C     0.38961   0.05226   0.71474   0.00000  Uiso   1.00
C326   C     0.42805   0.10617   0.69260   0.00000  Uiso   1.00
C327   C     0.51924   0.19235   0.66393   0.00000  Uiso   1.00
C328   C     0.17055   0.02206   0.73879   0.00000  Uiso   1.00
C329   C     0.14228   0.04003   0.76938   0.00000  Uiso   1.00
C330   C     0.06761   0.08834   0.77222   0.00000  Uiso   1.00
C331   C     0.95017   0.16416   0.78962   0.00000  Uiso   1.00
C332   C     0.21977   0.89722   0.70891   0.00000  Uiso   1.00
C333   C     0.23286   0.81020   0.71439   0.00000  Uiso   1.00
C334   C     0.19962   0.75340   0.69208   0.00000  Uiso   1.00
C335   C     0.15861   0.63538   0.66309   0.00000  Uiso   1.00
C336   C     0.16821   0.02421   0.68086   0.00000  Uiso   1.00
C337   C     0.26018   0.05795   0.68231   0.00000  Uiso   1.00
C338   C     0.29851   0.11184   0.66015   0.00000  Uiso   1.00
C339   C     0.38325   0.13547   0.66575   0.00000  Uiso   1.00
C340   C     0.12582   0.05131   0.71199   0.00000  Uiso   1.00
C341   C     0.05118   0.09961   0.71478   0.00000  Uiso   1.00
C342   C     0.02280   0.11765   0.74537   0.00000  Uiso   1.00
C343   C     0.17505   0.92646   0.68211   0.00000  Uiso   1.00
C344   C     0.14177   0.86979   0.65979   0.00000  Uiso   1.00
C345   C     0.15481   0.78271   0.66523   0.00000  Uiso   1.00
H346   H     0.28537   0.94758   0.75108   0.00000  Uiso   1.00
H347   H     0.42419   0.02961   0.73549   0.00000  Uiso   1.00
H348   H     0.17690   0.01738   0.79012   0.00000  Uiso   1.00
H349   H     0.26748   0.78759   0.73513   0.00000  Uiso   1.00
H350   H     0.55837   0.13348   0.70640   0.00000  Uiso   1.00
H351   H     0.03692   0.10766   0.82158   0.00000  Uiso   1.00
H352   H     0.22792   0.62311   0.70563   0.00000  Uiso   1.00
H353   H     0.13339   0.04698   0.65999   0.00000  Uiso   1.00
H354   H     0.26388   0.13446   0.63941   0.00000  Uiso   1.00
H355   H     0.01658   0.12223   0.69404   0.00000  Uiso   1.00
H356   H     0.10716   0.89244   0.63905   0.00000  Uiso   1.00
H357   H     0.42825   0.21859   0.62841   0.00000  Uiso   1.00
H358   H     0.90680   0.19276   0.74360   0.00000  Uiso   1.00
H359   H     0.09780   0.70821   0.62765   0.00000  Uiso   1.00
O360   O     0.58189   0.23181   0.65551   0.00000  Uiso   1.00
O361   O     0.89775   0.19791   0.80663   0.00000  Uiso   1.00
O362   O     0.14835   0.56220   0.65451   0.00000  Uiso   1.00
N363   N     0.50985   0.14149   0.69087   0.00000  Uiso   1.00
N364   N     0.02233   0.11736   0.79855   0.00000  Uiso   1.00
N365   N     0.20088   0.66434   0.69016   0.00000  Uiso   1.00
N366   N     0.43983   0.18728   0.64890   0.00000  Uiso   1.00
N367   N     0.95231   0.16315   0.75659   0.00000  Uiso   1.00
N368   N     0.13086   0.71014   0.64820   0.00000  Uiso   1.00
C369   C     0.47036   0.24945   0.76979   0.00000  Uiso   1.00
C370   C     0.52870   0.19509   0.79089   0.00000  Uiso   1.00
C371   C     0.55226   0.11039   0.78526   0.00000  Uiso   1.00
C372   C     0.60617   0.07195   0.80740   0.00000  Uiso   1.00
C373   C     0.69235   0.98076   0.83607   0.00000  Uiso   1.00
C374   C     0.52206   0.32945   0.76121   0.00000  Uiso   1.00
C375   C     0.54003   0.35772   0.73062   0.00000  Uiso   1.00
C376   C     0.58834   0.43239   0.72778   0.00000  Uiso   1.00
C377   C     0.66416   0.54983   0.71038   0.00000  Uiso   1.00
C378   C     0.39722   0.28023   0.79109   0.00000  Uiso   1.00
C379   C     0.31020   0.26714   0.78561   0.00000  Uiso   1.00
C380   C     0.25340   0.30038   0.80792   0.00000  Uiso   1.00
C381   C     0.13538   0.34139   0.83691   0.00000  Uiso   1.00
C382   C     0.52421   0.33179   0.81914   0.00000  Uiso   1.00
C383   C     0.55795   0.23982   0.81769   0.00000  Uiso   1.00
C384   C     0.61184   0.20149   0.83985   0.00000  Uiso   1.00
C385   C     0.63547   0.11675   0.83425   0.00000  Uiso   1.00
C386   C     0.55131   0.37418   0.78801   0.00000  Uiso   1.00
C387   C     0.59961   0.44882   0.78522   0.00000  Uiso   1.00
C388   C     0.61765   0.47720   0.75463   0.00000  Uiso   1.00
C389   C     0.42646   0.32495   0.81789   0.00000  Uiso   1.00
C390   C     0.36979   0.35823   0.84021   0.00000  Uiso   1.00
C391   C     0.28271   0.34519   0.83477   0.00000  Uiso   1.00
H392   H     0.44758   0.21463   0.74892   0.00000  Uiso   1.00
H393   H     0.52961   0.07581   0.76451   0.00000  Uiso   1.00
H394   H     0.51738   0.32310   0.70988   0.00000  Uiso   1.00
H395   H     0.28759   0.23252   0.76487   0.00000  Uiso   1.00
H396   H     0.63348   0.94163   0.79360   0.00000  Uiso   1.00
H397   H     0.60766   0.46308   0.67842   0.00000  Uiso   1.00
H398   H     0.12311   0.27208   0.79437   0.00000  Uiso   1.00
H399   H     0.54698   0.36661   0.84001   0.00000  Uiso   1.00
H400   H     0.63446   0.23612   0.86059   0.00000  Uiso   1.00
H401   H     0.62223   0.48342   0.80596   0.00000  Uiso   1.00
H402   H     0.39244   0.39284   0.86095   0.00000  Uiso   1.00
H403   H     0.71859   0.07175   0.87159   0.00000  Uiso   1.00
H404   H     0.69276   0.59320   0.75640   0.00000  Uiso   1.00
H405   H     0.20821   0.40220   0.87235   0.00000  Uiso   1.00
O406   O     0.73181   0.91811   0.84449   0.00000  Uiso   1.00
O407   O     0.69791   0.60225   0.69337   0.00000  Uiso   1.00
O408   O     0.06220   0.35165   0.84549   0.00000  Uiso   1.00
N409   N     0.64149   0.99015   0.80913   0.00000  Uiso   1.00
N410   N     0.61736   0.47767   0.70145   0.00000  Uiso   1.00
N411   N     0.16434   0.29912   0.80984   0.00000  Uiso   1.00
N412   N     0.68728   0.06017   0.85110   0.00000  Uiso   1.00
N413   N     0.66315   0.54769   0.74341   0.00000  Uiso   1.00
N414   N     0.21014   0.36914   0.85180   0.00000  Uiso   1.00
C415   C     0.97036   0.74945   0.26979   0.00000  Uiso   1.00
C416   C     0.02870   0.69509   0.29089   0.00000  Uiso   1.00
C417   C     0.05226   0.61039   0.28526   0.00000  Uiso   1.00
C418   C     0.10617   0.57195   0.30740   0.00000  Uiso   1.00
C419   C     0.19235   0.48076   0.33607   0.00000  Uiso   1.00
C420   C     0.02206   0.82945   0.26121   0.00000  Uiso   1.00
C421   C     0.04003   0.85772   0.23062   0.00000  Uiso   1.00
C422   C     0.08834   0.93239   0.22778   0.00000  Uiso   1.00
C423   C     0.16416   0.04983   0.21038   0.00000  Uiso   1.00
C424   C     0.89722   0.78023   0.29109   0.00000  Uiso   1.00
C425   C     0.81020   0.76714   0.28561   0.00000  Uiso   1.00
C426   C     0.75340   0.80038   0.30792   0.00000  Uiso   1.00
C427   C     0.63538   0.84139   0.33691   0.00000  Uiso   1.00
C428   C     0.02421   0.83179   0.31914   0.00000  Uiso   1.00
C429   C     0.05795   0.73982   0.31769   0.00000  Uiso   1.00
C430   C     0.11184   0.70149   0.33985   0.00000  Uiso   1.00
C431   C     0.13547   0.61675   0.33425   0.00000  Uiso   1.00
C432   C     0.05131   0.87418   0.28801   0.00000  Uiso   1.00
C433   C     0.09961   0.94882   0.28522   0.00000  Uiso   1.00
C434   C     0.11765   0.97720   0.25463   0.00000  Uiso   1.00
C435   C     0.92646   0.82495   0.31789   0.00000  Uiso   1.00
C436   C     0.86979   0.85823   0.34021   0.00000  Uiso   1.00
C437   C     0.78271   0.84519   0.33477   0.00000  Uiso   1.00
H438   H     0.94758   0.71463   0.24892   0.00000  Uiso   1.00
H439   H     0.02961   0.57581   0.26451   0.00000  Uiso   1.00
H440   H     0.01738   0.82310   0.20988   0.00000  Uiso   1.00
H441   H     0.78759   0.73252   0.26487   0.00000  Uiso   1.00
H442   H     0.13348   0.44163   0.29360   0.00000  Uiso   1.00
H443   H     0.10766   0.96308   0.17842   0.00000  Uiso   1.00
H444   H     0.62311   0.77208   0.29437   0.00000  Uiso   1.00
H445   H     0.04698   0.86661   0.34001   0.00000  Uiso   1.00
H446   H     0.13446   0.73612   0.36059   0.00000  Uiso   1.00
H447   H     0.12223   0.98342   0.30596   0.00000  Uiso   1.00
H448   H     0.89244   0.89284   0.36095   0.00000  Uiso   1.00
H449   H     0.21859   0.57175   0.37159   0.00000  Uiso   1.00
H450   H     0.19276   0.09320   0.25640   0.00000  Uiso   1.00
H451   H     0.70821   0.90220   0.37235   0.00000  Uiso   1.00
O452   O     0.23181   0.41811   0.34449   0.00000  Uiso   1.00
O453   O     0.19791   0.10225   0.19337   0.00000  Uiso   1.00
O454   O     0.56220   0.85165   0.34549   0.00000  Uiso   1.00
N455   N     0.14149   0.49015   0.30913   0.00000  Uiso   1.00
N456   N     0.11736   0.97767   0.20145   0.00000  Uiso   1.00
N457   N     0.66434   0.79912   0.30984   0.00000  Uiso   1.00
N458   N     0.18728   0.56017   0.35110   0.00000  Uiso   1.00
N459   N     0.16315   0.04769   0.24341   0.00000  Uiso   1.00
N460   N     0.71014   0.86914   0.35180   0.00000  Uiso   1.00
C461   C     0.02964   0.25055   0.26979   0.00000  Uiso   1.00
C462   C     0.97130   0.30491   0.29089   0.00000  Uiso   1.00
C463   C     0.94774   0.38961   0.28526   0.00000  Uiso   1.00
C464   C     0.89383   0.42805   0.30740   0.00000  Uiso   1.00
C465   C     0.80765   0.51924   0.33607   0.00000  Uiso   1.00
C466   C     0.97794   0.17055   0.26121   0.00000  Uiso   1.00
C467   C     0.95997   0.14228   0.23062   0.00000  Uiso   1.00
C468   C     0.91166   0.06761   0.22778   0.00000  Uiso   1.00
C469   C     0.83584   0.95017   0.21038   0.00000  Uiso   1.00
C470   C     0.10278   0.21977   0.29109   0.00000  Uiso   1.00
C471   C     0.18980   0.23286   0.28561   0.00000  Uiso   1.00
C472   C     0.24660   0.19962   0.30792   0.00000  Uiso   1.00
C473   C     0.36462   0.15861   0.33691   0.00000  Uiso   1.00
C474   C     0.97579   0.16821   0.31914   0.00000  Uiso   1.00
C475   C     0.94205   0.26018   0.31769   0.00000  Uiso   1.00
C476   C     0.88816   0.29851   0.33985   0.00000  Uiso   1.00
C477   C     0.86453   0.38325   0.33425   0.00000  Uiso   1.00
C478   C     0.94869   0.12582   0.28801   0.00000  Uiso   1.00
C479   C     0.90039   0.05118   0.28522   0.00000  Uiso   1.00
C480   C     0.88235   0.02280   0.25463   0.00000  Uiso   1.00
C481   C     0.07354   0.17505   0.31789   0.00000  Uiso   1.00
C482   C     0.13021   0.14177   0.34021   0.00000  Uiso   1.00
C483   C     0.21729   0.15481   0.33477   0.00000  Uiso   1.00
H484   H     0.05242   0.28537   0.24892   0.00000  Uiso   1.00
H485   H     0.97039   0.42419   0.26451   0.00000  Uiso   1.00
H486   H     0.98262   0.17690   0.20988   0.00000  Uiso   1.00
H487   H     0.21241   0.26748   0.26487   0.00000  Uiso   1.00
H488   H     0.86652   0.55837   0.29360   0.00000  Uiso   1.00
H489   H     0.89234   0.03692   0.17842   0.00000  Uiso   1.00
H490   H     0.37689   0.22792   0.29437   0.00000  Uiso   1.00
H491   H     0.95302   0.13339   0.34001   0.00000  Uiso   1.00
H492   H     0.86554   0.26388   0.36059   0.00000  Uiso   1.00
H493   H     0.87777   0.01658   0.30596   0.00000  Uiso   1.00
H494   H     0.10756   0.10716   0.36095   0.00000  Uiso   1.00
H495   H     0.78141   0.42825   0.37159   0.00000  Uiso   1.00
H496   H     0.80724   0.90680   0.25640   0.00000  Uiso   1.00
H497   H     0.29179   0.09780   0.37235   0.00000  Uiso   1.00
O498   O     0.76819   0.58189   0.34449   0.00000  Uiso   1.00
O499   O     0.80209   0.89775   0.19337   0.00000  Uiso   1.00
O500   O     0.43780   0.14835   0.34549   0.00000  Uiso   1.00
N501   N     0.85851   0.50985   0.30913   0.00000  Uiso   1.00
N502   N     0.88264   0.02233   0.20145   0.00000  Uiso   1.00
N503   N     0.33566   0.20088   0.30984   0.00000  Uiso   1.00
N504   N     0.81272   0.43983   0.35110   0.00000  Uiso   1.00
N505   N     0.83685   0.95231   0.24341   0.00000  Uiso   1.00
N506   N     0.28986   0.13086   0.35180   0.00000  Uiso   1.00
C507   C     0.52964   0.75055   0.76979   0.00000  Uiso   1.00
C508   C     0.47130   0.80491   0.79089   0.00000  Uiso   1.00
C509   C     0.44774   0.88961   0.78526   0.00000  Uiso   1.00
C510   C     0.39383   0.92805   0.80740   0.00000  Uiso   1.00
C511   C     0.30765   0.01924   0.83607   0.00000  Uiso   1.00
C512   C     0.47794   0.67055   0.76121   0.00000  Uiso   1.00
C513   C     0.45997   0.64228   0.73062   0.00000  Uiso   1.00
C514   C     0.41166   0.56761   0.72778   0.00000  Uiso   1.00
C515   C     0.33584   0.45017   0.71038   0.00000  Uiso   1.00
C516   C     0.60278   0.71977   0.79109   0.00000  Uiso   1.00
C517   C     0.68980   0.73286   0.78561   0.00000  Uiso   1.00
C518   C     0.74660   0.69962   0.80792   0.00000  Uiso   1.00
C519   C     0.86462   0.65861   0.83691   0.00000  Uiso   1.00
C520   C     0.47579   0.66821   0.81914   0.00000  Uiso   1.00
C521   C     0.44205   0.76018   0.81769   0.00000  Uiso   1.00
C522   C     0.38816   0.79851   0.83985   0.00000  Uiso   1.00
C523   C     0.36453   0.88325   0.83425   0.00000  Uiso   1.00
C524   C     0.44869   0.62582   0.78801   0.00000  Uiso   1.00
C525   C     0.40039   0.55118   0.78522   0.00000  Uiso   1.00
C526   C     0.38235   0.52280   0.75463   0.00000  Uiso   1.00
C527   C     0.57354   0.67505   0.81789   0.00000  Uiso   1.00
C528   C     0.63021   0.64177   0.84021   0.00000  Uiso   1.00
C529   C     0.71729   0.65481   0.83477   0.00000  Uiso   1.00
H530   H     0.55242   0.78537   0.74892   0.00000  Uiso   1.00
H531   H     0.47039   0.92419   0.76451   0.00000  Uiso   1.00
H532   H     0.48262   0.67690   0.70988   0.00000  Uiso   1.00
H533   H     0.71241   0.76748   0.76487   0.00000  Uiso   1.00
H534   H     0.36652   0.05837   0.79360   0.00000  Uiso   1.00
H535   H     0.39234   0.53692   0.67842   0.00000  Uiso   1.00
H536   H     0.87689   0.72792   0.79437   0.00000  Uiso   1.00
H537   H     0.45302   0.63339   0.84001   0.00000  Uiso   1.00
H538   H     0.36554   0.76388   0.86059   0.00000  Uiso   1.00
H539   H     0.37777   0.51658   0.80596   0.00000  Uiso   1.00
H540   H     0.60756   0.60716   0.86095   0.00000  Uiso   1.00
H541   H     0.28141   0.92825   0.87159   0.00000  Uiso   1.00
H542   H     0.30724   0.40680   0.75640   0.00000  Uiso   1.00
H543   H     0.79179   0.59780   0.87235   0.00000  Uiso   1.00
O544   O     0.26819   0.08189   0.84449   0.00000  Uiso   1.00
O545   O     0.30209   0.39775   0.69337   0.00000  Uiso   1.00
O546   O     0.93780   0.64835   0.84549   0.00000  Uiso   1.00
N547   N     0.35851   0.00985   0.80913   0.00000  Uiso   1.00
N548   N     0.38264   0.52233   0.70145   0.00000  Uiso   1.00
N549   N     0.83566   0.70088   0.80984   0.00000  Uiso   1.00
N550   N     0.31272   0.93983   0.85110   0.00000  Uiso   1.00
N551   N     0.33685   0.45231   0.74341   0.00000  Uiso   1.00
N552   N     0.78986   0.63086   0.85180   0.00000  Uiso   1.00
C553   C     0.25055   0.47036   0.51979   0.00000  Uiso   1.00
C554   C     0.30491   0.52870   0.54089   0.00000  Uiso   1.00
C555   C     0.38961   0.55226   0.53526   0.00000  Uiso   1.00
C556   C     0.42805   0.60617   0.55740   0.00000  Uiso   1.00
C557   C     0.51924   0.69235   0.58607   0.00000  Uiso   1.00
C558   C     0.17055   0.52206   0.51121   0.00000  Uiso   1.00
C559   C     0.14228   0.54003   0.48062   0.00000  Uiso   1.00
C560   C     0.06761   0.58834   0.47778   0.00000  Uiso   1.00
C561   C     0.95017   0.66416   0.46038   0.00000  Uiso   1.00
C562   C     0.21977   0.39722   0.54109   0.00000  Uiso   1.00
C563   C     0.23286   0.31020   0.53561   0.00000  Uiso   1.00
C564   C     0.19962   0.25340   0.55792   0.00000  Uiso   1.00
C565   C     0.15861   0.13538   0.58691   0.00000  Uiso   1.00
C566   C     0.16821   0.52421   0.56914   0.00000  Uiso   1.00
C567   C     0.26018   0.55795   0.56769   0.00000  Uiso   1.00
C568   C     0.29851   0.61184   0.58985   0.00000  Uiso   1.00
C569   C     0.38325   0.63547   0.58425   0.00000  Uiso   1.00
C570   C     0.12582   0.55131   0.53801   0.00000  Uiso   1.00
C571   C     0.05118   0.59961   0.53522   0.00000  Uiso   1.00
C572   C     0.02280   0.61765   0.50463   0.00000  Uiso   1.00
C573   C     0.17505   0.42646   0.56789   0.00000  Uiso   1.00
C574   C     0.14177   0.36979   0.59021   0.00000  Uiso   1.00
C575   C     0.15481   0.28271   0.58477   0.00000  Uiso   1.00
H576   H     0.28537   0.44758   0.49892   0.00000  Uiso   1.00
H577   H     0.42419   0.52961   0.51451   0.00000  Uiso   1.00
H578   H     0.17690   0.51738   0.45988   0.00000  Uiso   1.00
H579   H     0.26748   0.28759   0.51487   0.00000  Uiso   1.00
H580   H     0.55837   0.63348   0.54360   0.00000  Uiso   1.00
H581   H     0.03692   0.60766   0.42842   0.00000  Uiso   1.00
H582   H     0.22792   0.12311   0.54437   0.00000  Uiso   1.00
H583   H     0.13339   0.54698   0.59001   0.00000  Uiso   1.00
H584   H     0.26388   0.63446   0.61059   0.00000  Uiso   1.00
H585   H     0.01658   0.62223   0.55596   0.00000  Uiso   1.00
H586   H     0.10716   0.39244   0.61095   0.00000  Uiso   1.00
H587   H     0.42825   0.71859   0.62159   0.00000  Uiso   1.00
H588   H     0.90680   0.69276   0.50640   0.00000  Uiso   1.00
H589   H     0.09780   0.20821   0.62235   0.00000  Uiso   1.00
O590   O     0.58189   0.73181   0.59449   0.00000  Uiso   1.00
O591   O     0.89775   0.69791   0.44337   0.00000  Uiso   1.00
O592   O     0.14835   0.06220   0.59549   0.00000  Uiso   1.00
N593   N     0.50985   0.64149   0.55913   0.00000  Uiso   1.00
N594   N     0.02233   0.61736   0.45145   0.00000  Uiso   1.00
N595   N     0.20088   0.16434   0.55984   0.00000  Uiso   1.00
N596   N     0.43983   0.68728   0.60110   0.00000  Uiso   1.00
N597   N     0.95231   0.66315   0.49341   0.00000  Uiso   1.00
N598   N     0.13086   0.21014   0.60180   0.00000  Uiso   1.00
C599   C     0.75055   0.97036   0.01979   0.00000  Uiso   1.00
C600   C     0.80491   0.02870   0.04089   0.00000  Uiso   1.00
C601   C     0.88961   0.05226   0.03526   0.00000  Uiso   1.00
C602   C     0.92805   0.10617   0.05740   0.00000  Uiso   1.00
C603   C     0.01924   0.19235   0.08607   0.00000  Uiso   1.00
C604   C     0.67055   0.02206   0.01121   0.00000  Uiso   1.00
C605   C     0.64228   0.04003   0.98062   0.00000  Uiso   1.00
C606   C     0.56761   0.08834   0.97778   0.00000  Uiso   1.00
C607   C     0.45017   0.16416   0.96038   0.00000  Uiso   1.00
C608   C     0.71977   0.89722   0.04109   0.00000  Uiso   1.00
C609   C     0.73286   0.81020   0.03561   0.00000  Uiso   1.00
C610   C     0.69962   0.75340   0.05792   0.00000  Uiso   1.00
C611   C     0.65861   0.63538   0.08691   0.00000  Uiso   1.00
C612   C     0.66821   0.02421   0.06914   0.00000  Uiso   1.00
C613   C     0.76018   0.05795   0.06769   0.00000  Uiso   1.00
C614   C     0.79851   0.11184   0.08985   0.00000  Uiso   1.00
C615   C     0.88325   0.13547   0.08425   0.00000  Uiso   1.00
C616   C     0.62582   0.05131   0.03801   0.00000  Uiso   1.00
C617   C     0.55118   0.09961   0.03522   0.00000  Uiso   1.00
C618   C     0.52280   0.11765   0.00463   0.00000  Uiso   1.00
C619   C     0.67505   0.92646   0.06789   0.00000  Uiso   1.00
C620   C     0.64177   0.86979   0.09021   0.00000  Uiso   1.00
C621   C     0.65481   0.78271   0.08477   0.00000  Uiso   1.00
H622   H     0.78537   0.94758   0.99892   0.00000  Uiso   1.00
H623   H     0.92419   0.02961   0.01451   0.00000  Uiso   1.00
H624   H     0.67690   0.01738   0.95988   0.00000  Uiso   1.00
H625   H     0.76748   0.78759   0.01487   0.00000  Uiso   1.00
H626   H     0.05837   0.13348   0.04360   0.00000  Uiso   1.00
H627   H     0.53692   0.10766   0.92842   0.00000  Uiso   1.00
H628   H     0.72792   0.62311   0.04437   0.00000  Uiso   1.00
H629   H     0.63339   0.04698   0.09001   0.00000  Uiso   1.00
H630   H     0.76388   0.13446   0.11059   0.00000  Uiso   1.00
H631   H     0.51658   0.12223   0.05596   0.00000  Uiso   1.00
H632   H     0.60716   0.89244   0.11095   0.00000  Uiso   1.00
H633   H     0.92825   0.21859   0.12159   0.00000  Uiso   1.00
H634   H     0.40680   0.19276   0.00640   0.00000  Uiso   1.00
H635   H     0.59780   0.70821   0.12235   0.00000  Uiso   1.00
O636   O     0.08189   0.23181   0.09449   0.00000  Uiso   1.00
O637   O     0.39775   0.19791   0.94337   0.00000  Uiso   1.00
O638   O     0.64835   0.56220   0.09549   0.00000  Uiso   1.00
N639   N     0.00985   0.14149   0.05913   0.00000  Uiso   1.00
N640   N     0.52233   0.11736   0.95145   0.00000  Uiso   1.00
N641   N     0.70088   0.66434   0.05984   0.00000  Uiso   1.00
N642   N     0.93983   0.18728   0.10110   0.00000  Uiso   1.00
N643   N     0.45231   0.16315   0.99341   0.00000  Uiso   1.00
N644   N     0.63086   0.71014   0.10180   0.00000  Uiso   1.00
C645   C     0.24945   0.02964   0.01979   0.00000  Uiso   1.00
C646   C     0.19509   0.97130   0.04089   0.00000  Uiso   1.00
C647   C     0.11039   0.94774   0.03526   0.00000  Uiso   1.00
C648   C     0.07195   0.89383   0.05740   0.00000  Uiso   1.00
C649   C     0.98076   0.80765   0.08607   0.00000  Uiso   1.00
C650   C     0.32945   0.97794   0.01121   0.00000  Uiso   1.00
C651   C     0.35772   0.95997   0.98062   0.00000  Uiso   1.00
C652   C     0.43239   0.91166   0.97778   0.00000  Uiso   1.00
C653   C     0.54983   0.83584   0.96038   0.00000  Uiso   1.00
C654   C     0.28023   0.10278   0.04109   0.00000  Uiso   1.00
C655   C     0.26714   0.18980   0.03561   0.00000  Uiso   1.00
C656   C     0.30038   0.24660   0.05792   0.00000  Uiso   1.00
C657   C     0.34139   0.36462   0.08691   0.00000  Uiso   1.00
C658   C     0.33179   0.97579   0.06914   0.00000  Uiso   1.00
C659   C     0.23982   0.94205   0.06769   0.00000  Uiso   1.00
C660   C     0.20149   0.88816   0.08985   0.00000  Uiso   1.00
C661   C     0.11675   0.86453   0.08425   0.00000  Uiso   1.00
C662   C     0.37418   0.94869   0.03801   0.00000  Uiso   1.00
C663   C     0.44882   0.90039   0.03522   0.00000  Uiso   1.00
C664   C     0.47720   0.88235   0.00463   0.00000  Uiso   1.00
C665   C     0.32495   0.07354   0.06789   0.00000  Uiso   1.00
C666   C     0.35823   0.13021   0.09021   0.00000  Uiso   1.00
C667   C     0.34519   0.21729   0.08477   0.00000  Uiso   1.00
H668   H     0.21463   0.05242   0.99892   0.00000  Uiso   1.00
H669   H     0.07581   0.97039   0.01451   0.00000  Uiso   1.00
H670   H     0.32310   0.98262   0.95988   0.00000  Uiso   1.00
H671   H     0.23252   0.21241   0.01487   0.00000  Uiso   1.00
H672   H     0.94163   0.86652   0.04360   0.00000  Uiso   1.00
H673   H     0.46308   0.89234   0.92842   0.00000  Uiso   1.00
H674   H     0.27208   0.37689   0.04437   0.00000  Uiso   1.00
H675   H     0.36661   0.95302   0.09001   0.00000  Uiso   1.00
H676   H     0.23612   0.86554   0.11059   0.00000  Uiso   1.00
H677   H     0.48342   0.87777   0.05596   0.00000  Uiso   1.00
H678   H     0.39284   0.10756   0.11095   0.00000  Uiso   1.00
H679   H     0.07175   0.78141   0.12159   0.00000  Uiso   1.00
H680   H     0.59320   0.80724   0.00640   0.00000  Uiso   1.00
H681   H     0.40220   0.29179   0.12235   0.00000  Uiso   1.00
O682   O     0.91811   0.76819   0.09449   0.00000  Uiso   1.00
O683   O     0.60225   0.80209   0.94337   0.00000  Uiso   1.00
O684   O     0.35165   0.43780   0.09549   0.00000  Uiso   1.00
N685   N     0.99015   0.85851   0.05913   0.00000  Uiso   1.00
N686   N     0.47767   0.88264   0.95145   0.00000  Uiso   1.00
N687   N     0.29912   0.33566   0.05984   0.00000  Uiso   1.00
N688   N     0.06017   0.81272   0.10110   0.00000  Uiso   1.00
N689   N     0.54769   0.83685   0.99341   0.00000  Uiso   1.00
N690   N     0.36914   0.28986   0.10180   0.00000  Uiso   1.00
C691   C     0.74945   0.52964   0.51979   0.00000  Uiso   1.00
C692   C     0.69509   0.47130   0.54089   0.00000  Uiso   1.00
C693   C     0.61039   0.44774   0.53526   0.00000  Uiso   1.00
C694   C     0.57195   0.39383   0.55740   0.00000  Uiso   1.00
C695   C     0.48076   0.30765   0.58607   0.00000  Uiso   1.00
C696   C     0.82945   0.47794   0.51121   0.00000  Uiso   1.00
C697   C     0.85772   0.45997   0.48062   0.00000  Uiso   1.00
C698   C     0.93239   0.41166   0.47778   0.00000  Uiso   1.00
C699   C     0.04983   0.33584   0.46038   0.00000  Uiso   1.00
C700   C     0.78023   0.60278   0.54109   0.00000  Uiso   1.00
C701   C     0.76714   0.68980   0.53561   0.00000  Uiso   1.00
C702   C     0.80038   0.74660   0.55792   0.00000  Uiso   1.00
C703   C     0.84139   0.86462   0.58691   0.00000  Uiso   1.00
C704   C     0.83179   0.47579   0.56914   0.00000  Uiso   1.00
C705   C     0.73982   0.44205   0.56769   0.00000  Uiso   1.00
C706   C     0.70149   0.38816   0.58985   0.00000  Uiso   1.00
C707   C     0.61675   0.36453   0.58425   0.00000  Uiso   1.00
C708   C     0.87418   0.44869   0.53801   0.00000  Uiso   1.00
C709   C     0.94882   0.40039   0.53522   0.00000  Uiso   1.00
C710   C     0.97720   0.38235   0.50463   0.00000  Uiso   1.00
C711   C     0.82495   0.57354   0.56789   0.00000  Uiso   1.00
C712   C     0.85823   0.63021   0.59021   0.00000  Uiso   1.00
C713   C     0.84519   0.71729   0.58477   0.00000  Uiso   1.00
H714   H     0.71463   0.55242   0.49892   0.00000  Uiso   1.00
H715   H     0.57581   0.47039   0.51451   0.00000  Uiso   1.00
H716   H     0.82310   0.48262   0.45988   0.00000  Uiso   1.00
H717   H     0.73252   0.71241   0.51487   0.00000  Uiso   1.00
H718   H     0.44163   0.36652   0.54360   0.00000  Uiso   1.00
H719   H     0.96308   0.39234   0.42842   0.00000  Uiso   1.00
H720   H     0.77208   0.87689   0.54437   0.00000  Uiso   1.00
H721   H     0.86661   0.45302   0.59001   0.00000  Uiso   1.00
H722   H     0.73612   0.36554   0.61059   0.00000  Uiso   1.00
H723   H     0.98342   0.37777   0.55596   0.00000  Uiso   1.00
H724   H     0.89284   0.60756   0.61095   0.00000  Uiso   1.00
H725   H     0.57175   0.28141   0.62159   0.00000  Uiso   1.00
H726   H     0.09320   0.30724   0.50640   0.00000  Uiso   1.00
H727   H     0.90220   0.79179   0.62235   0.00000  Uiso   1.00
O728   O     0.41811   0.26819   0.59449   0.00000  Uiso   1.00
O729   O     0.10225   0.30209   0.44337   0.00000  Uiso   1.00
O730   O     0.85165   0.93780   0.59549   0.00000  Uiso   1.00
N731   N     0.49015   0.35851   0.55913   0.00000  Uiso   1.00
N732   N     0.97767   0.38264   0.45145   0.00000  Uiso   1.00
N733   N     0.79912   0.83566   0.55984   0.00000  Uiso   1.00
N734   N     0.56017   0.31272   0.60110   0.00000  Uiso   1.00
N735   N     0.04769   0.33685   0.49341   0.00000  Uiso   1.00
N736   N     0.86914   0.78986   0.60180   0.00000  Uiso   1.00
