data_job_05080
_audit_creation_date              2018-12-19
_audit_creation_method            'Materials Studio'
_symmetry_space_group_name_H-M    'P1'
_symmetry_Int_Tables_number       1
_symmetry_cell_setting            triclinic
loop_
_symmetry_equiv_pos_as_xyz
  x,y,z
_cell_length_a                    22.2622
_cell_length_b                    24.0533
_cell_length_c                    26.0913
_cell_angle_alpha                 90.0000
_cell_angle_beta                  90.0000
_cell_angle_gamma                 90.0000
loop_
_atom_site_label
_atom_site_type_symbol
_atom_site_fract_x
_atom_site_fract_y
_atom_site_fract_z
_atom_site_U_iso_or_equiv
_atom_site_adp_type
_atom_site_occupancy
C1     C     0.12957   0.90856   0.41355   0.00000  Uiso   1.00
C2     C     0.19652   0.91808   0.42221   0.00000  Uiso   1.00
C3     C     0.22750   0.90757   0.46734   0.00000  Uiso   1.00
C4     C     0.28861   0.91906   0.46754   0.00000  Uiso   1.00
C5     C     0.38816   0.93064   0.48759   0.00000  Uiso   1.00
C6     C     0.10400   0.96435   0.39639   0.00000  Uiso   1.00
C7     C     0.05717   0.99273   0.41980   0.00000  Uiso   1.00
C8     C     0.04040   0.04318   0.39826   0.00000  Uiso   1.00
C9     C     0.99626   0.12657   0.37820   0.00000  Uiso   1.00
C10    C     0.12481   0.87005   0.36730   0.00000  Uiso   1.00
C11    C     0.09547   0.81916   0.36626   0.00000  Uiso   1.00
C12    C     0.09620   0.79021   0.32022   0.00000  Uiso   1.00
C13    C     0.08438   0.72719   0.25500   0.00000  Uiso   1.00
C14    C     0.18302   0.94766   0.33365   0.00000  Uiso   1.00
C15    C     0.22556   0.93932   0.37881   0.00000  Uiso   1.00
C16    C     0.28664   0.95084   0.37894   0.00000  Uiso   1.00
C17    C     0.31770   0.94034   0.42406   0.00000  Uiso   1.00
C18    C     0.13303   0.98559   0.35299   0.00000  Uiso   1.00
C19    C     0.11632   0.03600   0.33140   0.00000  Uiso   1.00
C20    C     0.06948   0.06446   0.35478   0.00000  Uiso   1.00
C21    C     0.15385   0.89129   0.32390   0.00000  Uiso   1.00
C22    C     0.15462   0.86242   0.27785   0.00000  Uiso   1.00
C23    C     0.12529   0.81149   0.27674   0.00000  Uiso   1.00
H24    H     0.10696   0.89202   0.44734   0.00000  Uiso   1.00
H25    H     0.20501   0.89113   0.50092   0.00000  Uiso   1.00
H26    H     0.03471   0.97628   0.45339   0.00000  Uiso   1.00
H27    H     0.07300   0.80273   0.39985   0.00000  Uiso   1.00
H28    H     0.32652   0.89953   0.54119   0.00000  Uiso   1.00
H29    H     0.96741   0.07907   0.44095   0.00000  Uiso   1.00
H30    H     0.04816   0.71310   0.32806   0.00000  Uiso   1.00
H31    H     0.20563   0.96420   0.29986   0.00000  Uiso   1.00
H32    H     0.30910   0.96727   0.34534   0.00000  Uiso   1.00
H33    H     0.13880   0.05243   0.29781   0.00000  Uiso   1.00
H34    H     0.17709   0.87887   0.24428   0.00000  Uiso   1.00
H35    H     0.41100   0.96134   0.41492   0.00000  Uiso   1.00
H36    H     0.05189   0.14087   0.31468   0.00000  Uiso   1.00
H37    H     0.13265   0.77490   0.20179   0.00000  Uiso   1.00
O38    O     0.43504   0.93117   0.51065   0.00000  Uiso   1.00
O39    O     0.96390   0.16670   0.37913   0.00000  Uiso   1.00
O40    O     0.06985   0.68656   0.23102   0.00000  Uiso   1.00
N41    N     0.33220   0.91365   0.50523   0.00000  Uiso   1.00
N42    N     0.99647   0.08150   0.41151   0.00000  Uiso   1.00
N43    N     0.07195   0.73936   0.30597   0.00000  Uiso   1.00
N44    N     0.37766   0.94690   0.43728   0.00000  Uiso   1.00
N45    N     0.04193   0.11476   0.34357   0.00000  Uiso   1.00
N46    N     0.11741   0.77262   0.23802   0.00000  Uiso   1.00
C47    C     0.36705   0.73705   0.41525   0.00000  Uiso   1.00
C48    C     0.30043   0.72795   0.42594   0.00000  Uiso   1.00
C49    C     0.27151   0.73835   0.47207   0.00000  Uiso   1.00
C50    C     0.21034   0.72729   0.47411   0.00000  Uiso   1.00
C51    C     0.11163   0.71628   0.49720   0.00000  Uiso   1.00
C52    C     0.39138   0.68121   0.39696   0.00000  Uiso   1.00
C53    C     0.43893   0.65231   0.41872   0.00000  Uiso   1.00
C54    C     0.45433   0.60191   0.39635   0.00000  Uiso   1.00
C55    C     0.49684   0.51835   0.37442   0.00000  Uiso   1.00
C56    C     0.37016   0.77587   0.36912   0.00000  Uiso   1.00
C57    C     0.39988   0.82656   0.36747   0.00000  Uiso   1.00
C58    C     0.39742   0.85585   0.32166   0.00000  Uiso   1.00
C59    C     0.40698   0.91927   0.25651   0.00000  Uiso   1.00
C60    C     0.30986   0.69893   0.33684   0.00000  Uiso   1.00
C61    C     0.26937   0.70725   0.38335   0.00000  Uiso   1.00
C62    C     0.20823   0.69617   0.38532   0.00000  Uiso   1.00
C63    C     0.17922   0.70655   0.43144   0.00000  Uiso   1.00
C64    C     0.36032   0.66050   0.35437   0.00000  Uiso   1.00
C65    C     0.37565   0.61014   0.33196   0.00000  Uiso   1.00
C66    C     0.42321   0.58117   0.35368   0.00000  Uiso   1.00
C67    C     0.33909   0.75517   0.32653   0.00000  Uiso   1.00
C68    C     0.33660   0.78438   0.28071   0.00000  Uiso   1.00
C69    C     0.36630   0.83511   0.27899   0.00000  Uiso   1.00
H70    H     0.39124   0.75317   0.44841   0.00000  Uiso   1.00
H71    H     0.29556   0.75436   0.50503   0.00000  Uiso   1.00
H72    H     0.46296   0.66834   0.45168   0.00000  Uiso   1.00
H73    H     0.42391   0.84257   0.40044   0.00000  Uiso   1.00
H74    H     0.17580   0.74654   0.54902   0.00000  Uiso   1.00
H75    H     0.52878   0.56517   0.43651   0.00000  Uiso   1.00
H76    H     0.44643   0.93255   0.32847   0.00000  Uiso   1.00
H77    H     0.28568   0.68281   0.30368   0.00000  Uiso   1.00
H78    H     0.18420   0.68015   0.35235   0.00000  Uiso   1.00
H79    H     0.35161   0.59413   0.29900   0.00000  Uiso   1.00
H80    H     0.31255   0.76835   0.24776   0.00000  Uiso   1.00
H81    H     0.08541   0.68630   0.42510   0.00000  Uiso   1.00
H82    H     0.43840   0.50493   0.31260   0.00000  Uiso   1.00
H83    H     0.35605   0.87231   0.20455   0.00000  Uiso   1.00
O84    O     0.06576   0.71592   0.52170   0.00000  Uiso   1.00
O85    O     0.52887   0.47798   0.37409   0.00000  Uiso   1.00
O86    O     0.42083   0.95997   0.23234   0.00000  Uiso   1.00
N87    N     0.16845   0.73274   0.51317   0.00000  Uiso   1.00
N88    N     0.49846   0.56317   0.40799   0.00000  Uiso   1.00
N89    N     0.42148   0.90663   0.30697   0.00000  Uiso   1.00
N90    N     0.11981   0.70033   0.44649   0.00000  Uiso   1.00
N91    N     0.44983   0.53075   0.34131   0.00000  Uiso   1.00
N92    N     0.37285   0.87422   0.24029   0.00000  Uiso   1.00
C93    C     0.81695   0.44770   0.33365   0.00000  Uiso   1.00
C94    C     0.84612   0.39132   0.32390   0.00000  Uiso   1.00
C95    C     0.84534   0.36245   0.27786   0.00000  Uiso   1.00
C96    C     0.87465   0.31151   0.27674   0.00000  Uiso   1.00
C97    C     0.91556   0.22721   0.25500   0.00000  Uiso   1.00
C98    C     0.86695   0.48561   0.35299   0.00000  Uiso   1.00
C99    C     0.88367   0.53603   0.33141   0.00000  Uiso   1.00
C100   C     0.93051   0.56447   0.35479   0.00000  Uiso   1.00
C101   C     0.00372   0.62659   0.37824   0.00000  Uiso   1.00
C102   C     0.77441   0.43936   0.37881   0.00000  Uiso   1.00
C103   C     0.71333   0.45089   0.37893   0.00000  Uiso   1.00
C104   C     0.68227   0.44041   0.42405   0.00000  Uiso   1.00
C105   C     0.61180   0.43071   0.48758   0.00000  Uiso   1.00
C106   C     0.87040   0.40858   0.41356   0.00000  Uiso   1.00
C107   C     0.87515   0.37007   0.36731   0.00000  Uiso   1.00
C108   C     0.90447   0.31917   0.36626   0.00000  Uiso   1.00
C109   C     0.90373   0.29023   0.32023   0.00000  Uiso   1.00
C110   C     0.89598   0.46437   0.39639   0.00000  Uiso   1.00
C111   C     0.94280   0.49275   0.41982   0.00000  Uiso   1.00
C112   C     0.95959   0.54319   0.39828   0.00000  Uiso   1.00
C113   C     0.80344   0.41811   0.42221   0.00000  Uiso   1.00
C114   C     0.77246   0.40761   0.46734   0.00000  Uiso   1.00
C115   C     0.71135   0.41913   0.46754   0.00000  Uiso   1.00
H116   H     0.79435   0.46424   0.29986   0.00000  Uiso   1.00
H117   H     0.82288   0.37890   0.24427   0.00000  Uiso   1.00
H118   H     0.86119   0.55246   0.29783   0.00000  Uiso   1.00
H119   H     0.69088   0.46733   0.34534   0.00000  Uiso   1.00
H120   H     0.86732   0.27493   0.20179   0.00000  Uiso   1.00
H121   H     0.94810   0.64089   0.31471   0.00000  Uiso   1.00
H122   H     0.58897   0.46139   0.41490   0.00000  Uiso   1.00
H123   H     0.89300   0.39204   0.44735   0.00000  Uiso   1.00
H124   H     0.92693   0.30274   0.39986   0.00000  Uiso   1.00
H125   H     0.96525   0.47630   0.45341   0.00000  Uiso   1.00
H126   H     0.79494   0.39117   0.50092   0.00000  Uiso   1.00
H127   H     0.95178   0.21312   0.32806   0.00000  Uiso   1.00
H128   H     0.03256   0.57908   0.44099   0.00000  Uiso   1.00
H129   H     0.67343   0.39958   0.54118   0.00000  Uiso   1.00
O130   O     0.93011   0.18659   0.23102   0.00000  Uiso   1.00
O131   O     0.03608   0.66672   0.37918   0.00000  Uiso   1.00
O132   O     0.56491   0.43122   0.51062   0.00000  Uiso   1.00
N133   N     0.88253   0.27263   0.23803   0.00000  Uiso   1.00
N134   N     0.95806   0.61478   0.34360   0.00000  Uiso   1.00
N135   N     0.62231   0.44698   0.43727   0.00000  Uiso   1.00
N136   N     0.92798   0.23937   0.30597   0.00000  Uiso   1.00
N137   N     0.00351   0.58152   0.41155   0.00000  Uiso   1.00
N138   N     0.66775   0.41372   0.50522   0.00000  Uiso   1.00
C139   C     0.69017   0.19890   0.33683   0.00000  Uiso   1.00
C140   C     0.66096   0.25514   0.32653   0.00000  Uiso   1.00
C141   C     0.66347   0.28436   0.28072   0.00000  Uiso   1.00
C142   C     0.63380   0.33510   0.27900   0.00000  Uiso   1.00
C143   C     0.59314   0.41927   0.25651   0.00000  Uiso   1.00
C144   C     0.63970   0.16048   0.35437   0.00000  Uiso   1.00
C145   C     0.62435   0.11012   0.33196   0.00000  Uiso   1.00
C146   C     0.57678   0.08117   0.35369   0.00000  Uiso   1.00
C147   C     0.50314   0.01836   0.37444   0.00000  Uiso   1.00
C148   C     0.73067   0.20719   0.38334   0.00000  Uiso   1.00
C149   C     0.79180   0.19609   0.38531   0.00000  Uiso   1.00
C150   C     0.82081   0.20645   0.43144   0.00000  Uiso   1.00
C151   C     0.88842   0.21617   0.49719   0.00000  Uiso   1.00
C152   C     0.63300   0.23703   0.41525   0.00000  Uiso   1.00
C153   C     0.62990   0.27585   0.36912   0.00000  Uiso   1.00
C154   C     0.60022   0.32655   0.36748   0.00000  Uiso   1.00
C155   C     0.60269   0.35585   0.32167   0.00000  Uiso   1.00
C156   C     0.60865   0.18119   0.39696   0.00000  Uiso   1.00
C157   C     0.56109   0.15231   0.41872   0.00000  Uiso   1.00
C158   C     0.54567   0.10191   0.39636   0.00000  Uiso   1.00
C159   C     0.69961   0.22791   0.42594   0.00000  Uiso   1.00
C160   C     0.72854   0.23828   0.47207   0.00000  Uiso   1.00
C161   C     0.78970   0.22720   0.47411   0.00000  Uiso   1.00
H162   H     0.71435   0.18277   0.30367   0.00000  Uiso   1.00
H163   H     0.68751   0.26832   0.24776   0.00000  Uiso   1.00
H164   H     0.64839   0.09410   0.29901   0.00000  Uiso   1.00
H165   H     0.81582   0.18006   0.35235   0.00000  Uiso   1.00
H166   H     0.64404   0.37229   0.20455   0.00000  Uiso   1.00
H167   H     0.56157   0.00493   0.31261   0.00000  Uiso   1.00
H168   H     0.91462   0.18620   0.42509   0.00000  Uiso   1.00
H169   H     0.60882   0.25315   0.44841   0.00000  Uiso   1.00
H170   H     0.57619   0.34257   0.40045   0.00000  Uiso   1.00
H171   H     0.53707   0.16835   0.45169   0.00000  Uiso   1.00
H172   H     0.70449   0.25431   0.50503   0.00000  Uiso   1.00
H173   H     0.55368   0.43256   0.32847   0.00000  Uiso   1.00
H174   H     0.47122   0.06519   0.43653   0.00000  Uiso   1.00
H175   H     0.82426   0.24646   0.54901   0.00000  Uiso   1.00
O176   O     0.57928   0.45997   0.23234   0.00000  Uiso   1.00
O177   O     0.47110   0.97799   0.37411   0.00000  Uiso   1.00
O178   O     0.93429   0.21582   0.52168   0.00000  Uiso   1.00
N179   N     0.62726   0.37421   0.24030   0.00000  Uiso   1.00
N180   N     0.55016   0.03075   0.34133   0.00000  Uiso   1.00
N181   N     0.88022   0.20021   0.44649   0.00000  Uiso   1.00
N182   N     0.57864   0.40664   0.30698   0.00000  Uiso   1.00
N183   N     0.50154   0.06318   0.40801   0.00000  Uiso   1.00
N184   N     0.83160   0.23263   0.51317   0.00000  Uiso   1.00
C185   C     0.87043   0.09144   0.91355   0.00000  Uiso   1.00
C186   C     0.80348   0.08192   0.92221   0.00000  Uiso   1.00
C187   C     0.77250   0.09243   0.96734   0.00000  Uiso   1.00
C188   C     0.71139   0.08094   0.96754   0.00000  Uiso   1.00
C189   C     0.61184   0.06936   0.98759   0.00000  Uiso   1.00
C190   C     0.89600   0.03565   0.89639   0.00000  Uiso   1.00
C191   C     0.94283   0.00727   0.91980   0.00000  Uiso   1.00
C192   C     0.95960   0.95682   0.89826   0.00000  Uiso   1.00
C193   C     0.00374   0.87343   0.87820   0.00000  Uiso   1.00
C194   C     0.87519   0.12995   0.86730   0.00000  Uiso   1.00
C195   C     0.90453   0.18084   0.86626   0.00000  Uiso   1.00
C196   C     0.90380   0.20979   0.82022   0.00000  Uiso   1.00
C197   C     0.91562   0.27281   0.75500   0.00000  Uiso   1.00
C198   C     0.81698   0.05234   0.83365   0.00000  Uiso   1.00
C199   C     0.77444   0.06068   0.87881   0.00000  Uiso   1.00
C200   C     0.71336   0.04916   0.87894   0.00000  Uiso   1.00
C201   C     0.68230   0.05966   0.92406   0.00000  Uiso   1.00
C202   C     0.86697   0.01441   0.85299   0.00000  Uiso   1.00
C203   C     0.88368   0.96400   0.83140   0.00000  Uiso   1.00
C204   C     0.93052   0.93554   0.85478   0.00000  Uiso   1.00
C205   C     0.84615   0.10871   0.82390   0.00000  Uiso   1.00
C206   C     0.84538   0.13758   0.77785   0.00000  Uiso   1.00
C207   C     0.87471   0.18851   0.77674   0.00000  Uiso   1.00
H208   H     0.89304   0.10798   0.94734   0.00000  Uiso   1.00
H209   H     0.79499   0.10887   0.00092   0.00000  Uiso   1.00
H210   H     0.96529   0.02372   0.95339   0.00000  Uiso   1.00
H211   H     0.92700   0.19727   0.89985   0.00000  Uiso   1.00
H212   H     0.67348   0.10047   0.04119   0.00000  Uiso   1.00
H213   H     0.03259   0.92093   0.94095   0.00000  Uiso   1.00
H214   H     0.95184   0.28690   0.82806   0.00000  Uiso   1.00
H215   H     0.79437   0.03580   0.79986   0.00000  Uiso   1.00
H216   H     0.69090   0.03273   0.84534   0.00000  Uiso   1.00
H217   H     0.86120   0.94757   0.79781   0.00000  Uiso   1.00
H218   H     0.82291   0.12113   0.74428   0.00000  Uiso   1.00
H219   H     0.58900   0.03866   0.91492   0.00000  Uiso   1.00
H220   H     0.94811   0.85913   0.81468   0.00000  Uiso   1.00
H221   H     0.86735   0.22510   0.70179   0.00000  Uiso   1.00
O222   O     0.56496   0.06883   0.01065   0.00000  Uiso   1.00
O223   O     0.03610   0.83330   0.87913   0.00000  Uiso   1.00
O224   O     0.93015   0.31344   0.73102   0.00000  Uiso   1.00
N225   N     0.66780   0.08635   0.00523   0.00000  Uiso   1.00
N226   N     0.00353   0.91850   0.91151   0.00000  Uiso   1.00
N227   N     0.92805   0.26064   0.80597   0.00000  Uiso   1.00
N228   N     0.62234   0.05310   0.93728   0.00000  Uiso   1.00
N229   N     0.95807   0.88524   0.84357   0.00000  Uiso   1.00
N230   N     0.88259   0.22738   0.73802   0.00000  Uiso   1.00
C231   C     0.63295   0.26295   0.91525   0.00000  Uiso   1.00
C232   C     0.69957   0.27205   0.92594   0.00000  Uiso   1.00
C233   C     0.72849   0.26165   0.97207   0.00000  Uiso   1.00
C234   C     0.78966   0.27271   0.97411   0.00000  Uiso   1.00
C235   C     0.88837   0.28372   0.99720   0.00000  Uiso   1.00
C236   C     0.60862   0.31879   0.89696   0.00000  Uiso   1.00
C237   C     0.56107   0.34769   0.91872   0.00000  Uiso   1.00
C238   C     0.54567   0.39809   0.89635   0.00000  Uiso   1.00
C239   C     0.50316   0.48165   0.87442   0.00000  Uiso   1.00
C240   C     0.62984   0.22413   0.86912   0.00000  Uiso   1.00
C241   C     0.60012   0.17344   0.86747   0.00000  Uiso   1.00
C242   C     0.60258   0.14415   0.82166   0.00000  Uiso   1.00
C243   C     0.59302   0.08073   0.75651   0.00000  Uiso   1.00
C244   C     0.69014   0.30107   0.83684   0.00000  Uiso   1.00
C245   C     0.73063   0.29275   0.88335   0.00000  Uiso   1.00
C246   C     0.79177   0.30383   0.88532   0.00000  Uiso   1.00
C247   C     0.82078   0.29345   0.93144   0.00000  Uiso   1.00
C248   C     0.63968   0.33950   0.85437   0.00000  Uiso   1.00
C249   C     0.62435   0.38986   0.83196   0.00000  Uiso   1.00
C250   C     0.57679   0.41883   0.85368   0.00000  Uiso   1.00
C251   C     0.66091   0.24483   0.82653   0.00000  Uiso   1.00
C252   C     0.66340   0.21562   0.78071   0.00000  Uiso   1.00
C253   C     0.63370   0.16489   0.77899   0.00000  Uiso   1.00
H254   H     0.60876   0.24683   0.94841   0.00000  Uiso   1.00
H255   H     0.70444   0.24564   0.00503   0.00000  Uiso   1.00
H256   H     0.53704   0.33166   0.95168   0.00000  Uiso   1.00
H257   H     0.57609   0.15743   0.90044   0.00000  Uiso   1.00
H258   H     0.82420   0.25346   0.04902   0.00000  Uiso   1.00
H259   H     0.47122   0.43483   0.93651   0.00000  Uiso   1.00
H260   H     0.55357   0.06745   0.82847   0.00000  Uiso   1.00
H261   H     0.71432   0.31719   0.80368   0.00000  Uiso   1.00
H262   H     0.81580   0.31985   0.85235   0.00000  Uiso   1.00
H263   H     0.64839   0.40587   0.79900   0.00000  Uiso   1.00
H264   H     0.68745   0.23165   0.74776   0.00000  Uiso   1.00
H265   H     0.91459   0.31370   0.92510   0.00000  Uiso   1.00
H266   H     0.56160   0.49507   0.81260   0.00000  Uiso   1.00
H267   H     0.64395   0.12769   0.70455   0.00000  Uiso   1.00
O268   O     0.93424   0.28408   0.02170   0.00000  Uiso   1.00
O269   O     0.47113   0.52202   0.87409   0.00000  Uiso   1.00
O270   O     0.57917   0.04003   0.73234   0.00000  Uiso   1.00
N271   N     0.83155   0.26726   0.01317   0.00000  Uiso   1.00
N272   N     0.50154   0.43683   0.90799   0.00000  Uiso   1.00
N273   N     0.57852   0.09337   0.80697   0.00000  Uiso   1.00
N274   N     0.88019   0.29967   0.94649   0.00000  Uiso   1.00
N275   N     0.55017   0.46925   0.84131   0.00000  Uiso   1.00
N276   N     0.62715   0.12578   0.74029   0.00000  Uiso   1.00
C277   C     0.18305   0.55230   0.83365   0.00000  Uiso   1.00
C278   C     0.15388   0.60868   0.82390   0.00000  Uiso   1.00
C279   C     0.15466   0.63755   0.77786   0.00000  Uiso   1.00
C280   C     0.12535   0.68849   0.77674   0.00000  Uiso   1.00
C281   C     0.08444   0.77279   0.75500   0.00000  Uiso   1.00
C282   C     0.13305   0.51439   0.85299   0.00000  Uiso   1.00
C283   C     0.11633   0.46397   0.83141   0.00000  Uiso   1.00
C284   C     0.06949   0.43553   0.85479   0.00000  Uiso   1.00
C285   C     0.99628   0.37341   0.87824   0.00000  Uiso   1.00
C286   C     0.22559   0.56064   0.87881   0.00000  Uiso   1.00
C287   C     0.28667   0.54911   0.87893   0.00000  Uiso   1.00
C288   C     0.31773   0.55959   0.92405   0.00000  Uiso   1.00
C289   C     0.38820   0.56929   0.98758   0.00000  Uiso   1.00
C290   C     0.12960   0.59142   0.91356   0.00000  Uiso   1.00
C291   C     0.12485   0.62993   0.86731   0.00000  Uiso   1.00
C292   C     0.09553   0.68083   0.86626   0.00000  Uiso   1.00
C293   C     0.09627   0.70977   0.82023   0.00000  Uiso   1.00
C294   C     0.10402   0.53563   0.89639   0.00000  Uiso   1.00
C295   C     0.05720   0.50725   0.91982   0.00000  Uiso   1.00
C296   C     0.04041   0.45681   0.89828   0.00000  Uiso   1.00
C297   C     0.19656   0.58189   0.92221   0.00000  Uiso   1.00
C298   C     0.22754   0.59239   0.96734   0.00000  Uiso   1.00
C299   C     0.28865   0.58087   0.96754   0.00000  Uiso   1.00
H300   H     0.20565   0.53576   0.79986   0.00000  Uiso   1.00
H301   H     0.17712   0.62110   0.74427   0.00000  Uiso   1.00
H302   H     0.13881   0.44754   0.79783   0.00000  Uiso   1.00
H303   H     0.30912   0.53267   0.84534   0.00000  Uiso   1.00
H304   H     0.13268   0.72507   0.70179   0.00000  Uiso   1.00
H305   H     0.05190   0.35911   0.81471   0.00000  Uiso   1.00
H306   H     0.41103   0.53861   0.91490   0.00000  Uiso   1.00
H307   H     0.10700   0.60796   0.94735   0.00000  Uiso   1.00
H308   H     0.07307   0.69726   0.89986   0.00000  Uiso   1.00
H309   H     0.03475   0.52370   0.95341   0.00000  Uiso   1.00
H310   H     0.20506   0.60883   0.00092   0.00000  Uiso   1.00
H311   H     0.04822   0.78688   0.82806   0.00000  Uiso   1.00
H312   H     0.96744   0.42092   0.94099   0.00000  Uiso   1.00
H313   H     0.32657   0.60042   0.04118   0.00000  Uiso   1.00
O314   O     0.06989   0.81341   0.73102   0.00000  Uiso   1.00
O315   O     0.96392   0.33328   0.87918   0.00000  Uiso   1.00
O316   O     0.43509   0.56878   0.01062   0.00000  Uiso   1.00
N317   N     0.11747   0.72737   0.73803   0.00000  Uiso   1.00
N318   N     0.04194   0.38522   0.84360   0.00000  Uiso   1.00
N319   N     0.37769   0.55302   0.93727   0.00000  Uiso   1.00
N320   N     0.07202   0.76063   0.80597   0.00000  Uiso   1.00
N321   N     0.99649   0.41848   0.91155   0.00000  Uiso   1.00
N322   N     0.33225   0.58628   0.00522   0.00000  Uiso   1.00
C323   C     0.30983   0.80110   0.83683   0.00000  Uiso   1.00
C324   C     0.33904   0.74486   0.82653   0.00000  Uiso   1.00
C325   C     0.33653   0.71564   0.78072   0.00000  Uiso   1.00
C326   C     0.36620   0.66490   0.77900   0.00000  Uiso   1.00
C327   C     0.40686   0.58073   0.75651   0.00000  Uiso   1.00
C328   C     0.36030   0.83952   0.85437   0.00000  Uiso   1.00
C329   C     0.37565   0.88988   0.83196   0.00000  Uiso   1.00
C330   C     0.42322   0.91883   0.85369   0.00000  Uiso   1.00
C331   C     0.49686   0.98164   0.87444   0.00000  Uiso   1.00
C332   C     0.26933   0.79281   0.88334   0.00000  Uiso   1.00
C333   C     0.20820   0.80391   0.88531   0.00000  Uiso   1.00
C334   C     0.17919   0.79355   0.93144   0.00000  Uiso   1.00
C335   C     0.11158   0.78383   0.99719   0.00000  Uiso   1.00
C336   C     0.36700   0.76297   0.91525   0.00000  Uiso   1.00
C337   C     0.37010   0.72415   0.86912   0.00000  Uiso   1.00
C338   C     0.39978   0.67345   0.86748   0.00000  Uiso   1.00
C339   C     0.39731   0.64415   0.82167   0.00000  Uiso   1.00
C340   C     0.39135   0.81881   0.89696   0.00000  Uiso   1.00
C341   C     0.43891   0.84769   0.91872   0.00000  Uiso   1.00
C342   C     0.45433   0.89809   0.89636   0.00000  Uiso   1.00
C343   C     0.30039   0.77209   0.92594   0.00000  Uiso   1.00
C344   C     0.27146   0.76172   0.97207   0.00000  Uiso   1.00
C345   C     0.21030   0.77280   0.97411   0.00000  Uiso   1.00
H346   H     0.28565   0.81723   0.80367   0.00000  Uiso   1.00
H347   H     0.31249   0.73168   0.74776   0.00000  Uiso   1.00
H348   H     0.35161   0.90590   0.79901   0.00000  Uiso   1.00
H349   H     0.18418   0.81994   0.85235   0.00000  Uiso   1.00
H350   H     0.35596   0.62771   0.70455   0.00000  Uiso   1.00
H351   H     0.43843   0.99507   0.81261   0.00000  Uiso   1.00
H352   H     0.08538   0.81380   0.92509   0.00000  Uiso   1.00
H353   H     0.39118   0.74685   0.94841   0.00000  Uiso   1.00
H354   H     0.42381   0.65743   0.90045   0.00000  Uiso   1.00
H355   H     0.46293   0.83165   0.95169   0.00000  Uiso   1.00
H356   H     0.29551   0.74569   0.00503   0.00000  Uiso   1.00
H357   H     0.44632   0.56744   0.82847   0.00000  Uiso   1.00
H358   H     0.52878   0.93481   0.93653   0.00000  Uiso   1.00
H359   H     0.17574   0.75354   0.04901   0.00000  Uiso   1.00
O360   O     0.42072   0.54003   0.73234   0.00000  Uiso   1.00
O361   O     0.52890   0.02201   0.87411   0.00000  Uiso   1.00
O362   O     0.06571   0.78418   0.02168   0.00000  Uiso   1.00
N363   N     0.37274   0.62579   0.74030   0.00000  Uiso   1.00
N364   N     0.44984   0.96925   0.84133   0.00000  Uiso   1.00
N365   N     0.11978   0.79979   0.94649   0.00000  Uiso   1.00
N366   N     0.42136   0.59336   0.80698   0.00000  Uiso   1.00
N367   N     0.49846   0.93682   0.90801   0.00000  Uiso   1.00
N368   N     0.16840   0.76737   0.01317   0.00000  Uiso   1.00
C369   C     0.87043   0.90856   0.08645   0.00000  Uiso   1.00
C370   C     0.80348   0.91808   0.07779   0.00000  Uiso   1.00
C371   C     0.77250   0.90757   0.03266   0.00000  Uiso   1.00
C372   C     0.71139   0.91906   0.03246   0.00000  Uiso   1.00
C373   C     0.61184   0.93064   0.01241   0.00000  Uiso   1.00
C374   C     0.89600   0.96435   0.10361   0.00000  Uiso   1.00
C375   C     0.94283   0.99273   0.08020   0.00000  Uiso   1.00
C376   C     0.95960   0.04318   0.10174   0.00000  Uiso   1.00
C377   C     0.00374   0.12657   0.12180   0.00000  Uiso   1.00
C378   C     0.87519   0.87005   0.13270   0.00000  Uiso   1.00
C379   C     0.90453   0.81916   0.13374   0.00000  Uiso   1.00
C380   C     0.90380   0.79021   0.17978   0.00000  Uiso   1.00
C381   C     0.91562   0.72719   0.24500   0.00000  Uiso   1.00
C382   C     0.81698   0.94766   0.16635   0.00000  Uiso   1.00
C383   C     0.77444   0.93932   0.12119   0.00000  Uiso   1.00
C384   C     0.71336   0.95084   0.12106   0.00000  Uiso   1.00
C385   C     0.68230   0.94034   0.07594   0.00000  Uiso   1.00
C386   C     0.86697   0.98559   0.14701   0.00000  Uiso   1.00
C387   C     0.88368   0.03600   0.16860   0.00000  Uiso   1.00
C388   C     0.93052   0.06446   0.14522   0.00000  Uiso   1.00
C389   C     0.84615   0.89129   0.17610   0.00000  Uiso   1.00
C390   C     0.84538   0.86242   0.22215   0.00000  Uiso   1.00
C391   C     0.87471   0.81149   0.22326   0.00000  Uiso   1.00
H392   H     0.89304   0.89202   0.05266   0.00000  Uiso   1.00
H393   H     0.79499   0.89113   0.99908   0.00000  Uiso   1.00
H394   H     0.96529   0.97628   0.04661   0.00000  Uiso   1.00
H395   H     0.92700   0.80273   0.10015   0.00000  Uiso   1.00
H396   H     0.67348   0.89953   0.95881   0.00000  Uiso   1.00
H397   H     0.03259   0.07907   0.05905   0.00000  Uiso   1.00
H398   H     0.95184   0.71310   0.17194   0.00000  Uiso   1.00
H399   H     0.79437   0.96420   0.20014   0.00000  Uiso   1.00
H400   H     0.69090   0.96727   0.15466   0.00000  Uiso   1.00
H401   H     0.86120   0.05243   0.20219   0.00000  Uiso   1.00
H402   H     0.82291   0.87887   0.25572   0.00000  Uiso   1.00
H403   H     0.58900   0.96134   0.08508   0.00000  Uiso   1.00
H404   H     0.94811   0.14087   0.18532   0.00000  Uiso   1.00
H405   H     0.86735   0.77490   0.29821   0.00000  Uiso   1.00
O406   O     0.56496   0.93117   0.98935   0.00000  Uiso   1.00
O407   O     0.03610   0.16670   0.12087   0.00000  Uiso   1.00
O408   O     0.93015   0.68656   0.26898   0.00000  Uiso   1.00
N409   N     0.66780   0.91365   0.99477   0.00000  Uiso   1.00
N410   N     0.00353   0.08150   0.08849   0.00000  Uiso   1.00
N411   N     0.92805   0.73936   0.19403   0.00000  Uiso   1.00
N412   N     0.62234   0.94690   0.06272   0.00000  Uiso   1.00
N413   N     0.95807   0.11476   0.15643   0.00000  Uiso   1.00
N414   N     0.88259   0.77262   0.26198   0.00000  Uiso   1.00
C415   C     0.63295   0.73705   0.08475   0.00000  Uiso   1.00
C416   C     0.69957   0.72795   0.07406   0.00000  Uiso   1.00
C417   C     0.72849   0.73835   0.02793   0.00000  Uiso   1.00
C418   C     0.78966   0.72729   0.02589   0.00000  Uiso   1.00
C419   C     0.88837   0.71628   0.00280   0.00000  Uiso   1.00
C420   C     0.60862   0.68121   0.10304   0.00000  Uiso   1.00
C421   C     0.56107   0.65231   0.08128   0.00000  Uiso   1.00
C422   C     0.54567   0.60191   0.10365   0.00000  Uiso   1.00
C423   C     0.50316   0.51835   0.12558   0.00000  Uiso   1.00
C424   C     0.62984   0.77587   0.13088   0.00000  Uiso   1.00
C425   C     0.60012   0.82656   0.13253   0.00000  Uiso   1.00
C426   C     0.60258   0.85585   0.17834   0.00000  Uiso   1.00
C427   C     0.59302   0.91927   0.24349   0.00000  Uiso   1.00
C428   C     0.69014   0.69893   0.16316   0.00000  Uiso   1.00
C429   C     0.73063   0.70725   0.11665   0.00000  Uiso   1.00
C430   C     0.79177   0.69617   0.11468   0.00000  Uiso   1.00
C431   C     0.82078   0.70655   0.06856   0.00000  Uiso   1.00
C432   C     0.63968   0.66050   0.14563   0.00000  Uiso   1.00
C433   C     0.62435   0.61014   0.16804   0.00000  Uiso   1.00
C434   C     0.57679   0.58117   0.14632   0.00000  Uiso   1.00
C435   C     0.66091   0.75517   0.17347   0.00000  Uiso   1.00
C436   C     0.66340   0.78438   0.21929   0.00000  Uiso   1.00
C437   C     0.63370   0.83511   0.22101   0.00000  Uiso   1.00
H438   H     0.60876   0.75317   0.05159   0.00000  Uiso   1.00
H439   H     0.70444   0.75436   0.99497   0.00000  Uiso   1.00
H440   H     0.53704   0.66834   0.04832   0.00000  Uiso   1.00
H441   H     0.57609   0.84257   0.09956   0.00000  Uiso   1.00
H442   H     0.82420   0.74654   0.95098   0.00000  Uiso   1.00
H443   H     0.47122   0.56517   0.06349   0.00000  Uiso   1.00
H444   H     0.55357   0.93255   0.17153   0.00000  Uiso   1.00
H445   H     0.71432   0.68281   0.19632   0.00000  Uiso   1.00
H446   H     0.81580   0.68015   0.14765   0.00000  Uiso   1.00
H447   H     0.64839   0.59413   0.20100   0.00000  Uiso   1.00
H448   H     0.68745   0.76835   0.25224   0.00000  Uiso   1.00
H449   H     0.91459   0.68630   0.07490   0.00000  Uiso   1.00
H450   H     0.56160   0.50493   0.18740   0.00000  Uiso   1.00
H451   H     0.64395   0.87231   0.29545   0.00000  Uiso   1.00
O452   O     0.93424   0.71592   0.97830   0.00000  Uiso   1.00
O453   O     0.47113   0.47798   0.12591   0.00000  Uiso   1.00
O454   O     0.57917   0.95997   0.26766   0.00000  Uiso   1.00
N455   N     0.83155   0.73274   0.98683   0.00000  Uiso   1.00
N456   N     0.50154   0.56317   0.09201   0.00000  Uiso   1.00
N457   N     0.57852   0.90663   0.19303   0.00000  Uiso   1.00
N458   N     0.88019   0.70033   0.05351   0.00000  Uiso   1.00
N459   N     0.55017   0.53075   0.15869   0.00000  Uiso   1.00
N460   N     0.62715   0.87422   0.25971   0.00000  Uiso   1.00
C461   C     0.18305   0.44770   0.16635   0.00000  Uiso   1.00
C462   C     0.15388   0.39132   0.17610   0.00000  Uiso   1.00
C463   C     0.15466   0.36245   0.22214   0.00000  Uiso   1.00
C464   C     0.12535   0.31151   0.22326   0.00000  Uiso   1.00
C465   C     0.08444   0.22721   0.24500   0.00000  Uiso   1.00
C466   C     0.13305   0.48561   0.14701   0.00000  Uiso   1.00
C467   C     0.11633   0.53603   0.16859   0.00000  Uiso   1.00
C468   C     0.06949   0.56447   0.14521   0.00000  Uiso   1.00
C469   C     0.99628   0.62659   0.12176   0.00000  Uiso   1.00
C470   C     0.22559   0.43936   0.12119   0.00000  Uiso   1.00
C471   C     0.28667   0.45089   0.12107   0.00000  Uiso   1.00
C472   C     0.31773   0.44041   0.07595   0.00000  Uiso   1.00
C473   C     0.38820   0.43071   0.01242   0.00000  Uiso   1.00
C474   C     0.12960   0.40858   0.08644   0.00000  Uiso   1.00
C475   C     0.12485   0.37007   0.13269   0.00000  Uiso   1.00
C476   C     0.09553   0.31917   0.13374   0.00000  Uiso   1.00
C477   C     0.09627   0.29023   0.17977   0.00000  Uiso   1.00
C478   C     0.10402   0.46437   0.10361   0.00000  Uiso   1.00
C479   C     0.05720   0.49275   0.08018   0.00000  Uiso   1.00
C480   C     0.04041   0.54319   0.10172   0.00000  Uiso   1.00
C481   C     0.19656   0.41811   0.07779   0.00000  Uiso   1.00
C482   C     0.22754   0.40761   0.03266   0.00000  Uiso   1.00
C483   C     0.28865   0.41913   0.03246   0.00000  Uiso   1.00
H484   H     0.20565   0.46424   0.20014   0.00000  Uiso   1.00
H485   H     0.17712   0.37890   0.25573   0.00000  Uiso   1.00
H486   H     0.13881   0.55246   0.20217   0.00000  Uiso   1.00
H487   H     0.30912   0.46733   0.15466   0.00000  Uiso   1.00
H488   H     0.13268   0.27493   0.29821   0.00000  Uiso   1.00
H489   H     0.05190   0.64089   0.18529   0.00000  Uiso   1.00
H490   H     0.41103   0.46139   0.08510   0.00000  Uiso   1.00
H491   H     0.10700   0.39204   0.05265   0.00000  Uiso   1.00
H492   H     0.07307   0.30274   0.10014   0.00000  Uiso   1.00
H493   H     0.03475   0.47630   0.04659   0.00000  Uiso   1.00
H494   H     0.20506   0.39117   0.99908   0.00000  Uiso   1.00
H495   H     0.04822   0.21312   0.17194   0.00000  Uiso   1.00
H496   H     0.96744   0.57908   0.05901   0.00000  Uiso   1.00
H497   H     0.32657   0.39958   0.95882   0.00000  Uiso   1.00
O498   O     0.06989   0.18659   0.26898   0.00000  Uiso   1.00
O499   O     0.96392   0.66672   0.12082   0.00000  Uiso   1.00
O500   O     0.43509   0.43122   0.98938   0.00000  Uiso   1.00
N501   N     0.11747   0.27263   0.26197   0.00000  Uiso   1.00
N502   N     0.04194   0.61478   0.15640   0.00000  Uiso   1.00
N503   N     0.37769   0.44698   0.06273   0.00000  Uiso   1.00
N504   N     0.07202   0.23937   0.19403   0.00000  Uiso   1.00
N505   N     0.99649   0.58152   0.08845   0.00000  Uiso   1.00
N506   N     0.33225   0.41372   0.99478   0.00000  Uiso   1.00
C507   C     0.30983   0.19890   0.16317   0.00000  Uiso   1.00
C508   C     0.33904   0.25514   0.17347   0.00000  Uiso   1.00
C509   C     0.33653   0.28436   0.21928   0.00000  Uiso   1.00
C510   C     0.36620   0.33510   0.22100   0.00000  Uiso   1.00
C511   C     0.40686   0.41927   0.24349   0.00000  Uiso   1.00
C512   C     0.36030   0.16048   0.14563   0.00000  Uiso   1.00
C513   C     0.37565   0.11012   0.16804   0.00000  Uiso   1.00
C514   C     0.42322   0.08117   0.14631   0.00000  Uiso   1.00
C515   C     0.49686   0.01836   0.12556   0.00000  Uiso   1.00
C516   C     0.26933   0.20719   0.11666   0.00000  Uiso   1.00
C517   C     0.20820   0.19609   0.11469   0.00000  Uiso   1.00
C518   C     0.17919   0.20645   0.06856   0.00000  Uiso   1.00
C519   C     0.11158   0.21617   0.00281   0.00000  Uiso   1.00
C520   C     0.36700   0.23703   0.08475   0.00000  Uiso   1.00
C521   C     0.37010   0.27585   0.13088   0.00000  Uiso   1.00
C522   C     0.39978   0.32655   0.13252   0.00000  Uiso   1.00
C523   C     0.39731   0.35585   0.17833   0.00000  Uiso   1.00
C524   C     0.39135   0.18119   0.10304   0.00000  Uiso   1.00
C525   C     0.43891   0.15231   0.08128   0.00000  Uiso   1.00
C526   C     0.45433   0.10191   0.10364   0.00000  Uiso   1.00
C527   C     0.30039   0.22791   0.07406   0.00000  Uiso   1.00
C528   C     0.27146   0.23828   0.02793   0.00000  Uiso   1.00
C529   C     0.21030   0.22720   0.02589   0.00000  Uiso   1.00
H530   H     0.28565   0.18277   0.19633   0.00000  Uiso   1.00
H531   H     0.31249   0.26832   0.25224   0.00000  Uiso   1.00
H532   H     0.35161   0.09410   0.20099   0.00000  Uiso   1.00
H533   H     0.18418   0.18006   0.14765   0.00000  Uiso   1.00
H534   H     0.35596   0.37229   0.29545   0.00000  Uiso   1.00
H535   H     0.43843   0.00493   0.18739   0.00000  Uiso   1.00
H536   H     0.08538   0.18620   0.07491   0.00000  Uiso   1.00
H537   H     0.39118   0.25315   0.05159   0.00000  Uiso   1.00
H538   H     0.42381   0.34257   0.09955   0.00000  Uiso   1.00
H539   H     0.46293   0.16835   0.04831   0.00000  Uiso   1.00
H540   H     0.29551   0.25431   0.99497   0.00000  Uiso   1.00
H541   H     0.44632   0.43256   0.17153   0.00000  Uiso   1.00
H542   H     0.52878   0.06519   0.06347   0.00000  Uiso   1.00
H543   H     0.17574   0.24646   0.95099   0.00000  Uiso   1.00
O544   O     0.42072   0.45997   0.26766   0.00000  Uiso   1.00
O545   O     0.52890   0.97799   0.12589   0.00000  Uiso   1.00
O546   O     0.06571   0.21582   0.97832   0.00000  Uiso   1.00
N547   N     0.37274   0.37421   0.25970   0.00000  Uiso   1.00
N548   N     0.44984   0.03075   0.15867   0.00000  Uiso   1.00
N549   N     0.11978   0.20021   0.05351   0.00000  Uiso   1.00
N550   N     0.42136   0.40664   0.19302   0.00000  Uiso   1.00
N551   N     0.49846   0.06318   0.09199   0.00000  Uiso   1.00
N552   N     0.16840   0.23263   0.98683   0.00000  Uiso   1.00
C553   C     0.12957   0.09144   0.58645   0.00000  Uiso   1.00
C554   C     0.19652   0.08192   0.57779   0.00000  Uiso   1.00
C555   C     0.22750   0.09243   0.53266   0.00000  Uiso   1.00
C556   C     0.28861   0.08094   0.53246   0.00000  Uiso   1.00
C557   C     0.38816   0.06936   0.51241   0.00000  Uiso   1.00
C558   C     0.10400   0.03565   0.60361   0.00000  Uiso   1.00
C559   C     0.05717   0.00727   0.58020   0.00000  Uiso   1.00
C560   C     0.04040   0.95682   0.60174   0.00000  Uiso   1.00
C561   C     0.99626   0.87343   0.62180   0.00000  Uiso   1.00
C562   C     0.12481   0.12995   0.63270   0.00000  Uiso   1.00
C563   C     0.09547   0.18084   0.63374   0.00000  Uiso   1.00
C564   C     0.09620   0.20979   0.67978   0.00000  Uiso   1.00
C565   C     0.08438   0.27281   0.74500   0.00000  Uiso   1.00
C566   C     0.18302   0.05234   0.66635   0.00000  Uiso   1.00
C567   C     0.22556   0.06068   0.62119   0.00000  Uiso   1.00
C568   C     0.28664   0.04916   0.62106   0.00000  Uiso   1.00
C569   C     0.31770   0.05966   0.57594   0.00000  Uiso   1.00
C570   C     0.13303   0.01441   0.64701   0.00000  Uiso   1.00
C571   C     0.11632   0.96400   0.66860   0.00000  Uiso   1.00
C572   C     0.06948   0.93554   0.64522   0.00000  Uiso   1.00
C573   C     0.15385   0.10871   0.67610   0.00000  Uiso   1.00
C574   C     0.15462   0.13758   0.72215   0.00000  Uiso   1.00
C575   C     0.12529   0.18851   0.72326   0.00000  Uiso   1.00
H576   H     0.10696   0.10798   0.55266   0.00000  Uiso   1.00
H577   H     0.20501   0.10887   0.49908   0.00000  Uiso   1.00
H578   H     0.03471   0.02372   0.54661   0.00000  Uiso   1.00
H579   H     0.07300   0.19727   0.60015   0.00000  Uiso   1.00
H580   H     0.32652   0.10047   0.45881   0.00000  Uiso   1.00
H581   H     0.96741   0.92093   0.55905   0.00000  Uiso   1.00
H582   H     0.04816   0.28690   0.67194   0.00000  Uiso   1.00
H583   H     0.20563   0.03580   0.70014   0.00000  Uiso   1.00
H584   H     0.30910   0.03273   0.65466   0.00000  Uiso   1.00
H585   H     0.13880   0.94757   0.70219   0.00000  Uiso   1.00
H586   H     0.17709   0.12113   0.75572   0.00000  Uiso   1.00
H587   H     0.41100   0.03866   0.58508   0.00000  Uiso   1.00
H588   H     0.05189   0.85913   0.68532   0.00000  Uiso   1.00
H589   H     0.13265   0.22510   0.79821   0.00000  Uiso   1.00
O590   O     0.43504   0.06883   0.48935   0.00000  Uiso   1.00
O591   O     0.96390   0.83330   0.62087   0.00000  Uiso   1.00
O592   O     0.06985   0.31344   0.76898   0.00000  Uiso   1.00
N593   N     0.33220   0.08635   0.49477   0.00000  Uiso   1.00
N594   N     0.99647   0.91850   0.58849   0.00000  Uiso   1.00
N595   N     0.07195   0.26064   0.69403   0.00000  Uiso   1.00
N596   N     0.37766   0.05310   0.56272   0.00000  Uiso   1.00
N597   N     0.04193   0.88524   0.65643   0.00000  Uiso   1.00
N598   N     0.11741   0.22738   0.76198   0.00000  Uiso   1.00
C599   C     0.36705   0.26295   0.58475   0.00000  Uiso   1.00
C600   C     0.30043   0.27205   0.57406   0.00000  Uiso   1.00
C601   C     0.27151   0.26165   0.52793   0.00000  Uiso   1.00
C602   C     0.21034   0.27271   0.52589   0.00000  Uiso   1.00
C603   C     0.11163   0.28372   0.50280   0.00000  Uiso   1.00
C604   C     0.39138   0.31879   0.60304   0.00000  Uiso   1.00
C605   C     0.43893   0.34769   0.58128   0.00000  Uiso   1.00
C606   C     0.45433   0.39809   0.60365   0.00000  Uiso   1.00
C607   C     0.49684   0.48165   0.62558   0.00000  Uiso   1.00
C608   C     0.37016   0.22413   0.63088   0.00000  Uiso   1.00
C609   C     0.39988   0.17344   0.63253   0.00000  Uiso   1.00
C610   C     0.39742   0.14415   0.67834   0.00000  Uiso   1.00
C611   C     0.40698   0.08073   0.74349   0.00000  Uiso   1.00
C612   C     0.30986   0.30107   0.66316   0.00000  Uiso   1.00
C613   C     0.26937   0.29275   0.61665   0.00000  Uiso   1.00
C614   C     0.20823   0.30383   0.61468   0.00000  Uiso   1.00
C615   C     0.17922   0.29345   0.56856   0.00000  Uiso   1.00
C616   C     0.36032   0.33950   0.64563   0.00000  Uiso   1.00
C617   C     0.37565   0.38986   0.66804   0.00000  Uiso   1.00
C618   C     0.42321   0.41883   0.64632   0.00000  Uiso   1.00
C619   C     0.33909   0.24483   0.67347   0.00000  Uiso   1.00
C620   C     0.33660   0.21562   0.71929   0.00000  Uiso   1.00
C621   C     0.36630   0.16489   0.72101   0.00000  Uiso   1.00
H622   H     0.39124   0.24683   0.55159   0.00000  Uiso   1.00
H623   H     0.29556   0.24564   0.49497   0.00000  Uiso   1.00
H624   H     0.46296   0.33166   0.54832   0.00000  Uiso   1.00
H625   H     0.42391   0.15743   0.59956   0.00000  Uiso   1.00
H626   H     0.17580   0.25346   0.45098   0.00000  Uiso   1.00
H627   H     0.52878   0.43483   0.56349   0.00000  Uiso   1.00
H628   H     0.44643   0.06745   0.67153   0.00000  Uiso   1.00
H629   H     0.28568   0.31719   0.69632   0.00000  Uiso   1.00
H630   H     0.18420   0.31985   0.64765   0.00000  Uiso   1.00
H631   H     0.35161   0.40587   0.70100   0.00000  Uiso   1.00
H632   H     0.31255   0.23165   0.75224   0.00000  Uiso   1.00
H633   H     0.08541   0.31370   0.57490   0.00000  Uiso   1.00
H634   H     0.43840   0.49507   0.68740   0.00000  Uiso   1.00
H635   H     0.35605   0.12769   0.79545   0.00000  Uiso   1.00
O636   O     0.06576   0.28408   0.47830   0.00000  Uiso   1.00
O637   O     0.52887   0.52202   0.62591   0.00000  Uiso   1.00
O638   O     0.42083   0.04003   0.76766   0.00000  Uiso   1.00
N639   N     0.16845   0.26726   0.48683   0.00000  Uiso   1.00
N640   N     0.49846   0.43683   0.59201   0.00000  Uiso   1.00
N641   N     0.42148   0.09337   0.69303   0.00000  Uiso   1.00
N642   N     0.11981   0.29967   0.55351   0.00000  Uiso   1.00
N643   N     0.44983   0.46925   0.65869   0.00000  Uiso   1.00
N644   N     0.37285   0.12578   0.75971   0.00000  Uiso   1.00
C645   C     0.81695   0.55230   0.66635   0.00000  Uiso   1.00
C646   C     0.84612   0.60868   0.67610   0.00000  Uiso   1.00
C647   C     0.84534   0.63755   0.72214   0.00000  Uiso   1.00
C648   C     0.87465   0.68849   0.72326   0.00000  Uiso   1.00
C649   C     0.91556   0.77279   0.74500   0.00000  Uiso   1.00
C650   C     0.86695   0.51439   0.64701   0.00000  Uiso   1.00
C651   C     0.88367   0.46397   0.66859   0.00000  Uiso   1.00
C652   C     0.93051   0.43553   0.64521   0.00000  Uiso   1.00
C653   C     0.00372   0.37341   0.62176   0.00000  Uiso   1.00
C654   C     0.77441   0.56064   0.62119   0.00000  Uiso   1.00
C655   C     0.71333   0.54911   0.62107   0.00000  Uiso   1.00
C656   C     0.68227   0.55959   0.57595   0.00000  Uiso   1.00
C657   C     0.61180   0.56929   0.51242   0.00000  Uiso   1.00
C658   C     0.87040   0.59142   0.58644   0.00000  Uiso   1.00
C659   C     0.87515   0.62993   0.63269   0.00000  Uiso   1.00
C660   C     0.90447   0.68083   0.63374   0.00000  Uiso   1.00
C661   C     0.90373   0.70977   0.67977   0.00000  Uiso   1.00
C662   C     0.89598   0.53563   0.60361   0.00000  Uiso   1.00
C663   C     0.94280   0.50725   0.58018   0.00000  Uiso   1.00
C664   C     0.95959   0.45681   0.60172   0.00000  Uiso   1.00
C665   C     0.80344   0.58189   0.57779   0.00000  Uiso   1.00
C666   C     0.77246   0.59239   0.53266   0.00000  Uiso   1.00
C667   C     0.71135   0.58087   0.53246   0.00000  Uiso   1.00
H668   H     0.79435   0.53576   0.70014   0.00000  Uiso   1.00
H669   H     0.82288   0.62110   0.75573   0.00000  Uiso   1.00
H670   H     0.86119   0.44754   0.70217   0.00000  Uiso   1.00
H671   H     0.69088   0.53267   0.65466   0.00000  Uiso   1.00
H672   H     0.86732   0.72507   0.79821   0.00000  Uiso   1.00
H673   H     0.94810   0.35911   0.68529   0.00000  Uiso   1.00
H674   H     0.58897   0.53861   0.58510   0.00000  Uiso   1.00
H675   H     0.89300   0.60796   0.55265   0.00000  Uiso   1.00
H676   H     0.92693   0.69726   0.60014   0.00000  Uiso   1.00
H677   H     0.96525   0.52370   0.54659   0.00000  Uiso   1.00
H678   H     0.79494   0.60883   0.49908   0.00000  Uiso   1.00
H679   H     0.95178   0.78688   0.67194   0.00000  Uiso   1.00
H680   H     0.03256   0.42092   0.55901   0.00000  Uiso   1.00
H681   H     0.67343   0.60042   0.45882   0.00000  Uiso   1.00
O682   O     0.93011   0.81341   0.76898   0.00000  Uiso   1.00
O683   O     0.03608   0.33328   0.62082   0.00000  Uiso   1.00
O684   O     0.56491   0.56878   0.48938   0.00000  Uiso   1.00
N685   N     0.88253   0.72737   0.76197   0.00000  Uiso   1.00
N686   N     0.95806   0.38522   0.65640   0.00000  Uiso   1.00
N687   N     0.62231   0.55302   0.56273   0.00000  Uiso   1.00
N688   N     0.92798   0.76063   0.69403   0.00000  Uiso   1.00
N689   N     0.00351   0.41848   0.58845   0.00000  Uiso   1.00
N690   N     0.66775   0.58628   0.49478   0.00000  Uiso   1.00
C691   C     0.69017   0.80110   0.66317   0.00000  Uiso   1.00
C692   C     0.66096   0.74486   0.67347   0.00000  Uiso   1.00
C693   C     0.66347   0.71564   0.71928   0.00000  Uiso   1.00
C694   C     0.63380   0.66490   0.72100   0.00000  Uiso   1.00
C695   C     0.59314   0.58073   0.74349   0.00000  Uiso   1.00
C696   C     0.63970   0.83952   0.64563   0.00000  Uiso   1.00
C697   C     0.62435   0.88988   0.66804   0.00000  Uiso   1.00
C698   C     0.57678   0.91883   0.64631   0.00000  Uiso   1.00
C699   C     0.50314   0.98164   0.62556   0.00000  Uiso   1.00
C700   C     0.73067   0.79281   0.61666   0.00000  Uiso   1.00
C701   C     0.79180   0.80391   0.61469   0.00000  Uiso   1.00
C702   C     0.82081   0.79355   0.56856   0.00000  Uiso   1.00
C703   C     0.88842   0.78383   0.50281   0.00000  Uiso   1.00
C704   C     0.63300   0.76297   0.58475   0.00000  Uiso   1.00
C705   C     0.62990   0.72415   0.63088   0.00000  Uiso   1.00
C706   C     0.60022   0.67345   0.63252   0.00000  Uiso   1.00
C707   C     0.60269   0.64415   0.67833   0.00000  Uiso   1.00
C708   C     0.60865   0.81881   0.60304   0.00000  Uiso   1.00
C709   C     0.56109   0.84769   0.58128   0.00000  Uiso   1.00
C710   C     0.54567   0.89809   0.60364   0.00000  Uiso   1.00
C711   C     0.69961   0.77209   0.57406   0.00000  Uiso   1.00
C712   C     0.72854   0.76172   0.52793   0.00000  Uiso   1.00
C713   C     0.78970   0.77280   0.52589   0.00000  Uiso   1.00
H714   H     0.71435   0.81723   0.69633   0.00000  Uiso   1.00
H715   H     0.68751   0.73168   0.75224   0.00000  Uiso   1.00
H716   H     0.64839   0.90590   0.70099   0.00000  Uiso   1.00
H717   H     0.81582   0.81994   0.64765   0.00000  Uiso   1.00
H718   H     0.64404   0.62771   0.79545   0.00000  Uiso   1.00
H719   H     0.56157   0.99507   0.68739   0.00000  Uiso   1.00
H720   H     0.91462   0.81380   0.57491   0.00000  Uiso   1.00
H721   H     0.60882   0.74685   0.55159   0.00000  Uiso   1.00
H722   H     0.57619   0.65743   0.59955   0.00000  Uiso   1.00
H723   H     0.53707   0.83165   0.54831   0.00000  Uiso   1.00
H724   H     0.70449   0.74569   0.49497   0.00000  Uiso   1.00
H725   H     0.55368   0.56744   0.67153   0.00000  Uiso   1.00
H726   H     0.47122   0.93481   0.56347   0.00000  Uiso   1.00
H727   H     0.82426   0.75354   0.45099   0.00000  Uiso   1.00
O728   O     0.57928   0.54003   0.76766   0.00000  Uiso   1.00
O729   O     0.47110   0.02201   0.62589   0.00000  Uiso   1.00
O730   O     0.93429   0.78418   0.47832   0.00000  Uiso   1.00
N731   N     0.62726   0.62579   0.75970   0.00000  Uiso   1.00
N732   N     0.55016   0.96925   0.65867   0.00000  Uiso   1.00
N733   N     0.88022   0.79979   0.55351   0.00000  Uiso   1.00
N734   N     0.57864   0.59336   0.69302   0.00000  Uiso   1.00
N735   N     0.50154   0.93682   0.59199   0.00000  Uiso   1.00
N736   N     0.83160   0.76737   0.48683   0.00000  Uiso   1.00
