data_job_04099
_audit_creation_date              2018-12-19
_audit_creation_method            'Materials Studio'
_symmetry_space_group_name_H-M    'P1'
_symmetry_Int_Tables_number       1
_symmetry_cell_setting            triclinic
loop_
_symmetry_equiv_pos_as_xyz
  x,y,z
_cell_length_a                    34.5803
_cell_length_b                    34.5803
_cell_length_c                    8.4776
_cell_angle_alpha                 90.0000
_cell_angle_beta                  90.0000
_cell_angle_gamma                 90.0000
loop_
_atom_site_label
_atom_site_type_symbol
_atom_site_fract_x
_atom_site_fract_y
_atom_site_fract_z
_atom_site_U_iso_or_equiv
_atom_site_adp_type
_atom_site_occupancy
C1     C     0.12258   0.17676   0.37254   0.00000  Uiso   1.00
C2     C     0.15827   0.16563   0.46797   0.00000  Uiso   1.00
C3     C     0.19588   0.17740   0.43699   0.00000  Uiso   1.00
C4     C     0.22450   0.16407   0.53816   0.00000  Uiso   1.00
C5     C     0.28124   0.15046   0.66689   0.00000  Uiso   1.00
C6     C     0.10392   0.13882   0.32140   0.00000  Uiso   1.00
C7     C     0.09583   0.12805   0.16719   0.00000  Uiso   1.00
C8     C     0.07870   0.09214   0.14498   0.00000  Uiso   1.00
C9     C     0.05104   0.03692   0.04617   0.00000  Uiso   1.00
C10    C     0.09455   0.19525   0.48912   0.00000  Uiso   1.00
C11    C     0.07858   0.23193   0.47592   0.00000  Uiso   1.00
C12    C     0.05355   0.24353   0.59491   0.00000  Uiso   1.00
C13    C     0.01134   0.27594   0.75652   0.00000  Uiso   1.00
C14    C     0.10653   0.13216   0.60730   0.00000  Uiso   1.00
C15    C     0.14955   0.14141   0.59548   0.00000  Uiso   1.00
C16    C     0.17812   0.12805   0.69673   0.00000  Uiso   1.00
C17    C     0.21577   0.13980   0.66591   0.00000  Uiso   1.00
C18    C     0.09521   0.11459   0.44890   0.00000  Uiso   1.00
C19    C     0.07808   0.07870   0.42692   0.00000  Uiso   1.00
C20    C     0.06997   0.06787   0.27272   0.00000  Uiso   1.00
C21    C     0.08584   0.17103   0.61664   0.00000  Uiso   1.00
C22    C     0.06082   0.18258   0.73566   0.00000  Uiso   1.00
C23    C     0.04481   0.21926   0.72265   0.00000  Uiso   1.00
H24    H     0.12937   0.19562   0.27326   0.00000  Uiso   1.00
H25    H     0.20261   0.19614   0.33829   0.00000  Uiso   1.00
H26    H     0.10258   0.14680   0.06854   0.00000  Uiso   1.00
H27    H     0.08533   0.25066   0.37723   0.00000  Uiso   1.00
H28    H     0.27998   0.18604   0.46659   0.00000  Uiso   1.00
H29    H     0.06904   0.08200   0.89780   0.00000  Uiso   1.00
H30    H     0.03266   0.30101   0.54873   0.00000  Uiso   1.00
H31    H     0.09974   0.11329   0.70658   0.00000  Uiso   1.00
H32    H     0.17137   0.10931   0.79539   0.00000  Uiso   1.00
H33    H     0.07133   0.05996   0.52563   0.00000  Uiso   1.00
H34    H     0.05408   0.16383   0.83432   0.00000  Uiso   1.00
H35    H     0.25462   0.11555   0.83758   0.00000  Uiso   1.00
H36    H     0.04368   0.01151   0.26879   0.00000  Uiso   1.00
H37    H     0.00730   0.23053   0.91973   0.00000  Uiso   1.00
O38    O     0.31495   0.14965   0.70266   0.00000  Uiso   1.00
O39    O     0.03820   0.01316   0.95643   0.00000  Uiso   1.00
O40    O     0.99048   0.30050   0.81044   0.00000  Uiso   1.00
N41    N     0.26418   0.17000   0.54173   0.00000  Uiso   1.00
N42    N     0.06697   0.07273   0.00994   0.00000  Uiso   1.00
N43    N     0.03295   0.27749   0.61849   0.00000  Uiso   1.00
N44    N     0.25053   0.13208   0.74136   0.00000  Uiso   1.00
N45    N     0.05333   0.03480   0.20957   0.00000  Uiso   1.00
N46    N     0.01931   0.23956   0.81812   0.00000  Uiso   1.00
C47    C     0.62258   0.67676   0.87254   0.00000  Uiso   1.00
C48    C     0.65827   0.66563   0.96797   0.00000  Uiso   1.00
C49    C     0.69588   0.67740   0.93699   0.00000  Uiso   1.00
C50    C     0.72450   0.66407   0.03816   0.00000  Uiso   1.00
C51    C     0.78124   0.65046   0.16689   0.00000  Uiso   1.00
C52    C     0.60392   0.63882   0.82140   0.00000  Uiso   1.00
C53    C     0.59583   0.62805   0.66719   0.00000  Uiso   1.00
C54    C     0.57870   0.59214   0.64498   0.00000  Uiso   1.00
C55    C     0.55104   0.53692   0.54617   0.00000  Uiso   1.00
C56    C     0.59455   0.69525   0.98912   0.00000  Uiso   1.00
C57    C     0.57858   0.73193   0.97592   0.00000  Uiso   1.00
C58    C     0.55355   0.74353   0.09491   0.00000  Uiso   1.00
C59    C     0.51134   0.77594   0.25652   0.00000  Uiso   1.00
C60    C     0.60653   0.63216   0.10730   0.00000  Uiso   1.00
C61    C     0.64955   0.64141   0.09548   0.00000  Uiso   1.00
C62    C     0.67812   0.62805   0.19673   0.00000  Uiso   1.00
C63    C     0.71577   0.63980   0.16591   0.00000  Uiso   1.00
C64    C     0.59521   0.61459   0.94890   0.00000  Uiso   1.00
C65    C     0.57808   0.57870   0.92692   0.00000  Uiso   1.00
C66    C     0.56997   0.56787   0.77272   0.00000  Uiso   1.00
C67    C     0.58584   0.67103   0.11664   0.00000  Uiso   1.00
C68    C     0.56082   0.68258   0.23566   0.00000  Uiso   1.00
C69    C     0.54481   0.71926   0.22265   0.00000  Uiso   1.00
H70    H     0.62937   0.69562   0.77326   0.00000  Uiso   1.00
H71    H     0.70261   0.69614   0.83829   0.00000  Uiso   1.00
H72    H     0.60258   0.64680   0.56854   0.00000  Uiso   1.00
H73    H     0.58533   0.75066   0.87723   0.00000  Uiso   1.00
H74    H     0.77998   0.68604   0.96659   0.00000  Uiso   1.00
H75    H     0.56904   0.58200   0.39780   0.00000  Uiso   1.00
H76    H     0.53266   0.80101   0.04873   0.00000  Uiso   1.00
H77    H     0.59974   0.61329   0.20658   0.00000  Uiso   1.00
H78    H     0.67137   0.60931   0.29539   0.00000  Uiso   1.00
H79    H     0.57133   0.55996   0.02563   0.00000  Uiso   1.00
H80    H     0.55408   0.66383   0.33432   0.00000  Uiso   1.00
H81    H     0.75462   0.61555   0.33758   0.00000  Uiso   1.00
H82    H     0.54368   0.51151   0.76879   0.00000  Uiso   1.00
H83    H     0.50730   0.73053   0.41973   0.00000  Uiso   1.00
O84    O     0.81495   0.64965   0.20266   0.00000  Uiso   1.00
O85    O     0.53820   0.51316   0.45643   0.00000  Uiso   1.00
O86    O     0.49048   0.80050   0.31044   0.00000  Uiso   1.00
N87    N     0.76418   0.67000   0.04173   0.00000  Uiso   1.00
N88    N     0.56697   0.57273   0.50994   0.00000  Uiso   1.00
N89    N     0.53295   0.77749   0.11849   0.00000  Uiso   1.00
N90    N     0.75053   0.63208   0.24136   0.00000  Uiso   1.00
N91    N     0.55333   0.53480   0.70957   0.00000  Uiso   1.00
N92    N     0.51931   0.73956   0.31812   0.00000  Uiso   1.00
C93    C     0.37742   0.32324   0.87254   0.00000  Uiso   1.00
C94    C     0.34173   0.33437   0.96797   0.00000  Uiso   1.00
C95    C     0.30412   0.32260   0.93699   0.00000  Uiso   1.00
C96    C     0.27550   0.33593   0.03816   0.00000  Uiso   1.00
C97    C     0.21876   0.34954   0.16689   0.00000  Uiso   1.00
C98    C     0.39608   0.36118   0.82140   0.00000  Uiso   1.00
C99    C     0.40417   0.37195   0.66719   0.00000  Uiso   1.00
C100   C     0.42130   0.40786   0.64498   0.00000  Uiso   1.00
C101   C     0.44896   0.46308   0.54617   0.00000  Uiso   1.00
C102   C     0.40545   0.30475   0.98912   0.00000  Uiso   1.00
C103   C     0.42142   0.26807   0.97592   0.00000  Uiso   1.00
C104   C     0.44645   0.25647   0.09491   0.00000  Uiso   1.00
C105   C     0.48866   0.22406   0.25652   0.00000  Uiso   1.00
C106   C     0.39347   0.36784   0.10730   0.00000  Uiso   1.00
C107   C     0.35045   0.35859   0.09548   0.00000  Uiso   1.00
C108   C     0.32188   0.37195   0.19673   0.00000  Uiso   1.00
C109   C     0.28423   0.36020   0.16591   0.00000  Uiso   1.00
C110   C     0.40479   0.38541   0.94890   0.00000  Uiso   1.00
C111   C     0.42192   0.42130   0.92692   0.00000  Uiso   1.00
C112   C     0.43003   0.43213   0.77272   0.00000  Uiso   1.00
C113   C     0.41416   0.32897   0.11664   0.00000  Uiso   1.00
C114   C     0.43918   0.31742   0.23566   0.00000  Uiso   1.00
C115   C     0.45519   0.28074   0.22265   0.00000  Uiso   1.00
H116   H     0.37063   0.30438   0.77326   0.00000  Uiso   1.00
H117   H     0.29739   0.30386   0.83829   0.00000  Uiso   1.00
H118   H     0.39742   0.35320   0.56854   0.00000  Uiso   1.00
H119   H     0.41467   0.24934   0.87723   0.00000  Uiso   1.00
H120   H     0.22002   0.31396   0.96659   0.00000  Uiso   1.00
H121   H     0.43096   0.41800   0.39780   0.00000  Uiso   1.00
H122   H     0.46734   0.19899   0.04873   0.00000  Uiso   1.00
H123   H     0.40026   0.38671   0.20658   0.00000  Uiso   1.00
H124   H     0.32863   0.39069   0.29539   0.00000  Uiso   1.00
H125   H     0.42867   0.44004   0.02563   0.00000  Uiso   1.00
H126   H     0.44592   0.33617   0.33432   0.00000  Uiso   1.00
H127   H     0.24538   0.38445   0.33758   0.00000  Uiso   1.00
H128   H     0.45632   0.48849   0.76879   0.00000  Uiso   1.00
H129   H     0.49270   0.26947   0.41973   0.00000  Uiso   1.00
O130   O     0.18505   0.35035   0.20266   0.00000  Uiso   1.00
O131   O     0.46180   0.48684   0.45643   0.00000  Uiso   1.00
O132   O     0.50952   0.19950   0.31044   0.00000  Uiso   1.00
N133   N     0.23582   0.33000   0.04173   0.00000  Uiso   1.00
N134   N     0.43303   0.42727   0.50994   0.00000  Uiso   1.00
N135   N     0.46705   0.22251   0.11849   0.00000  Uiso   1.00
N136   N     0.24947   0.36792   0.24136   0.00000  Uiso   1.00
N137   N     0.44667   0.46520   0.70957   0.00000  Uiso   1.00
N138   N     0.48069   0.26044   0.31812   0.00000  Uiso   1.00
C139   C     0.87742   0.82324   0.37254   0.00000  Uiso   1.00
C140   C     0.84173   0.83437   0.46797   0.00000  Uiso   1.00
C141   C     0.80412   0.82260   0.43699   0.00000  Uiso   1.00
C142   C     0.77550   0.83593   0.53816   0.00000  Uiso   1.00
C143   C     0.71876   0.84954   0.66689   0.00000  Uiso   1.00
C144   C     0.89608   0.86118   0.32140   0.00000  Uiso   1.00
C145   C     0.90417   0.87195   0.16719   0.00000  Uiso   1.00
C146   C     0.92130   0.90786   0.14498   0.00000  Uiso   1.00
C147   C     0.94896   0.96308   0.04617   0.00000  Uiso   1.00
C148   C     0.90545   0.80475   0.48912   0.00000  Uiso   1.00
C149   C     0.92142   0.76807   0.47592   0.00000  Uiso   1.00
C150   C     0.94645   0.75647   0.59491   0.00000  Uiso   1.00
C151   C     0.98866   0.72406   0.75652   0.00000  Uiso   1.00
C152   C     0.89347   0.86784   0.60730   0.00000  Uiso   1.00
C153   C     0.85045   0.85859   0.59548   0.00000  Uiso   1.00
C154   C     0.82188   0.87195   0.69673   0.00000  Uiso   1.00
C155   C     0.78423   0.86020   0.66591   0.00000  Uiso   1.00
C156   C     0.90479   0.88541   0.44890   0.00000  Uiso   1.00
C157   C     0.92192   0.92130   0.42692   0.00000  Uiso   1.00
C158   C     0.93003   0.93213   0.27272   0.00000  Uiso   1.00
C159   C     0.91416   0.82897   0.61664   0.00000  Uiso   1.00
C160   C     0.93918   0.81742   0.73566   0.00000  Uiso   1.00
C161   C     0.95519   0.78074   0.72265   0.00000  Uiso   1.00
H162   H     0.87063   0.80438   0.27326   0.00000  Uiso   1.00
H163   H     0.79739   0.80386   0.33829   0.00000  Uiso   1.00
H164   H     0.89742   0.85320   0.06854   0.00000  Uiso   1.00
H165   H     0.91467   0.74934   0.37723   0.00000  Uiso   1.00
H166   H     0.72002   0.81396   0.46659   0.00000  Uiso   1.00
H167   H     0.93096   0.91800   0.89780   0.00000  Uiso   1.00
H168   H     0.96734   0.69899   0.54873   0.00000  Uiso   1.00
H169   H     0.90026   0.88671   0.70658   0.00000  Uiso   1.00
H170   H     0.82863   0.89069   0.79539   0.00000  Uiso   1.00
H171   H     0.92867   0.94004   0.52563   0.00000  Uiso   1.00
H172   H     0.94592   0.83617   0.83432   0.00000  Uiso   1.00
H173   H     0.74538   0.88445   0.83758   0.00000  Uiso   1.00
H174   H     0.95632   0.98849   0.26879   0.00000  Uiso   1.00
H175   H     0.99270   0.76947   0.91973   0.00000  Uiso   1.00
O176   O     0.68505   0.85035   0.70266   0.00000  Uiso   1.00
O177   O     0.96180   0.98684   0.95643   0.00000  Uiso   1.00
O178   O     0.00952   0.69950   0.81044   0.00000  Uiso   1.00
N179   N     0.73582   0.83000   0.54173   0.00000  Uiso   1.00
N180   N     0.93303   0.92727   0.00994   0.00000  Uiso   1.00
N181   N     0.96705   0.72251   0.61849   0.00000  Uiso   1.00
N182   N     0.74947   0.86792   0.74136   0.00000  Uiso   1.00
N183   N     0.94667   0.96520   0.20957   0.00000  Uiso   1.00
N184   N     0.98069   0.76044   0.81812   0.00000  Uiso   1.00
C185   C     0.82324   0.62258   0.62254   0.00000  Uiso   1.00
C186   C     0.83437   0.65827   0.71797   0.00000  Uiso   1.00
C187   C     0.82260   0.69588   0.68699   0.00000  Uiso   1.00
C188   C     0.83593   0.72450   0.78816   0.00000  Uiso   1.00
C189   C     0.84954   0.78124   0.91689   0.00000  Uiso   1.00
C190   C     0.86118   0.60392   0.57140   0.00000  Uiso   1.00
C191   C     0.87195   0.59583   0.41719   0.00000  Uiso   1.00
C192   C     0.90786   0.57870   0.39498   0.00000  Uiso   1.00
C193   C     0.96308   0.55104   0.29617   0.00000  Uiso   1.00
C194   C     0.80475   0.59455   0.73912   0.00000  Uiso   1.00
C195   C     0.76807   0.57858   0.72592   0.00000  Uiso   1.00
C196   C     0.75647   0.55355   0.84491   0.00000  Uiso   1.00
C197   C     0.72406   0.51134   0.00652   0.00000  Uiso   1.00
C198   C     0.86784   0.60653   0.85730   0.00000  Uiso   1.00
C199   C     0.85859   0.64955   0.84548   0.00000  Uiso   1.00
C200   C     0.87195   0.67812   0.94673   0.00000  Uiso   1.00
C201   C     0.86020   0.71577   0.91591   0.00000  Uiso   1.00
C202   C     0.88541   0.59521   0.69890   0.00000  Uiso   1.00
C203   C     0.92130   0.57808   0.67692   0.00000  Uiso   1.00
C204   C     0.93213   0.56997   0.52272   0.00000  Uiso   1.00
C205   C     0.82897   0.58584   0.86664   0.00000  Uiso   1.00
C206   C     0.81742   0.56082   0.98566   0.00000  Uiso   1.00
C207   C     0.78074   0.54481   0.97265   0.00000  Uiso   1.00
H208   H     0.80438   0.62937   0.52326   0.00000  Uiso   1.00
H209   H     0.80386   0.70261   0.58829   0.00000  Uiso   1.00
H210   H     0.85320   0.60258   0.31854   0.00000  Uiso   1.00
H211   H     0.74934   0.58533   0.62723   0.00000  Uiso   1.00
H212   H     0.81396   0.77998   0.71659   0.00000  Uiso   1.00
H213   H     0.91800   0.56904   0.14780   0.00000  Uiso   1.00
H214   H     0.69899   0.53266   0.79873   0.00000  Uiso   1.00
H215   H     0.88671   0.59974   0.95658   0.00000  Uiso   1.00
H216   H     0.89069   0.67137   0.04539   0.00000  Uiso   1.00
H217   H     0.94004   0.57133   0.77563   0.00000  Uiso   1.00
H218   H     0.83617   0.55408   0.08432   0.00000  Uiso   1.00
H219   H     0.88445   0.75462   0.08758   0.00000  Uiso   1.00
H220   H     0.98849   0.54368   0.51879   0.00000  Uiso   1.00
H221   H     0.76947   0.50730   0.16973   0.00000  Uiso   1.00
O222   O     0.85035   0.81495   0.95266   0.00000  Uiso   1.00
O223   O     0.98684   0.53820   0.20643   0.00000  Uiso   1.00
O224   O     0.69950   0.49048   0.06044   0.00000  Uiso   1.00
N225   N     0.83000   0.76418   0.79173   0.00000  Uiso   1.00
N226   N     0.92727   0.56697   0.25994   0.00000  Uiso   1.00
N227   N     0.72251   0.53295   0.86849   0.00000  Uiso   1.00
N228   N     0.86792   0.75053   0.99136   0.00000  Uiso   1.00
N229   N     0.96520   0.55333   0.45957   0.00000  Uiso   1.00
N230   N     0.76044   0.51931   0.06812   0.00000  Uiso   1.00
C231   C     0.32324   0.12258   0.12254   0.00000  Uiso   1.00
C232   C     0.33437   0.15827   0.21797   0.00000  Uiso   1.00
C233   C     0.32260   0.19588   0.18699   0.00000  Uiso   1.00
C234   C     0.33593   0.22450   0.28816   0.00000  Uiso   1.00
C235   C     0.34954   0.28124   0.41689   0.00000  Uiso   1.00
C236   C     0.36118   0.10392   0.07140   0.00000  Uiso   1.00
C237   C     0.37195   0.09583   0.91719   0.00000  Uiso   1.00
C238   C     0.40786   0.07870   0.89498   0.00000  Uiso   1.00
C239   C     0.46308   0.05104   0.79617   0.00000  Uiso   1.00
C240   C     0.30475   0.09455   0.23912   0.00000  Uiso   1.00
C241   C     0.26807   0.07858   0.22592   0.00000  Uiso   1.00
C242   C     0.25647   0.05355   0.34491   0.00000  Uiso   1.00
C243   C     0.22406   0.01134   0.50652   0.00000  Uiso   1.00
C244   C     0.36784   0.10653   0.35730   0.00000  Uiso   1.00
C245   C     0.35859   0.14955   0.34548   0.00000  Uiso   1.00
C246   C     0.37195   0.17812   0.44673   0.00000  Uiso   1.00
C247   C     0.36020   0.21577   0.41591   0.00000  Uiso   1.00
C248   C     0.38541   0.09521   0.19890   0.00000  Uiso   1.00
C249   C     0.42130   0.07808   0.17692   0.00000  Uiso   1.00
C250   C     0.43213   0.06997   0.02272   0.00000  Uiso   1.00
C251   C     0.32897   0.08584   0.36664   0.00000  Uiso   1.00
C252   C     0.31742   0.06082   0.48566   0.00000  Uiso   1.00
C253   C     0.28074   0.04481   0.47265   0.00000  Uiso   1.00
H254   H     0.30438   0.12937   0.02326   0.00000  Uiso   1.00
H255   H     0.30386   0.20261   0.08829   0.00000  Uiso   1.00
H256   H     0.35320   0.10258   0.81854   0.00000  Uiso   1.00
H257   H     0.24934   0.08533   0.12723   0.00000  Uiso   1.00
H258   H     0.31396   0.27998   0.21659   0.00000  Uiso   1.00
H259   H     0.41800   0.06904   0.64780   0.00000  Uiso   1.00
H260   H     0.19899   0.03266   0.29873   0.00000  Uiso   1.00
H261   H     0.38671   0.09974   0.45658   0.00000  Uiso   1.00
H262   H     0.39069   0.17137   0.54539   0.00000  Uiso   1.00
H263   H     0.44004   0.07133   0.27563   0.00000  Uiso   1.00
H264   H     0.33617   0.05408   0.58432   0.00000  Uiso   1.00
H265   H     0.38445   0.25462   0.58758   0.00000  Uiso   1.00
H266   H     0.48849   0.04368   0.01879   0.00000  Uiso   1.00
H267   H     0.26947   0.00730   0.66973   0.00000  Uiso   1.00
O268   O     0.35035   0.31495   0.45266   0.00000  Uiso   1.00
O269   O     0.48684   0.03820   0.70643   0.00000  Uiso   1.00
O270   O     0.19950   0.99048   0.56044   0.00000  Uiso   1.00
N271   N     0.33000   0.26418   0.29173   0.00000  Uiso   1.00
N272   N     0.42727   0.06697   0.75994   0.00000  Uiso   1.00
N273   N     0.22251   0.03295   0.36849   0.00000  Uiso   1.00
N274   N     0.36792   0.25053   0.49136   0.00000  Uiso   1.00
N275   N     0.46520   0.05333   0.95957   0.00000  Uiso   1.00
N276   N     0.26044   0.01931   0.56812   0.00000  Uiso   1.00
C277   C     0.67676   0.87742   0.12254   0.00000  Uiso   1.00
C278   C     0.66563   0.84173   0.21797   0.00000  Uiso   1.00
C279   C     0.67740   0.80412   0.18699   0.00000  Uiso   1.00
C280   C     0.66407   0.77550   0.28816   0.00000  Uiso   1.00
C281   C     0.65046   0.71876   0.41689   0.00000  Uiso   1.00
C282   C     0.63882   0.89608   0.07140   0.00000  Uiso   1.00
C283   C     0.62805   0.90417   0.91719   0.00000  Uiso   1.00
C284   C     0.59214   0.92130   0.89498   0.00000  Uiso   1.00
C285   C     0.53692   0.94896   0.79617   0.00000  Uiso   1.00
C286   C     0.69525   0.90545   0.23912   0.00000  Uiso   1.00
C287   C     0.73193   0.92142   0.22592   0.00000  Uiso   1.00
C288   C     0.74353   0.94645   0.34491   0.00000  Uiso   1.00
C289   C     0.77594   0.98866   0.50652   0.00000  Uiso   1.00
C290   C     0.63216   0.89347   0.35730   0.00000  Uiso   1.00
C291   C     0.64141   0.85045   0.34548   0.00000  Uiso   1.00
C292   C     0.62805   0.82188   0.44673   0.00000  Uiso   1.00
C293   C     0.63980   0.78423   0.41591   0.00000  Uiso   1.00
C294   C     0.61459   0.90479   0.19890   0.00000  Uiso   1.00
C295   C     0.57870   0.92192   0.17692   0.00000  Uiso   1.00
C296   C     0.56787   0.93003   0.02272   0.00000  Uiso   1.00
C297   C     0.67103   0.91416   0.36664   0.00000  Uiso   1.00
C298   C     0.68258   0.93918   0.48566   0.00000  Uiso   1.00
C299   C     0.71926   0.95519   0.47265   0.00000  Uiso   1.00
H300   H     0.69562   0.87063   0.02326   0.00000  Uiso   1.00
H301   H     0.69614   0.79739   0.08829   0.00000  Uiso   1.00
H302   H     0.64680   0.89742   0.81854   0.00000  Uiso   1.00
H303   H     0.75066   0.91467   0.12723   0.00000  Uiso   1.00
H304   H     0.68604   0.72002   0.21659   0.00000  Uiso   1.00
H305   H     0.58200   0.93096   0.64780   0.00000  Uiso   1.00
H306   H     0.80101   0.96734   0.29873   0.00000  Uiso   1.00
H307   H     0.61329   0.90026   0.45658   0.00000  Uiso   1.00
H308   H     0.60931   0.82863   0.54539   0.00000  Uiso   1.00
H309   H     0.55996   0.92867   0.27563   0.00000  Uiso   1.00
H310   H     0.66383   0.94592   0.58432   0.00000  Uiso   1.00
H311   H     0.61555   0.74538   0.58758   0.00000  Uiso   1.00
H312   H     0.51151   0.95632   0.01879   0.00000  Uiso   1.00
H313   H     0.73053   0.99270   0.66973   0.00000  Uiso   1.00
O314   O     0.64965   0.68505   0.45266   0.00000  Uiso   1.00
O315   O     0.51316   0.96180   0.70643   0.00000  Uiso   1.00
O316   O     0.80050   0.00952   0.56044   0.00000  Uiso   1.00
N317   N     0.67000   0.73582   0.29173   0.00000  Uiso   1.00
N318   N     0.57273   0.93303   0.75994   0.00000  Uiso   1.00
N319   N     0.77749   0.96705   0.36849   0.00000  Uiso   1.00
N320   N     0.63208   0.74947   0.49136   0.00000  Uiso   1.00
N321   N     0.53480   0.94667   0.95957   0.00000  Uiso   1.00
N322   N     0.73956   0.98069   0.56812   0.00000  Uiso   1.00
C323   C     0.17676   0.37742   0.62254   0.00000  Uiso   1.00
C324   C     0.16563   0.34173   0.71797   0.00000  Uiso   1.00
C325   C     0.17740   0.30412   0.68699   0.00000  Uiso   1.00
C326   C     0.16407   0.27550   0.78816   0.00000  Uiso   1.00
C327   C     0.15046   0.21876   0.91689   0.00000  Uiso   1.00
C328   C     0.13882   0.39608   0.57140   0.00000  Uiso   1.00
C329   C     0.12805   0.40417   0.41719   0.00000  Uiso   1.00
C330   C     0.09214   0.42130   0.39498   0.00000  Uiso   1.00
C331   C     0.03692   0.44896   0.29617   0.00000  Uiso   1.00
C332   C     0.19525   0.40545   0.73912   0.00000  Uiso   1.00
C333   C     0.23193   0.42142   0.72592   0.00000  Uiso   1.00
C334   C     0.24353   0.44645   0.84491   0.00000  Uiso   1.00
C335   C     0.27594   0.48866   0.00652   0.00000  Uiso   1.00
C336   C     0.13216   0.39347   0.85730   0.00000  Uiso   1.00
C337   C     0.14141   0.35045   0.84548   0.00000  Uiso   1.00
C338   C     0.12805   0.32188   0.94673   0.00000  Uiso   1.00
C339   C     0.13980   0.28423   0.91591   0.00000  Uiso   1.00
C340   C     0.11459   0.40479   0.69890   0.00000  Uiso   1.00
C341   C     0.07870   0.42192   0.67692   0.00000  Uiso   1.00
C342   C     0.06787   0.43003   0.52272   0.00000  Uiso   1.00
C343   C     0.17103   0.41416   0.86664   0.00000  Uiso   1.00
C344   C     0.18258   0.43918   0.98566   0.00000  Uiso   1.00
C345   C     0.21926   0.45519   0.97265   0.00000  Uiso   1.00
H346   H     0.19562   0.37063   0.52326   0.00000  Uiso   1.00
H347   H     0.19614   0.29739   0.58829   0.00000  Uiso   1.00
H348   H     0.14680   0.39742   0.31854   0.00000  Uiso   1.00
H349   H     0.25066   0.41467   0.62723   0.00000  Uiso   1.00
H350   H     0.18604   0.22002   0.71659   0.00000  Uiso   1.00
H351   H     0.08200   0.43096   0.14780   0.00000  Uiso   1.00
H352   H     0.30101   0.46734   0.79873   0.00000  Uiso   1.00
H353   H     0.11329   0.40026   0.95658   0.00000  Uiso   1.00
H354   H     0.10931   0.32863   0.04539   0.00000  Uiso   1.00
H355   H     0.05996   0.42867   0.77563   0.00000  Uiso   1.00
H356   H     0.16383   0.44592   0.08432   0.00000  Uiso   1.00
H357   H     0.11555   0.24538   0.08758   0.00000  Uiso   1.00
H358   H     0.01151   0.45632   0.51879   0.00000  Uiso   1.00
H359   H     0.23053   0.49270   0.16973   0.00000  Uiso   1.00
O360   O     0.14965   0.18505   0.95266   0.00000  Uiso   1.00
O361   O     0.01316   0.46180   0.20643   0.00000  Uiso   1.00
O362   O     0.30050   0.50952   0.06044   0.00000  Uiso   1.00
N363   N     0.17000   0.23582   0.79173   0.00000  Uiso   1.00
N364   N     0.07273   0.43303   0.25994   0.00000  Uiso   1.00
N365   N     0.27749   0.46705   0.86849   0.00000  Uiso   1.00
N366   N     0.13208   0.24947   0.99136   0.00000  Uiso   1.00
N367   N     0.03480   0.44667   0.45957   0.00000  Uiso   1.00
N368   N     0.23956   0.48069   0.06812   0.00000  Uiso   1.00
C369   C     0.12258   0.82324   0.87254   0.00000  Uiso   1.00
C370   C     0.15827   0.83437   0.96797   0.00000  Uiso   1.00
C371   C     0.19588   0.82260   0.93699   0.00000  Uiso   1.00
C372   C     0.22450   0.83593   0.03816   0.00000  Uiso   1.00
C373   C     0.28124   0.84954   0.16689   0.00000  Uiso   1.00
C374   C     0.10392   0.86118   0.82140   0.00000  Uiso   1.00
C375   C     0.09583   0.87195   0.66719   0.00000  Uiso   1.00
C376   C     0.07870   0.90786   0.64498   0.00000  Uiso   1.00
C377   C     0.05104   0.96308   0.54617   0.00000  Uiso   1.00
C378   C     0.09455   0.80475   0.98912   0.00000  Uiso   1.00
C379   C     0.07858   0.76807   0.97592   0.00000  Uiso   1.00
C380   C     0.05355   0.75647   0.09491   0.00000  Uiso   1.00
C381   C     0.01134   0.72406   0.25652   0.00000  Uiso   1.00
C382   C     0.10653   0.86784   0.10730   0.00000  Uiso   1.00
C383   C     0.14955   0.85859   0.09548   0.00000  Uiso   1.00
C384   C     0.17812   0.87195   0.19673   0.00000  Uiso   1.00
C385   C     0.21577   0.86020   0.16591   0.00000  Uiso   1.00
C386   C     0.09521   0.88541   0.94890   0.00000  Uiso   1.00
C387   C     0.07808   0.92130   0.92692   0.00000  Uiso   1.00
C388   C     0.06997   0.93213   0.77272   0.00000  Uiso   1.00
C389   C     0.08584   0.82897   0.11664   0.00000  Uiso   1.00
C390   C     0.06082   0.81742   0.23566   0.00000  Uiso   1.00
C391   C     0.04481   0.78074   0.22265   0.00000  Uiso   1.00
H392   H     0.12937   0.80438   0.77326   0.00000  Uiso   1.00
H393   H     0.20261   0.80386   0.83829   0.00000  Uiso   1.00
H394   H     0.10258   0.85320   0.56854   0.00000  Uiso   1.00
H395   H     0.08533   0.74934   0.87723   0.00000  Uiso   1.00
H396   H     0.27998   0.81396   0.96659   0.00000  Uiso   1.00
H397   H     0.06904   0.91800   0.39780   0.00000  Uiso   1.00
H398   H     0.03266   0.69899   0.04873   0.00000  Uiso   1.00
H399   H     0.09974   0.88671   0.20658   0.00000  Uiso   1.00
H400   H     0.17137   0.89069   0.29539   0.00000  Uiso   1.00
H401   H     0.07133   0.94004   0.02563   0.00000  Uiso   1.00
H402   H     0.05408   0.83617   0.33432   0.00000  Uiso   1.00
H403   H     0.25462   0.88445   0.33758   0.00000  Uiso   1.00
H404   H     0.04368   0.98849   0.76879   0.00000  Uiso   1.00
H405   H     0.00730   0.76947   0.41973   0.00000  Uiso   1.00
O406   O     0.31495   0.85035   0.20266   0.00000  Uiso   1.00
O407   O     0.03820   0.98684   0.45643   0.00000  Uiso   1.00
O408   O     0.99048   0.69950   0.31044   0.00000  Uiso   1.00
N409   N     0.26418   0.83000   0.04173   0.00000  Uiso   1.00
N410   N     0.06697   0.92727   0.50994   0.00000  Uiso   1.00
N411   N     0.03295   0.72251   0.11849   0.00000  Uiso   1.00
N412   N     0.25053   0.86792   0.24136   0.00000  Uiso   1.00
N413   N     0.05333   0.96520   0.70957   0.00000  Uiso   1.00
N414   N     0.01931   0.76044   0.31812   0.00000  Uiso   1.00
C415   C     0.62258   0.32324   0.37254   0.00000  Uiso   1.00
C416   C     0.65827   0.33437   0.46797   0.00000  Uiso   1.00
C417   C     0.69588   0.32260   0.43699   0.00000  Uiso   1.00
C418   C     0.72450   0.33593   0.53816   0.00000  Uiso   1.00
C419   C     0.78124   0.34954   0.66689   0.00000  Uiso   1.00
C420   C     0.60392   0.36118   0.32140   0.00000  Uiso   1.00
C421   C     0.59583   0.37195   0.16719   0.00000  Uiso   1.00
C422   C     0.57870   0.40786   0.14498   0.00000  Uiso   1.00
C423   C     0.55104   0.46308   0.04617   0.00000  Uiso   1.00
C424   C     0.59455   0.30475   0.48912   0.00000  Uiso   1.00
C425   C     0.57858   0.26807   0.47592   0.00000  Uiso   1.00
C426   C     0.55355   0.25647   0.59491   0.00000  Uiso   1.00
C427   C     0.51134   0.22406   0.75652   0.00000  Uiso   1.00
C428   C     0.60653   0.36784   0.60730   0.00000  Uiso   1.00
C429   C     0.64955   0.35859   0.59548   0.00000  Uiso   1.00
C430   C     0.67812   0.37195   0.69673   0.00000  Uiso   1.00
C431   C     0.71577   0.36020   0.66591   0.00000  Uiso   1.00
C432   C     0.59521   0.38541   0.44890   0.00000  Uiso   1.00
C433   C     0.57808   0.42130   0.42692   0.00000  Uiso   1.00
C434   C     0.56997   0.43213   0.27272   0.00000  Uiso   1.00
C435   C     0.58584   0.32897   0.61664   0.00000  Uiso   1.00
C436   C     0.56082   0.31742   0.73566   0.00000  Uiso   1.00
C437   C     0.54481   0.28074   0.72265   0.00000  Uiso   1.00
H438   H     0.62937   0.30438   0.27326   0.00000  Uiso   1.00
H439   H     0.70261   0.30386   0.33829   0.00000  Uiso   1.00
H440   H     0.60258   0.35320   0.06854   0.00000  Uiso   1.00
H441   H     0.58533   0.24934   0.37723   0.00000  Uiso   1.00
H442   H     0.77998   0.31396   0.46659   0.00000  Uiso   1.00
H443   H     0.56904   0.41800   0.89780   0.00000  Uiso   1.00
H444   H     0.53266   0.19899   0.54873   0.00000  Uiso   1.00
H445   H     0.59974   0.38671   0.70658   0.00000  Uiso   1.00
H446   H     0.67137   0.39069   0.79539   0.00000  Uiso   1.00
H447   H     0.57133   0.44004   0.52563   0.00000  Uiso   1.00
H448   H     0.55408   0.33617   0.83432   0.00000  Uiso   1.00
H449   H     0.75462   0.38445   0.83758   0.00000  Uiso   1.00
H450   H     0.54368   0.48849   0.26879   0.00000  Uiso   1.00
H451   H     0.50730   0.26947   0.91973   0.00000  Uiso   1.00
O452   O     0.81495   0.35035   0.70266   0.00000  Uiso   1.00
O453   O     0.53820   0.48684   0.95643   0.00000  Uiso   1.00
O454   O     0.49048   0.19950   0.81044   0.00000  Uiso   1.00
N455   N     0.76418   0.33000   0.54173   0.00000  Uiso   1.00
N456   N     0.56697   0.42727   0.00994   0.00000  Uiso   1.00
N457   N     0.53295   0.22251   0.61849   0.00000  Uiso   1.00
N458   N     0.75053   0.36792   0.74136   0.00000  Uiso   1.00
N459   N     0.55333   0.46520   0.20957   0.00000  Uiso   1.00
N460   N     0.51931   0.26044   0.81812   0.00000  Uiso   1.00
C461   C     0.37742   0.67676   0.37254   0.00000  Uiso   1.00
C462   C     0.34173   0.66563   0.46797   0.00000  Uiso   1.00
C463   C     0.30412   0.67740   0.43699   0.00000  Uiso   1.00
C464   C     0.27550   0.66407   0.53816   0.00000  Uiso   1.00
C465   C     0.21876   0.65046   0.66689   0.00000  Uiso   1.00
C466   C     0.39608   0.63882   0.32140   0.00000  Uiso   1.00
C467   C     0.40417   0.62805   0.16719   0.00000  Uiso   1.00
C468   C     0.42130   0.59214   0.14498   0.00000  Uiso   1.00
C469   C     0.44896   0.53692   0.04617   0.00000  Uiso   1.00
C470   C     0.40545   0.69525   0.48912   0.00000  Uiso   1.00
C471   C     0.42142   0.73193   0.47592   0.00000  Uiso   1.00
C472   C     0.44645   0.74353   0.59491   0.00000  Uiso   1.00
C473   C     0.48866   0.77594   0.75652   0.00000  Uiso   1.00
C474   C     0.39347   0.63216   0.60730   0.00000  Uiso   1.00
C475   C     0.35045   0.64141   0.59548   0.00000  Uiso   1.00
C476   C     0.32188   0.62805   0.69673   0.00000  Uiso   1.00
C477   C     0.28423   0.63980   0.66591   0.00000  Uiso   1.00
C478   C     0.40479   0.61459   0.44890   0.00000  Uiso   1.00
C479   C     0.42192   0.57870   0.42692   0.00000  Uiso   1.00
C480   C     0.43003   0.56787   0.27272   0.00000  Uiso   1.00
C481   C     0.41416   0.67103   0.61664   0.00000  Uiso   1.00
C482   C     0.43918   0.68258   0.73566   0.00000  Uiso   1.00
C483   C     0.45519   0.71926   0.72265   0.00000  Uiso   1.00
H484   H     0.37063   0.69562   0.27326   0.00000  Uiso   1.00
H485   H     0.29739   0.69614   0.33829   0.00000  Uiso   1.00
H486   H     0.39742   0.64680   0.06854   0.00000  Uiso   1.00
H487   H     0.41467   0.75066   0.37723   0.00000  Uiso   1.00
H488   H     0.22002   0.68604   0.46659   0.00000  Uiso   1.00
H489   H     0.43096   0.58200   0.89780   0.00000  Uiso   1.00
H490   H     0.46734   0.80101   0.54873   0.00000  Uiso   1.00
H491   H     0.40026   0.61329   0.70658   0.00000  Uiso   1.00
H492   H     0.32863   0.60931   0.79539   0.00000  Uiso   1.00
H493   H     0.42867   0.55996   0.52563   0.00000  Uiso   1.00
H494   H     0.44592   0.66383   0.83432   0.00000  Uiso   1.00
H495   H     0.24538   0.61555   0.83758   0.00000  Uiso   1.00
H496   H     0.45632   0.51151   0.26879   0.00000  Uiso   1.00
H497   H     0.49270   0.73053   0.91973   0.00000  Uiso   1.00
O498   O     0.18505   0.64965   0.70266   0.00000  Uiso   1.00
O499   O     0.46180   0.51316   0.95643   0.00000  Uiso   1.00
O500   O     0.50952   0.80050   0.81044   0.00000  Uiso   1.00
N501   N     0.23582   0.67000   0.54173   0.00000  Uiso   1.00
N502   N     0.43303   0.57273   0.00994   0.00000  Uiso   1.00
N503   N     0.46705   0.77749   0.61849   0.00000  Uiso   1.00
N504   N     0.24947   0.63208   0.74136   0.00000  Uiso   1.00
N505   N     0.44667   0.53480   0.20957   0.00000  Uiso   1.00
N506   N     0.48069   0.73956   0.81812   0.00000  Uiso   1.00
C507   C     0.87742   0.17676   0.87254   0.00000  Uiso   1.00
C508   C     0.84173   0.16563   0.96797   0.00000  Uiso   1.00
C509   C     0.80412   0.17740   0.93699   0.00000  Uiso   1.00
C510   C     0.77550   0.16407   0.03816   0.00000  Uiso   1.00
C511   C     0.71876   0.15046   0.16689   0.00000  Uiso   1.00
C512   C     0.89608   0.13882   0.82140   0.00000  Uiso   1.00
C513   C     0.90417   0.12805   0.66719   0.00000  Uiso   1.00
C514   C     0.92130   0.09214   0.64498   0.00000  Uiso   1.00
C515   C     0.94896   0.03692   0.54617   0.00000  Uiso   1.00
C516   C     0.90545   0.19525   0.98912   0.00000  Uiso   1.00
C517   C     0.92142   0.23193   0.97592   0.00000  Uiso   1.00
C518   C     0.94645   0.24353   0.09491   0.00000  Uiso   1.00
C519   C     0.98866   0.27594   0.25652   0.00000  Uiso   1.00
C520   C     0.89347   0.13216   0.10730   0.00000  Uiso   1.00
C521   C     0.85045   0.14141   0.09548   0.00000  Uiso   1.00
C522   C     0.82188   0.12805   0.19673   0.00000  Uiso   1.00
C523   C     0.78423   0.13980   0.16591   0.00000  Uiso   1.00
C524   C     0.90479   0.11459   0.94890   0.00000  Uiso   1.00
C525   C     0.92192   0.07870   0.92692   0.00000  Uiso   1.00
C526   C     0.93003   0.06787   0.77272   0.00000  Uiso   1.00
C527   C     0.91416   0.17103   0.11664   0.00000  Uiso   1.00
C528   C     0.93918   0.18258   0.23566   0.00000  Uiso   1.00
C529   C     0.95519   0.21926   0.22265   0.00000  Uiso   1.00
H530   H     0.87063   0.19562   0.77326   0.00000  Uiso   1.00
H531   H     0.79739   0.19614   0.83829   0.00000  Uiso   1.00
H532   H     0.89742   0.14680   0.56854   0.00000  Uiso   1.00
H533   H     0.91467   0.25066   0.87723   0.00000  Uiso   1.00
H534   H     0.72002   0.18604   0.96659   0.00000  Uiso   1.00
H535   H     0.93096   0.08200   0.39780   0.00000  Uiso   1.00
H536   H     0.96734   0.30101   0.04873   0.00000  Uiso   1.00
H537   H     0.90026   0.11329   0.20658   0.00000  Uiso   1.00
H538   H     0.82863   0.10931   0.29539   0.00000  Uiso   1.00
H539   H     0.92867   0.05996   0.02563   0.00000  Uiso   1.00
H540   H     0.94592   0.16383   0.33432   0.00000  Uiso   1.00
H541   H     0.74538   0.11555   0.33758   0.00000  Uiso   1.00
H542   H     0.95632   0.01151   0.76879   0.00000  Uiso   1.00
H543   H     0.99270   0.23053   0.41973   0.00000  Uiso   1.00
O544   O     0.68505   0.14965   0.20266   0.00000  Uiso   1.00
O545   O     0.96180   0.01316   0.45643   0.00000  Uiso   1.00
O546   O     0.00952   0.30050   0.31044   0.00000  Uiso   1.00
N547   N     0.73582   0.17000   0.04173   0.00000  Uiso   1.00
N548   N     0.93303   0.07273   0.50994   0.00000  Uiso   1.00
N549   N     0.96705   0.27749   0.11849   0.00000  Uiso   1.00
N550   N     0.74947   0.13208   0.24136   0.00000  Uiso   1.00
N551   N     0.94667   0.03480   0.70957   0.00000  Uiso   1.00
N552   N     0.98069   0.23956   0.31812   0.00000  Uiso   1.00
C553   C     0.82324   0.37742   0.12254   0.00000  Uiso   1.00
C554   C     0.83437   0.34173   0.21797   0.00000  Uiso   1.00
C555   C     0.82260   0.30412   0.18699   0.00000  Uiso   1.00
C556   C     0.83593   0.27550   0.28816   0.00000  Uiso   1.00
C557   C     0.84954   0.21876   0.41689   0.00000  Uiso   1.00
C558   C     0.86118   0.39608   0.07140   0.00000  Uiso   1.00
C559   C     0.87195   0.40417   0.91719   0.00000  Uiso   1.00
C560   C     0.90786   0.42130   0.89498   0.00000  Uiso   1.00
C561   C     0.96308   0.44896   0.79617   0.00000  Uiso   1.00
C562   C     0.80475   0.40545   0.23912   0.00000  Uiso   1.00
C563   C     0.76807   0.42142   0.22592   0.00000  Uiso   1.00
C564   C     0.75647   0.44645   0.34491   0.00000  Uiso   1.00
C565   C     0.72406   0.48866   0.50652   0.00000  Uiso   1.00
C566   C     0.86784   0.39347   0.35730   0.00000  Uiso   1.00
C567   C     0.85859   0.35045   0.34548   0.00000  Uiso   1.00
C568   C     0.87195   0.32188   0.44673   0.00000  Uiso   1.00
C569   C     0.86020   0.28423   0.41591   0.00000  Uiso   1.00
C570   C     0.88541   0.40479   0.19890   0.00000  Uiso   1.00
C571   C     0.92130   0.42192   0.17692   0.00000  Uiso   1.00
C572   C     0.93213   0.43003   0.02272   0.00000  Uiso   1.00
C573   C     0.82897   0.41416   0.36664   0.00000  Uiso   1.00
C574   C     0.81742   0.43918   0.48566   0.00000  Uiso   1.00
C575   C     0.78074   0.45519   0.47265   0.00000  Uiso   1.00
H576   H     0.80438   0.37063   0.02326   0.00000  Uiso   1.00
H577   H     0.80386   0.29739   0.08829   0.00000  Uiso   1.00
H578   H     0.85320   0.39742   0.81854   0.00000  Uiso   1.00
H579   H     0.74934   0.41467   0.12723   0.00000  Uiso   1.00
H580   H     0.81396   0.22002   0.21659   0.00000  Uiso   1.00
H581   H     0.91800   0.43096   0.64780   0.00000  Uiso   1.00
H582   H     0.69899   0.46734   0.29873   0.00000  Uiso   1.00
H583   H     0.88671   0.40026   0.45658   0.00000  Uiso   1.00
H584   H     0.89069   0.32863   0.54539   0.00000  Uiso   1.00
H585   H     0.94004   0.42867   0.27563   0.00000  Uiso   1.00
H586   H     0.83617   0.44592   0.58432   0.00000  Uiso   1.00
H587   H     0.88445   0.24538   0.58758   0.00000  Uiso   1.00
H588   H     0.98849   0.45632   0.01879   0.00000  Uiso   1.00
H589   H     0.76947   0.49270   0.66973   0.00000  Uiso   1.00
O590   O     0.85035   0.18505   0.45266   0.00000  Uiso   1.00
O591   O     0.98684   0.46180   0.70643   0.00000  Uiso   1.00
O592   O     0.69950   0.50952   0.56044   0.00000  Uiso   1.00
N593   N     0.83000   0.23582   0.29173   0.00000  Uiso   1.00
N594   N     0.92727   0.43303   0.75994   0.00000  Uiso   1.00
N595   N     0.72251   0.46705   0.36849   0.00000  Uiso   1.00
N596   N     0.86792   0.24947   0.49136   0.00000  Uiso   1.00
N597   N     0.96520   0.44667   0.95957   0.00000  Uiso   1.00
N598   N     0.76044   0.48069   0.56812   0.00000  Uiso   1.00
C599   C     0.32324   0.87742   0.62254   0.00000  Uiso   1.00
C600   C     0.33437   0.84173   0.71797   0.00000  Uiso   1.00
C601   C     0.32260   0.80412   0.68699   0.00000  Uiso   1.00
C602   C     0.33593   0.77550   0.78816   0.00000  Uiso   1.00
C603   C     0.34954   0.71876   0.91689   0.00000  Uiso   1.00
C604   C     0.36118   0.89608   0.57140   0.00000  Uiso   1.00
C605   C     0.37195   0.90417   0.41719   0.00000  Uiso   1.00
C606   C     0.40786   0.92130   0.39498   0.00000  Uiso   1.00
C607   C     0.46308   0.94896   0.29617   0.00000  Uiso   1.00
C608   C     0.30475   0.90545   0.73912   0.00000  Uiso   1.00
C609   C     0.26807   0.92142   0.72592   0.00000  Uiso   1.00
C610   C     0.25647   0.94645   0.84491   0.00000  Uiso   1.00
C611   C     0.22406   0.98866   0.00652   0.00000  Uiso   1.00
C612   C     0.36784   0.89347   0.85730   0.00000  Uiso   1.00
C613   C     0.35859   0.85045   0.84548   0.00000  Uiso   1.00
C614   C     0.37195   0.82188   0.94673   0.00000  Uiso   1.00
C615   C     0.36020   0.78423   0.91591   0.00000  Uiso   1.00
C616   C     0.38541   0.90479   0.69890   0.00000  Uiso   1.00
C617   C     0.42130   0.92192   0.67692   0.00000  Uiso   1.00
C618   C     0.43213   0.93003   0.52272   0.00000  Uiso   1.00
C619   C     0.32897   0.91416   0.86664   0.00000  Uiso   1.00
C620   C     0.31742   0.93918   0.98566   0.00000  Uiso   1.00
C621   C     0.28074   0.95519   0.97265   0.00000  Uiso   1.00
H622   H     0.30438   0.87063   0.52326   0.00000  Uiso   1.00
H623   H     0.30386   0.79739   0.58829   0.00000  Uiso   1.00
H624   H     0.35320   0.89742   0.31854   0.00000  Uiso   1.00
H625   H     0.24934   0.91467   0.62723   0.00000  Uiso   1.00
H626   H     0.31396   0.72002   0.71659   0.00000  Uiso   1.00
H627   H     0.41800   0.93096   0.14780   0.00000  Uiso   1.00
H628   H     0.19899   0.96734   0.79873   0.00000  Uiso   1.00
H629   H     0.38671   0.90026   0.95658   0.00000  Uiso   1.00
H630   H     0.39069   0.82863   0.04539   0.00000  Uiso   1.00
H631   H     0.44004   0.92867   0.77563   0.00000  Uiso   1.00
H632   H     0.33617   0.94592   0.08432   0.00000  Uiso   1.00
H633   H     0.38445   0.74538   0.08758   0.00000  Uiso   1.00
H634   H     0.48849   0.95632   0.51879   0.00000  Uiso   1.00
H635   H     0.26947   0.99270   0.16973   0.00000  Uiso   1.00
O636   O     0.35035   0.68505   0.95266   0.00000  Uiso   1.00
O637   O     0.48684   0.96180   0.20643   0.00000  Uiso   1.00
O638   O     0.19950   0.00952   0.06044   0.00000  Uiso   1.00
N639   N     0.33000   0.73582   0.79173   0.00000  Uiso   1.00
N640   N     0.42727   0.93303   0.25994   0.00000  Uiso   1.00
N641   N     0.22251   0.96705   0.86849   0.00000  Uiso   1.00
N642   N     0.36792   0.74947   0.99136   0.00000  Uiso   1.00
N643   N     0.46520   0.94667   0.45957   0.00000  Uiso   1.00
N644   N     0.26044   0.98069   0.06812   0.00000  Uiso   1.00
C645   C     0.67676   0.12258   0.62254   0.00000  Uiso   1.00
C646   C     0.66563   0.15827   0.71797   0.00000  Uiso   1.00
C647   C     0.67740   0.19588   0.68699   0.00000  Uiso   1.00
C648   C     0.66407   0.22450   0.78816   0.00000  Uiso   1.00
C649   C     0.65046   0.28124   0.91689   0.00000  Uiso   1.00
C650   C     0.63882   0.10392   0.57140   0.00000  Uiso   1.00
C651   C     0.62805   0.09583   0.41719   0.00000  Uiso   1.00
C652   C     0.59214   0.07870   0.39498   0.00000  Uiso   1.00
C653   C     0.53692   0.05104   0.29617   0.00000  Uiso   1.00
C654   C     0.69525   0.09455   0.73912   0.00000  Uiso   1.00
C655   C     0.73193   0.07858   0.72592   0.00000  Uiso   1.00
C656   C     0.74353   0.05355   0.84491   0.00000  Uiso   1.00
C657   C     0.77594   0.01134   0.00652   0.00000  Uiso   1.00
C658   C     0.63216   0.10653   0.85730   0.00000  Uiso   1.00
C659   C     0.64141   0.14955   0.84548   0.00000  Uiso   1.00
C660   C     0.62805   0.17812   0.94673   0.00000  Uiso   1.00
C661   C     0.63980   0.21577   0.91591   0.00000  Uiso   1.00
C662   C     0.61459   0.09521   0.69890   0.00000  Uiso   1.00
C663   C     0.57870   0.07808   0.67692   0.00000  Uiso   1.00
C664   C     0.56787   0.06997   0.52272   0.00000  Uiso   1.00
C665   C     0.67103   0.08584   0.86664   0.00000  Uiso   1.00
C666   C     0.68258   0.06082   0.98566   0.00000  Uiso   1.00
C667   C     0.71926   0.04481   0.97265   0.00000  Uiso   1.00
H668   H     0.69562   0.12937   0.52326   0.00000  Uiso   1.00
H669   H     0.69614   0.20261   0.58829   0.00000  Uiso   1.00
H670   H     0.64680   0.10258   0.31854   0.00000  Uiso   1.00
H671   H     0.75066   0.08533   0.62723   0.00000  Uiso   1.00
H672   H     0.68604   0.27998   0.71659   0.00000  Uiso   1.00
H673   H     0.58200   0.06904   0.14780   0.00000  Uiso   1.00
H674   H     0.80101   0.03266   0.79873   0.00000  Uiso   1.00
H675   H     0.61329   0.09974   0.95658   0.00000  Uiso   1.00
H676   H     0.60931   0.17137   0.04539   0.00000  Uiso   1.00
H677   H     0.55996   0.07133   0.77563   0.00000  Uiso   1.00
H678   H     0.66383   0.05408   0.08432   0.00000  Uiso   1.00
H679   H     0.61555   0.25462   0.08758   0.00000  Uiso   1.00
H680   H     0.51151   0.04368   0.51879   0.00000  Uiso   1.00
H681   H     0.73053   0.00730   0.16973   0.00000  Uiso   1.00
O682   O     0.64965   0.31495   0.95266   0.00000  Uiso   1.00
O683   O     0.51316   0.03820   0.20643   0.00000  Uiso   1.00
O684   O     0.80050   0.99048   0.06044   0.00000  Uiso   1.00
N685   N     0.67000   0.26418   0.79173   0.00000  Uiso   1.00
N686   N     0.57273   0.06697   0.25994   0.00000  Uiso   1.00
N687   N     0.77749   0.03295   0.86849   0.00000  Uiso   1.00
N688   N     0.63208   0.25053   0.99136   0.00000  Uiso   1.00
N689   N     0.53480   0.05333   0.45957   0.00000  Uiso   1.00
N690   N     0.73956   0.01931   0.06812   0.00000  Uiso   1.00
C691   C     0.17676   0.62258   0.12254   0.00000  Uiso   1.00
C692   C     0.16563   0.65827   0.21797   0.00000  Uiso   1.00
C693   C     0.17740   0.69588   0.18699   0.00000  Uiso   1.00
C694   C     0.16407   0.72450   0.28816   0.00000  Uiso   1.00
C695   C     0.15046   0.78124   0.41689   0.00000  Uiso   1.00
C696   C     0.13882   0.60392   0.07140   0.00000  Uiso   1.00
C697   C     0.12805   0.59583   0.91719   0.00000  Uiso   1.00
C698   C     0.09214   0.57870   0.89498   0.00000  Uiso   1.00
C699   C     0.03692   0.55104   0.79617   0.00000  Uiso   1.00
C700   C     0.19525   0.59455   0.23912   0.00000  Uiso   1.00
C701   C     0.23193   0.57858   0.22592   0.00000  Uiso   1.00
C702   C     0.24353   0.55355   0.34491   0.00000  Uiso   1.00
C703   C     0.27594   0.51134   0.50652   0.00000  Uiso   1.00
C704   C     0.13216   0.60653   0.35730   0.00000  Uiso   1.00
C705   C     0.14141   0.64955   0.34548   0.00000  Uiso   1.00
C706   C     0.12805   0.67812   0.44673   0.00000  Uiso   1.00
C707   C     0.13980   0.71577   0.41591   0.00000  Uiso   1.00
C708   C     0.11459   0.59521   0.19890   0.00000  Uiso   1.00
C709   C     0.07870   0.57808   0.17692   0.00000  Uiso   1.00
C710   C     0.06787   0.56997   0.02272   0.00000  Uiso   1.00
C711   C     0.17103   0.58584   0.36664   0.00000  Uiso   1.00
C712   C     0.18258   0.56082   0.48566   0.00000  Uiso   1.00
C713   C     0.21926   0.54481   0.47265   0.00000  Uiso   1.00
H714   H     0.19562   0.62937   0.02326   0.00000  Uiso   1.00
H715   H     0.19614   0.70261   0.08829   0.00000  Uiso   1.00
H716   H     0.14680   0.60258   0.81854   0.00000  Uiso   1.00
H717   H     0.25066   0.58533   0.12723   0.00000  Uiso   1.00
H718   H     0.18604   0.77998   0.21659   0.00000  Uiso   1.00
H719   H     0.08200   0.56904   0.64780   0.00000  Uiso   1.00
H720   H     0.30101   0.53266   0.29873   0.00000  Uiso   1.00
H721   H     0.11329   0.59974   0.45658   0.00000  Uiso   1.00
H722   H     0.10931   0.67137   0.54539   0.00000  Uiso   1.00
H723   H     0.05996   0.57133   0.27563   0.00000  Uiso   1.00
H724   H     0.16383   0.55408   0.58432   0.00000  Uiso   1.00
H725   H     0.11555   0.75462   0.58758   0.00000  Uiso   1.00
H726   H     0.01151   0.54368   0.01879   0.00000  Uiso   1.00
H727   H     0.23053   0.50730   0.66973   0.00000  Uiso   1.00
O728   O     0.14965   0.81495   0.45266   0.00000  Uiso   1.00
O729   O     0.01316   0.53820   0.70643   0.00000  Uiso   1.00
O730   O     0.30050   0.49048   0.56044   0.00000  Uiso   1.00
N731   N     0.17000   0.76418   0.29173   0.00000  Uiso   1.00
N732   N     0.07273   0.56697   0.75994   0.00000  Uiso   1.00
N733   N     0.27749   0.53295   0.36849   0.00000  Uiso   1.00
N734   N     0.13208   0.75053   0.49136   0.00000  Uiso   1.00
N735   N     0.03480   0.55333   0.95957   0.00000  Uiso   1.00
N736   N     0.23956   0.51931   0.56812   0.00000  Uiso   1.00
