data_job_05563
_audit_creation_date              2018-12-19
_audit_creation_method            'Materials Studio'
_symmetry_space_group_name_H-M    'P1'
_symmetry_Int_Tables_number       1
_symmetry_cell_setting            triclinic
loop_
_symmetry_equiv_pos_as_xyz
  x,y,z
_cell_length_a                    17.3789
_cell_length_b                    17.3789
_cell_length_c                    29.6197
_cell_angle_alpha                 90.0000
_cell_angle_beta                  90.0000
_cell_angle_gamma                 90.0000
loop_
_atom_site_label
_atom_site_type_symbol
_atom_site_fract_x
_atom_site_fract_y
_atom_site_fract_z
_atom_site_U_iso_or_equiv
_atom_site_adp_type
_atom_site_occupancy
C1     C     0.49329   0.73728   0.39263   0.00000  Uiso   1.00
C2     C     0.43269   0.78551   0.36844   0.00000  Uiso   1.00
C3     C     0.36231   0.75898   0.35269   0.00000  Uiso   1.00
C4     C     0.31494   0.81216   0.33145   0.00000  Uiso   1.00
C5     C     0.21747   0.87534   0.29467   0.00000  Uiso   1.00
C6     C     0.56707   0.74595   0.36523   0.00000  Uiso   1.00
C7     C     0.60968   0.68616   0.34679   0.00000  Uiso   1.00
C8     C     0.67543   0.70605   0.32286   0.00000  Uiso   1.00
C9     C     0.78661   0.70781   0.28112   0.00000  Uiso   1.00
C10    C     0.50823   0.77741   0.43757   0.00000  Uiso   1.00
C11    C     0.50139   0.74407   0.47995   0.00000  Uiso   1.00
C12    C     0.51763   0.79043   0.51692   0.00000  Uiso   1.00
C13    C     0.53745   0.84105   0.58750   0.00000  Uiso   1.00
C14    C     0.53431   0.87889   0.38291   0.00000  Uiso   1.00
C15    C     0.45497   0.86242   0.36316   0.00000  Uiso   1.00
C16    C     0.40769   0.91566   0.34194   0.00000  Uiso   1.00
C17    C     0.33726   0.88921   0.32617   0.00000  Uiso   1.00
C18    C     0.58935   0.82287   0.35995   0.00000  Uiso   1.00
C19    C     0.65506   0.84284   0.33604   0.00000  Uiso   1.00
C20    C     0.69775   0.78310   0.31757   0.00000  Uiso   1.00
C21    C     0.53051   0.85433   0.43229   0.00000  Uiso   1.00
C22    C     0.54676   0.90075   0.46920   0.00000  Uiso   1.00
C23    C     0.53995   0.86749   0.51163   0.00000  Uiso   1.00
H24    H     0.47595   0.67739   0.39674   0.00000  Uiso   1.00
H25    H     0.34510   0.69945   0.35678   0.00000  Uiso   1.00
H26    H     0.59243   0.62665   0.35089   0.00000  Uiso   1.00
H27    H     0.48415   0.68455   0.48402   0.00000  Uiso   1.00
H28    H     0.20986   0.75782   0.31013   0.00000  Uiso   1.00
H29    H     0.73138   0.60431   0.29772   0.00000  Uiso   1.00
H30    H     0.50306   0.72640   0.57847   0.00000  Uiso   1.00
H31    H     0.55165   0.93877   0.37880   0.00000  Uiso   1.00
H32    H     0.42495   0.97518   0.33786   0.00000  Uiso   1.00
H33    H     0.67228   0.90237   0.33197   0.00000  Uiso   1.00
H34    H     0.56400   0.96027   0.46510   0.00000  Uiso   1.00
H35    H     0.27467   0.98161   0.29478   0.00000  Uiso   1.00
H36    H     0.79619   0.82809   0.28236   0.00000  Uiso   1.00
H37    H     0.56787   0.95019   0.56311   0.00000  Uiso   1.00
O38    O     0.15756   0.88894   0.27583   0.00000  Uiso   1.00
O39    O     0.84178   0.68754   0.25955   0.00000  Uiso   1.00
O40    O     0.54223   0.84772   0.62788   0.00000  Uiso   1.00
N41    N     0.24249   0.80550   0.31215   0.00000  Uiso   1.00
N42    N     0.73008   0.66197   0.30054   0.00000  Uiso   1.00
N43    N     0.51664   0.77611   0.56301   0.00000  Uiso   1.00
N44    N     0.27736   0.92592   0.30388   0.00000  Uiso   1.00
N45    N     0.76495   0.78239   0.29227   0.00000  Uiso   1.00
N46    N     0.55151   0.89653   0.55475   0.00000  Uiso   1.00
C47    C     0.99329   0.23728   0.89263   0.00000  Uiso   1.00
C48    C     0.93269   0.28551   0.86844   0.00000  Uiso   1.00
C49    C     0.86231   0.25898   0.85269   0.00000  Uiso   1.00
C50    C     0.81494   0.31216   0.83145   0.00000  Uiso   1.00
C51    C     0.71747   0.37534   0.79467   0.00000  Uiso   1.00
C52    C     0.06707   0.24595   0.86523   0.00000  Uiso   1.00
C53    C     0.10968   0.18616   0.84679   0.00000  Uiso   1.00
C54    C     0.17543   0.20605   0.82286   0.00000  Uiso   1.00
C55    C     0.28661   0.20781   0.78112   0.00000  Uiso   1.00
C56    C     0.00823   0.27741   0.93757   0.00000  Uiso   1.00
C57    C     0.00139   0.24407   0.97995   0.00000  Uiso   1.00
C58    C     0.01763   0.29043   0.01692   0.00000  Uiso   1.00
C59    C     0.03745   0.34105   0.08750   0.00000  Uiso   1.00
C60    C     0.03431   0.37889   0.88291   0.00000  Uiso   1.00
C61    C     0.95497   0.36242   0.86316   0.00000  Uiso   1.00
C62    C     0.90769   0.41566   0.84194   0.00000  Uiso   1.00
C63    C     0.83726   0.38921   0.82617   0.00000  Uiso   1.00
C64    C     0.08935   0.32287   0.85995   0.00000  Uiso   1.00
C65    C     0.15506   0.34284   0.83604   0.00000  Uiso   1.00
C66    C     0.19775   0.28310   0.81757   0.00000  Uiso   1.00
C67    C     0.03051   0.35433   0.93229   0.00000  Uiso   1.00
C68    C     0.04676   0.40075   0.96920   0.00000  Uiso   1.00
C69    C     0.03995   0.36749   0.01163   0.00000  Uiso   1.00
H70    H     0.97595   0.17739   0.89674   0.00000  Uiso   1.00
H71    H     0.84510   0.19945   0.85678   0.00000  Uiso   1.00
H72    H     0.09243   0.12665   0.85089   0.00000  Uiso   1.00
H73    H     0.98415   0.18455   0.98402   0.00000  Uiso   1.00
H74    H     0.70986   0.25782   0.81013   0.00000  Uiso   1.00
H75    H     0.23138   0.10431   0.79772   0.00000  Uiso   1.00
H76    H     0.00306   0.22640   0.07847   0.00000  Uiso   1.00
H77    H     0.05165   0.43877   0.87880   0.00000  Uiso   1.00
H78    H     0.92495   0.47518   0.83786   0.00000  Uiso   1.00
H79    H     0.17228   0.40237   0.83197   0.00000  Uiso   1.00
H80    H     0.06400   0.46027   0.96510   0.00000  Uiso   1.00
H81    H     0.77467   0.48161   0.79478   0.00000  Uiso   1.00
H82    H     0.29619   0.32809   0.78236   0.00000  Uiso   1.00
H83    H     0.06787   0.45019   0.06311   0.00000  Uiso   1.00
O84    O     0.65756   0.38894   0.77583   0.00000  Uiso   1.00
O85    O     0.34178   0.18754   0.75955   0.00000  Uiso   1.00
O86    O     0.04223   0.34772   0.12788   0.00000  Uiso   1.00
N87    N     0.74249   0.30550   0.81215   0.00000  Uiso   1.00
N88    N     0.23008   0.16197   0.80054   0.00000  Uiso   1.00
N89    N     0.01664   0.27611   0.06301   0.00000  Uiso   1.00
N90    N     0.77736   0.42592   0.80388   0.00000  Uiso   1.00
N91    N     0.26495   0.28239   0.79227   0.00000  Uiso   1.00
N92    N     0.05151   0.39653   0.05475   0.00000  Uiso   1.00
C93    C     0.50671   0.26272   0.39263   0.00000  Uiso   1.00
C94    C     0.56731   0.21449   0.36844   0.00000  Uiso   1.00
C95    C     0.63769   0.24102   0.35269   0.00000  Uiso   1.00
C96    C     0.68506   0.18784   0.33145   0.00000  Uiso   1.00
C97    C     0.78253   0.12466   0.29467   0.00000  Uiso   1.00
C98    C     0.43293   0.25405   0.36523   0.00000  Uiso   1.00
C99    C     0.39032   0.31384   0.34679   0.00000  Uiso   1.00
C100   C     0.32457   0.29395   0.32286   0.00000  Uiso   1.00
C101   C     0.21339   0.29219   0.28112   0.00000  Uiso   1.00
C102   C     0.49177   0.22259   0.43757   0.00000  Uiso   1.00
C103   C     0.49861   0.25593   0.47995   0.00000  Uiso   1.00
C104   C     0.48237   0.20957   0.51692   0.00000  Uiso   1.00
C105   C     0.46255   0.15895   0.58750   0.00000  Uiso   1.00
C106   C     0.46569   0.12111   0.38291   0.00000  Uiso   1.00
C107   C     0.54503   0.13758   0.36316   0.00000  Uiso   1.00
C108   C     0.59231   0.08434   0.34194   0.00000  Uiso   1.00
C109   C     0.66274   0.11079   0.32617   0.00000  Uiso   1.00
C110   C     0.41065   0.17713   0.35995   0.00000  Uiso   1.00
C111   C     0.34494   0.15716   0.33604   0.00000  Uiso   1.00
C112   C     0.30225   0.21690   0.31757   0.00000  Uiso   1.00
C113   C     0.46949   0.14567   0.43229   0.00000  Uiso   1.00
C114   C     0.45324   0.09925   0.46920   0.00000  Uiso   1.00
C115   C     0.46005   0.13251   0.51163   0.00000  Uiso   1.00
H116   H     0.52405   0.32261   0.39674   0.00000  Uiso   1.00
H117   H     0.65490   0.30055   0.35678   0.00000  Uiso   1.00
H118   H     0.40757   0.37335   0.35089   0.00000  Uiso   1.00
H119   H     0.51585   0.31545   0.48402   0.00000  Uiso   1.00
H120   H     0.79014   0.24218   0.31013   0.00000  Uiso   1.00
H121   H     0.26862   0.39569   0.29772   0.00000  Uiso   1.00
H122   H     0.49694   0.27360   0.57847   0.00000  Uiso   1.00
H123   H     0.44835   0.06123   0.37880   0.00000  Uiso   1.00
H124   H     0.57505   0.02482   0.33786   0.00000  Uiso   1.00
H125   H     0.32772   0.09763   0.33197   0.00000  Uiso   1.00
H126   H     0.43600   0.03973   0.46510   0.00000  Uiso   1.00
H127   H     0.72533   0.01839   0.29478   0.00000  Uiso   1.00
H128   H     0.20381   0.17191   0.28236   0.00000  Uiso   1.00
H129   H     0.43213   0.04981   0.56311   0.00000  Uiso   1.00
O130   O     0.84244   0.11106   0.27583   0.00000  Uiso   1.00
O131   O     0.15822   0.31246   0.25955   0.00000  Uiso   1.00
O132   O     0.45777   0.15228   0.62788   0.00000  Uiso   1.00
N133   N     0.75751   0.19450   0.31215   0.00000  Uiso   1.00
N134   N     0.26992   0.33803   0.30054   0.00000  Uiso   1.00
N135   N     0.48336   0.22389   0.56301   0.00000  Uiso   1.00
N136   N     0.72264   0.07408   0.30388   0.00000  Uiso   1.00
N137   N     0.23505   0.21761   0.29227   0.00000  Uiso   1.00
N138   N     0.44849   0.10347   0.55475   0.00000  Uiso   1.00
C139   C     0.00671   0.76272   0.89263   0.00000  Uiso   1.00
C140   C     0.06731   0.71449   0.86844   0.00000  Uiso   1.00
C141   C     0.13769   0.74102   0.85269   0.00000  Uiso   1.00
C142   C     0.18506   0.68784   0.83145   0.00000  Uiso   1.00
C143   C     0.28253   0.62466   0.79467   0.00000  Uiso   1.00
C144   C     0.93293   0.75405   0.86523   0.00000  Uiso   1.00
C145   C     0.89032   0.81384   0.84679   0.00000  Uiso   1.00
C146   C     0.82457   0.79395   0.82286   0.00000  Uiso   1.00
C147   C     0.71339   0.79219   0.78112   0.00000  Uiso   1.00
C148   C     0.99177   0.72259   0.93757   0.00000  Uiso   1.00
C149   C     0.99861   0.75593   0.97995   0.00000  Uiso   1.00
C150   C     0.98237   0.70957   0.01692   0.00000  Uiso   1.00
C151   C     0.96255   0.65895   0.08750   0.00000  Uiso   1.00
C152   C     0.96569   0.62111   0.88291   0.00000  Uiso   1.00
C153   C     0.04503   0.63758   0.86316   0.00000  Uiso   1.00
C154   C     0.09231   0.58434   0.84194   0.00000  Uiso   1.00
C155   C     0.16274   0.61079   0.82617   0.00000  Uiso   1.00
C156   C     0.91065   0.67713   0.85995   0.00000  Uiso   1.00
C157   C     0.84494   0.65716   0.83604   0.00000  Uiso   1.00
C158   C     0.80225   0.71690   0.81757   0.00000  Uiso   1.00
C159   C     0.96949   0.64567   0.93229   0.00000  Uiso   1.00
C160   C     0.95324   0.59925   0.96920   0.00000  Uiso   1.00
C161   C     0.96005   0.63251   0.01163   0.00000  Uiso   1.00
H162   H     0.02405   0.82261   0.89674   0.00000  Uiso   1.00
H163   H     0.15490   0.80055   0.85678   0.00000  Uiso   1.00
H164   H     0.90757   0.87335   0.85089   0.00000  Uiso   1.00
H165   H     0.01585   0.81545   0.98402   0.00000  Uiso   1.00
H166   H     0.29014   0.74218   0.81013   0.00000  Uiso   1.00
H167   H     0.76862   0.89569   0.79772   0.00000  Uiso   1.00
H168   H     0.99694   0.77360   0.07847   0.00000  Uiso   1.00
H169   H     0.94835   0.56123   0.87880   0.00000  Uiso   1.00
H170   H     0.07505   0.52482   0.83786   0.00000  Uiso   1.00
H171   H     0.82772   0.59763   0.83197   0.00000  Uiso   1.00
H172   H     0.93600   0.53973   0.96510   0.00000  Uiso   1.00
H173   H     0.22533   0.51839   0.79478   0.00000  Uiso   1.00
H174   H     0.70381   0.67191   0.78236   0.00000  Uiso   1.00
H175   H     0.93213   0.54981   0.06311   0.00000  Uiso   1.00
O176   O     0.34244   0.61106   0.77583   0.00000  Uiso   1.00
O177   O     0.65822   0.81246   0.75955   0.00000  Uiso   1.00
O178   O     0.95777   0.65228   0.12788   0.00000  Uiso   1.00
N179   N     0.25751   0.69450   0.81215   0.00000  Uiso   1.00
N180   N     0.76992   0.83803   0.80054   0.00000  Uiso   1.00
N181   N     0.98336   0.72389   0.06301   0.00000  Uiso   1.00
N182   N     0.22264   0.57408   0.80388   0.00000  Uiso   1.00
N183   N     0.73505   0.71761   0.79227   0.00000  Uiso   1.00
N184   N     0.94849   0.60347   0.05475   0.00000  Uiso   1.00
C185   C     0.73728   0.50671   0.60737   0.00000  Uiso   1.00
C186   C     0.78551   0.56731   0.63156   0.00000  Uiso   1.00
C187   C     0.75898   0.63769   0.64731   0.00000  Uiso   1.00
C188   C     0.81216   0.68506   0.66855   0.00000  Uiso   1.00
C189   C     0.87534   0.78253   0.70533   0.00000  Uiso   1.00
C190   C     0.74595   0.43293   0.63477   0.00000  Uiso   1.00
C191   C     0.68616   0.39032   0.65321   0.00000  Uiso   1.00
C192   C     0.70605   0.32457   0.67714   0.00000  Uiso   1.00
C193   C     0.70781   0.21339   0.71888   0.00000  Uiso   1.00
C194   C     0.77741   0.49177   0.56243   0.00000  Uiso   1.00
C195   C     0.74407   0.49861   0.52005   0.00000  Uiso   1.00
C196   C     0.79043   0.48237   0.48308   0.00000  Uiso   1.00
C197   C     0.84105   0.46255   0.41250   0.00000  Uiso   1.00
C198   C     0.87889   0.46569   0.61709   0.00000  Uiso   1.00
C199   C     0.86242   0.54503   0.63684   0.00000  Uiso   1.00
C200   C     0.91566   0.59231   0.65806   0.00000  Uiso   1.00
C201   C     0.88921   0.66274   0.67383   0.00000  Uiso   1.00
C202   C     0.82287   0.41065   0.64005   0.00000  Uiso   1.00
C203   C     0.84284   0.34494   0.66396   0.00000  Uiso   1.00
C204   C     0.78310   0.30225   0.68243   0.00000  Uiso   1.00
C205   C     0.85433   0.46949   0.56771   0.00000  Uiso   1.00
C206   C     0.90075   0.45324   0.53080   0.00000  Uiso   1.00
C207   C     0.86749   0.46005   0.48837   0.00000  Uiso   1.00
H208   H     0.67739   0.52405   0.60326   0.00000  Uiso   1.00
H209   H     0.69945   0.65490   0.64322   0.00000  Uiso   1.00
H210   H     0.62665   0.40757   0.64911   0.00000  Uiso   1.00
H211   H     0.68455   0.51585   0.51598   0.00000  Uiso   1.00
H212   H     0.75782   0.79014   0.68987   0.00000  Uiso   1.00
H213   H     0.60431   0.26862   0.70228   0.00000  Uiso   1.00
H214   H     0.72640   0.49694   0.42153   0.00000  Uiso   1.00
H215   H     0.93877   0.44835   0.62120   0.00000  Uiso   1.00
H216   H     0.97518   0.57505   0.66214   0.00000  Uiso   1.00
H217   H     0.90237   0.32772   0.66803   0.00000  Uiso   1.00
H218   H     0.96027   0.43600   0.53490   0.00000  Uiso   1.00
H219   H     0.98161   0.72533   0.70522   0.00000  Uiso   1.00
H220   H     0.82809   0.20381   0.71764   0.00000  Uiso   1.00
H221   H     0.95019   0.43213   0.43689   0.00000  Uiso   1.00
O222   O     0.88894   0.84244   0.72417   0.00000  Uiso   1.00
O223   O     0.68754   0.15822   0.74045   0.00000  Uiso   1.00
O224   O     0.84772   0.45777   0.37212   0.00000  Uiso   1.00
N225   N     0.80550   0.75751   0.68785   0.00000  Uiso   1.00
N226   N     0.66197   0.26992   0.69946   0.00000  Uiso   1.00
N227   N     0.77611   0.48336   0.43699   0.00000  Uiso   1.00
N228   N     0.92592   0.72264   0.69612   0.00000  Uiso   1.00
N229   N     0.78239   0.23505   0.70773   0.00000  Uiso   1.00
N230   N     0.89653   0.44849   0.44525   0.00000  Uiso   1.00
C231   C     0.23728   0.00671   0.10737   0.00000  Uiso   1.00
C232   C     0.28551   0.06731   0.13156   0.00000  Uiso   1.00
C233   C     0.25898   0.13769   0.14731   0.00000  Uiso   1.00
C234   C     0.31216   0.18506   0.16855   0.00000  Uiso   1.00
C235   C     0.37534   0.28253   0.20533   0.00000  Uiso   1.00
C236   C     0.24595   0.93293   0.13477   0.00000  Uiso   1.00
C237   C     0.18616   0.89032   0.15321   0.00000  Uiso   1.00
C238   C     0.20605   0.82457   0.17714   0.00000  Uiso   1.00
C239   C     0.20781   0.71339   0.21888   0.00000  Uiso   1.00
C240   C     0.27741   0.99177   0.06243   0.00000  Uiso   1.00
C241   C     0.24407   0.99861   0.02005   0.00000  Uiso   1.00
C242   C     0.29043   0.98237   0.98308   0.00000  Uiso   1.00
C243   C     0.34105   0.96255   0.91250   0.00000  Uiso   1.00
C244   C     0.37889   0.96569   0.11709   0.00000  Uiso   1.00
C245   C     0.36242   0.04503   0.13684   0.00000  Uiso   1.00
C246   C     0.41566   0.09231   0.15806   0.00000  Uiso   1.00
C247   C     0.38921   0.16274   0.17383   0.00000  Uiso   1.00
C248   C     0.32287   0.91065   0.14005   0.00000  Uiso   1.00
C249   C     0.34284   0.84494   0.16396   0.00000  Uiso   1.00
C250   C     0.28310   0.80225   0.18243   0.00000  Uiso   1.00
C251   C     0.35433   0.96949   0.06771   0.00000  Uiso   1.00
C252   C     0.40075   0.95324   0.03080   0.00000  Uiso   1.00
C253   C     0.36749   0.96005   0.98837   0.00000  Uiso   1.00
H254   H     0.17739   0.02405   0.10326   0.00000  Uiso   1.00
H255   H     0.19945   0.15490   0.14322   0.00000  Uiso   1.00
H256   H     0.12665   0.90757   0.14911   0.00000  Uiso   1.00
H257   H     0.18455   0.01585   0.01598   0.00000  Uiso   1.00
H258   H     0.25782   0.29014   0.18987   0.00000  Uiso   1.00
H259   H     0.10431   0.76862   0.20228   0.00000  Uiso   1.00
H260   H     0.22640   0.99694   0.92153   0.00000  Uiso   1.00
H261   H     0.43877   0.94835   0.12120   0.00000  Uiso   1.00
H262   H     0.47518   0.07505   0.16214   0.00000  Uiso   1.00
H263   H     0.40237   0.82772   0.16803   0.00000  Uiso   1.00
H264   H     0.46027   0.93600   0.03490   0.00000  Uiso   1.00
H265   H     0.48161   0.22533   0.20522   0.00000  Uiso   1.00
H266   H     0.32809   0.70381   0.21764   0.00000  Uiso   1.00
H267   H     0.45019   0.93213   0.93689   0.00000  Uiso   1.00
O268   O     0.38894   0.34244   0.22417   0.00000  Uiso   1.00
O269   O     0.18754   0.65822   0.24045   0.00000  Uiso   1.00
O270   O     0.34772   0.95777   0.87212   0.00000  Uiso   1.00
N271   N     0.30550   0.25751   0.18785   0.00000  Uiso   1.00
N272   N     0.16197   0.76992   0.19946   0.00000  Uiso   1.00
N273   N     0.27611   0.98336   0.93699   0.00000  Uiso   1.00
N274   N     0.42592   0.22264   0.19612   0.00000  Uiso   1.00
N275   N     0.28239   0.73505   0.20773   0.00000  Uiso   1.00
N276   N     0.39653   0.94849   0.94525   0.00000  Uiso   1.00
C277   C     0.26272   0.49329   0.60737   0.00000  Uiso   1.00
C278   C     0.21449   0.43269   0.63156   0.00000  Uiso   1.00
C279   C     0.24102   0.36231   0.64731   0.00000  Uiso   1.00
C280   C     0.18784   0.31494   0.66855   0.00000  Uiso   1.00
C281   C     0.12466   0.21747   0.70533   0.00000  Uiso   1.00
C282   C     0.25405   0.56707   0.63477   0.00000  Uiso   1.00
C283   C     0.31384   0.60968   0.65321   0.00000  Uiso   1.00
C284   C     0.29395   0.67543   0.67714   0.00000  Uiso   1.00
C285   C     0.29219   0.78661   0.71888   0.00000  Uiso   1.00
C286   C     0.22259   0.50823   0.56243   0.00000  Uiso   1.00
C287   C     0.25593   0.50139   0.52005   0.00000  Uiso   1.00
C288   C     0.20957   0.51763   0.48308   0.00000  Uiso   1.00
C289   C     0.15895   0.53745   0.41250   0.00000  Uiso   1.00
C290   C     0.12111   0.53431   0.61709   0.00000  Uiso   1.00
C291   C     0.13758   0.45497   0.63684   0.00000  Uiso   1.00
C292   C     0.08434   0.40769   0.65806   0.00000  Uiso   1.00
C293   C     0.11079   0.33726   0.67383   0.00000  Uiso   1.00
C294   C     0.17713   0.58935   0.64005   0.00000  Uiso   1.00
C295   C     0.15716   0.65506   0.66396   0.00000  Uiso   1.00
C296   C     0.21690   0.69775   0.68243   0.00000  Uiso   1.00
C297   C     0.14567   0.53051   0.56771   0.00000  Uiso   1.00
C298   C     0.09925   0.54676   0.53080   0.00000  Uiso   1.00
C299   C     0.13251   0.53995   0.48837   0.00000  Uiso   1.00
H300   H     0.32261   0.47595   0.60326   0.00000  Uiso   1.00
H301   H     0.30055   0.34510   0.64322   0.00000  Uiso   1.00
H302   H     0.37335   0.59243   0.64911   0.00000  Uiso   1.00
H303   H     0.31545   0.48415   0.51598   0.00000  Uiso   1.00
H304   H     0.24218   0.20986   0.68987   0.00000  Uiso   1.00
H305   H     0.39569   0.73138   0.70228   0.00000  Uiso   1.00
H306   H     0.27360   0.50306   0.42153   0.00000  Uiso   1.00
H307   H     0.06123   0.55165   0.62120   0.00000  Uiso   1.00
H308   H     0.02482   0.42495   0.66214   0.00000  Uiso   1.00
H309   H     0.09763   0.67228   0.66803   0.00000  Uiso   1.00
H310   H     0.03973   0.56400   0.53490   0.00000  Uiso   1.00
H311   H     0.01839   0.27467   0.70522   0.00000  Uiso   1.00
H312   H     0.17191   0.79619   0.71764   0.00000  Uiso   1.00
H313   H     0.04981   0.56787   0.43689   0.00000  Uiso   1.00
O314   O     0.11106   0.15756   0.72417   0.00000  Uiso   1.00
O315   O     0.31246   0.84178   0.74045   0.00000  Uiso   1.00
O316   O     0.15228   0.54223   0.37212   0.00000  Uiso   1.00
N317   N     0.19450   0.24249   0.68785   0.00000  Uiso   1.00
N318   N     0.33803   0.73008   0.69946   0.00000  Uiso   1.00
N319   N     0.22389   0.51664   0.43699   0.00000  Uiso   1.00
N320   N     0.07408   0.27736   0.69612   0.00000  Uiso   1.00
N321   N     0.21761   0.76495   0.70773   0.00000  Uiso   1.00
N322   N     0.10347   0.55151   0.44525   0.00000  Uiso   1.00
C323   C     0.76272   0.99329   0.10737   0.00000  Uiso   1.00
C324   C     0.71449   0.93269   0.13156   0.00000  Uiso   1.00
C325   C     0.74102   0.86231   0.14731   0.00000  Uiso   1.00
C326   C     0.68784   0.81494   0.16855   0.00000  Uiso   1.00
C327   C     0.62466   0.71747   0.20533   0.00000  Uiso   1.00
C328   C     0.75405   0.06707   0.13477   0.00000  Uiso   1.00
C329   C     0.81384   0.10968   0.15321   0.00000  Uiso   1.00
C330   C     0.79395   0.17543   0.17714   0.00000  Uiso   1.00
C331   C     0.79219   0.28661   0.21888   0.00000  Uiso   1.00
C332   C     0.72259   0.00823   0.06243   0.00000  Uiso   1.00
C333   C     0.75593   0.00139   0.02005   0.00000  Uiso   1.00
C334   C     0.70957   0.01763   0.98308   0.00000  Uiso   1.00
C335   C     0.65895   0.03745   0.91250   0.00000  Uiso   1.00
C336   C     0.62111   0.03431   0.11709   0.00000  Uiso   1.00
C337   C     0.63758   0.95497   0.13684   0.00000  Uiso   1.00
C338   C     0.58434   0.90769   0.15806   0.00000  Uiso   1.00
C339   C     0.61079   0.83726   0.17383   0.00000  Uiso   1.00
C340   C     0.67713   0.08935   0.14005   0.00000  Uiso   1.00
C341   C     0.65716   0.15506   0.16396   0.00000  Uiso   1.00
C342   C     0.71690   0.19775   0.18243   0.00000  Uiso   1.00
C343   C     0.64567   0.03051   0.06771   0.00000  Uiso   1.00
C344   C     0.59925   0.04676   0.03080   0.00000  Uiso   1.00
C345   C     0.63251   0.03995   0.98837   0.00000  Uiso   1.00
H346   H     0.82261   0.97595   0.10326   0.00000  Uiso   1.00
H347   H     0.80055   0.84510   0.14322   0.00000  Uiso   1.00
H348   H     0.87335   0.09243   0.14911   0.00000  Uiso   1.00
H349   H     0.81545   0.98415   0.01598   0.00000  Uiso   1.00
H350   H     0.74218   0.70986   0.18987   0.00000  Uiso   1.00
H351   H     0.89569   0.23138   0.20228   0.00000  Uiso   1.00
H352   H     0.77360   0.00306   0.92153   0.00000  Uiso   1.00
H353   H     0.56123   0.05165   0.12120   0.00000  Uiso   1.00
H354   H     0.52482   0.92495   0.16214   0.00000  Uiso   1.00
H355   H     0.59763   0.17228   0.16803   0.00000  Uiso   1.00
H356   H     0.53973   0.06400   0.03490   0.00000  Uiso   1.00
H357   H     0.51839   0.77467   0.20522   0.00000  Uiso   1.00
H358   H     0.67191   0.29619   0.21764   0.00000  Uiso   1.00
H359   H     0.54981   0.06787   0.93689   0.00000  Uiso   1.00
O360   O     0.61106   0.65756   0.22417   0.00000  Uiso   1.00
O361   O     0.81246   0.34178   0.24045   0.00000  Uiso   1.00
O362   O     0.65228   0.04223   0.87212   0.00000  Uiso   1.00
N363   N     0.69450   0.74249   0.18785   0.00000  Uiso   1.00
N364   N     0.83803   0.23008   0.19946   0.00000  Uiso   1.00
N365   N     0.72389   0.01664   0.93699   0.00000  Uiso   1.00
N366   N     0.57408   0.77736   0.19612   0.00000  Uiso   1.00
N367   N     0.71761   0.26495   0.20773   0.00000  Uiso   1.00
N368   N     0.60347   0.05151   0.94525   0.00000  Uiso   1.00
C369   C     0.00671   0.73728   0.35737   0.00000  Uiso   1.00
C370   C     0.06731   0.78551   0.38156   0.00000  Uiso   1.00
C371   C     0.13769   0.75898   0.39731   0.00000  Uiso   1.00
C372   C     0.18506   0.81216   0.41855   0.00000  Uiso   1.00
C373   C     0.28253   0.87534   0.45533   0.00000  Uiso   1.00
C374   C     0.93293   0.74595   0.38477   0.00000  Uiso   1.00
C375   C     0.89032   0.68616   0.40321   0.00000  Uiso   1.00
C376   C     0.82457   0.70605   0.42714   0.00000  Uiso   1.00
C377   C     0.71339   0.70781   0.46888   0.00000  Uiso   1.00
C378   C     0.99177   0.77741   0.31243   0.00000  Uiso   1.00
C379   C     0.99861   0.74407   0.27005   0.00000  Uiso   1.00
C380   C     0.98237   0.79043   0.23308   0.00000  Uiso   1.00
C381   C     0.96255   0.84105   0.16250   0.00000  Uiso   1.00
C382   C     0.96569   0.87889   0.36709   0.00000  Uiso   1.00
C383   C     0.04503   0.86242   0.38684   0.00000  Uiso   1.00
C384   C     0.09231   0.91566   0.40806   0.00000  Uiso   1.00
C385   C     0.16274   0.88921   0.42383   0.00000  Uiso   1.00
C386   C     0.91065   0.82287   0.39005   0.00000  Uiso   1.00
C387   C     0.84494   0.84284   0.41396   0.00000  Uiso   1.00
C388   C     0.80225   0.78310   0.43243   0.00000  Uiso   1.00
C389   C     0.96949   0.85433   0.31771   0.00000  Uiso   1.00
C390   C     0.95324   0.90075   0.28080   0.00000  Uiso   1.00
C391   C     0.96005   0.86749   0.23837   0.00000  Uiso   1.00
H392   H     0.02405   0.67739   0.35326   0.00000  Uiso   1.00
H393   H     0.15490   0.69945   0.39322   0.00000  Uiso   1.00
H394   H     0.90757   0.62665   0.39911   0.00000  Uiso   1.00
H395   H     0.01585   0.68455   0.26598   0.00000  Uiso   1.00
H396   H     0.29014   0.75782   0.43987   0.00000  Uiso   1.00
H397   H     0.76862   0.60431   0.45228   0.00000  Uiso   1.00
H398   H     0.99694   0.72640   0.17153   0.00000  Uiso   1.00
H399   H     0.94835   0.93877   0.37120   0.00000  Uiso   1.00
H400   H     0.07505   0.97518   0.41214   0.00000  Uiso   1.00
H401   H     0.82772   0.90237   0.41803   0.00000  Uiso   1.00
H402   H     0.93600   0.96027   0.28490   0.00000  Uiso   1.00
H403   H     0.22533   0.98161   0.45522   0.00000  Uiso   1.00
H404   H     0.70381   0.82809   0.46764   0.00000  Uiso   1.00
H405   H     0.93213   0.95019   0.18689   0.00000  Uiso   1.00
O406   O     0.34244   0.88894   0.47417   0.00000  Uiso   1.00
O407   O     0.65822   0.68754   0.49045   0.00000  Uiso   1.00
O408   O     0.95777   0.84772   0.12212   0.00000  Uiso   1.00
N409   N     0.25751   0.80550   0.43785   0.00000  Uiso   1.00
N410   N     0.76992   0.66197   0.44946   0.00000  Uiso   1.00
N411   N     0.98336   0.77611   0.18699   0.00000  Uiso   1.00
N412   N     0.22264   0.92592   0.44612   0.00000  Uiso   1.00
N413   N     0.73505   0.78239   0.45773   0.00000  Uiso   1.00
N414   N     0.94849   0.89653   0.19525   0.00000  Uiso   1.00
C415   C     0.50671   0.23728   0.85737   0.00000  Uiso   1.00
C416   C     0.56731   0.28551   0.88156   0.00000  Uiso   1.00
C417   C     0.63769   0.25898   0.89731   0.00000  Uiso   1.00
C418   C     0.68506   0.31216   0.91855   0.00000  Uiso   1.00
C419   C     0.78253   0.37534   0.95533   0.00000  Uiso   1.00
C420   C     0.43293   0.24595   0.88477   0.00000  Uiso   1.00
C421   C     0.39032   0.18616   0.90321   0.00000  Uiso   1.00
C422   C     0.32457   0.20605   0.92714   0.00000  Uiso   1.00
C423   C     0.21339   0.20781   0.96888   0.00000  Uiso   1.00
C424   C     0.49177   0.27741   0.81243   0.00000  Uiso   1.00
C425   C     0.49861   0.24407   0.77005   0.00000  Uiso   1.00
C426   C     0.48237   0.29043   0.73308   0.00000  Uiso   1.00
C427   C     0.46255   0.34105   0.66250   0.00000  Uiso   1.00
C428   C     0.46569   0.37889   0.86709   0.00000  Uiso   1.00
C429   C     0.54503   0.36242   0.88684   0.00000  Uiso   1.00
C430   C     0.59231   0.41566   0.90806   0.00000  Uiso   1.00
C431   C     0.66274   0.38921   0.92383   0.00000  Uiso   1.00
C432   C     0.41065   0.32287   0.89005   0.00000  Uiso   1.00
C433   C     0.34494   0.34284   0.91396   0.00000  Uiso   1.00
C434   C     0.30225   0.28310   0.93243   0.00000  Uiso   1.00
C435   C     0.46949   0.35433   0.81771   0.00000  Uiso   1.00
C436   C     0.45324   0.40075   0.78080   0.00000  Uiso   1.00
C437   C     0.46005   0.36749   0.73837   0.00000  Uiso   1.00
H438   H     0.52405   0.17739   0.85326   0.00000  Uiso   1.00
H439   H     0.65490   0.19945   0.89322   0.00000  Uiso   1.00
H440   H     0.40757   0.12665   0.89911   0.00000  Uiso   1.00
H441   H     0.51585   0.18455   0.76598   0.00000  Uiso   1.00
H442   H     0.79014   0.25782   0.93987   0.00000  Uiso   1.00
H443   H     0.26862   0.10431   0.95228   0.00000  Uiso   1.00
H444   H     0.49694   0.22640   0.67153   0.00000  Uiso   1.00
H445   H     0.44835   0.43877   0.87120   0.00000  Uiso   1.00
H446   H     0.57505   0.47518   0.91214   0.00000  Uiso   1.00
H447   H     0.32772   0.40237   0.91803   0.00000  Uiso   1.00
H448   H     0.43600   0.46027   0.78490   0.00000  Uiso   1.00
H449   H     0.72533   0.48161   0.95522   0.00000  Uiso   1.00
H450   H     0.20381   0.32809   0.96764   0.00000  Uiso   1.00
H451   H     0.43213   0.45019   0.68689   0.00000  Uiso   1.00
O452   O     0.84244   0.38894   0.97417   0.00000  Uiso   1.00
O453   O     0.15822   0.18754   0.99045   0.00000  Uiso   1.00
O454   O     0.45777   0.34772   0.62212   0.00000  Uiso   1.00
N455   N     0.75751   0.30550   0.93785   0.00000  Uiso   1.00
N456   N     0.26992   0.16197   0.94946   0.00000  Uiso   1.00
N457   N     0.48336   0.27611   0.68699   0.00000  Uiso   1.00
N458   N     0.72264   0.42592   0.94612   0.00000  Uiso   1.00
N459   N     0.23505   0.28239   0.95773   0.00000  Uiso   1.00
N460   N     0.44849   0.39653   0.69525   0.00000  Uiso   1.00
C461   C     0.99329   0.26272   0.35737   0.00000  Uiso   1.00
C462   C     0.93269   0.21449   0.38156   0.00000  Uiso   1.00
C463   C     0.86231   0.24102   0.39731   0.00000  Uiso   1.00
C464   C     0.81494   0.18784   0.41855   0.00000  Uiso   1.00
C465   C     0.71747   0.12466   0.45533   0.00000  Uiso   1.00
C466   C     0.06707   0.25405   0.38477   0.00000  Uiso   1.00
C467   C     0.10968   0.31384   0.40321   0.00000  Uiso   1.00
C468   C     0.17543   0.29395   0.42714   0.00000  Uiso   1.00
C469   C     0.28661   0.29219   0.46888   0.00000  Uiso   1.00
C470   C     0.00823   0.22259   0.31243   0.00000  Uiso   1.00
C471   C     0.00139   0.25593   0.27005   0.00000  Uiso   1.00
C472   C     0.01763   0.20957   0.23308   0.00000  Uiso   1.00
C473   C     0.03745   0.15895   0.16250   0.00000  Uiso   1.00
C474   C     0.03431   0.12111   0.36709   0.00000  Uiso   1.00
C475   C     0.95497   0.13758   0.38684   0.00000  Uiso   1.00
C476   C     0.90769   0.08434   0.40806   0.00000  Uiso   1.00
C477   C     0.83726   0.11079   0.42383   0.00000  Uiso   1.00
C478   C     0.08935   0.17713   0.39005   0.00000  Uiso   1.00
C479   C     0.15506   0.15716   0.41396   0.00000  Uiso   1.00
C480   C     0.19775   0.21690   0.43243   0.00000  Uiso   1.00
C481   C     0.03051   0.14567   0.31771   0.00000  Uiso   1.00
C482   C     0.04676   0.09925   0.28080   0.00000  Uiso   1.00
C483   C     0.03995   0.13251   0.23837   0.00000  Uiso   1.00
H484   H     0.97595   0.32261   0.35326   0.00000  Uiso   1.00
H485   H     0.84510   0.30055   0.39322   0.00000  Uiso   1.00
H486   H     0.09243   0.37335   0.39911   0.00000  Uiso   1.00
H487   H     0.98415   0.31545   0.26598   0.00000  Uiso   1.00
H488   H     0.70986   0.24218   0.43987   0.00000  Uiso   1.00
H489   H     0.23138   0.39569   0.45228   0.00000  Uiso   1.00
H490   H     0.00306   0.27360   0.17153   0.00000  Uiso   1.00
H491   H     0.05165   0.06123   0.37120   0.00000  Uiso   1.00
H492   H     0.92495   0.02482   0.41214   0.00000  Uiso   1.00
H493   H     0.17228   0.09763   0.41803   0.00000  Uiso   1.00
H494   H     0.06400   0.03973   0.28490   0.00000  Uiso   1.00
H495   H     0.77467   0.01839   0.45522   0.00000  Uiso   1.00
H496   H     0.29619   0.17191   0.46764   0.00000  Uiso   1.00
H497   H     0.06787   0.04981   0.18689   0.00000  Uiso   1.00
O498   O     0.65756   0.11106   0.47417   0.00000  Uiso   1.00
O499   O     0.34178   0.31246   0.49045   0.00000  Uiso   1.00
O500   O     0.04223   0.15228   0.12212   0.00000  Uiso   1.00
N501   N     0.74249   0.19450   0.43785   0.00000  Uiso   1.00
N502   N     0.23008   0.33803   0.44946   0.00000  Uiso   1.00
N503   N     0.01664   0.22389   0.18699   0.00000  Uiso   1.00
N504   N     0.77736   0.07408   0.44612   0.00000  Uiso   1.00
N505   N     0.26495   0.21761   0.45773   0.00000  Uiso   1.00
N506   N     0.05151   0.10347   0.19525   0.00000  Uiso   1.00
C507   C     0.49329   0.76272   0.85737   0.00000  Uiso   1.00
C508   C     0.43269   0.71449   0.88156   0.00000  Uiso   1.00
C509   C     0.36231   0.74102   0.89731   0.00000  Uiso   1.00
C510   C     0.31494   0.68784   0.91855   0.00000  Uiso   1.00
C511   C     0.21747   0.62466   0.95533   0.00000  Uiso   1.00
C512   C     0.56707   0.75405   0.88477   0.00000  Uiso   1.00
C513   C     0.60968   0.81384   0.90321   0.00000  Uiso   1.00
C514   C     0.67543   0.79395   0.92714   0.00000  Uiso   1.00
C515   C     0.78661   0.79219   0.96888   0.00000  Uiso   1.00
C516   C     0.50823   0.72259   0.81243   0.00000  Uiso   1.00
C517   C     0.50139   0.75593   0.77005   0.00000  Uiso   1.00
C518   C     0.51763   0.70957   0.73308   0.00000  Uiso   1.00
C519   C     0.53745   0.65895   0.66250   0.00000  Uiso   1.00
C520   C     0.53431   0.62111   0.86709   0.00000  Uiso   1.00
C521   C     0.45497   0.63758   0.88684   0.00000  Uiso   1.00
C522   C     0.40769   0.58434   0.90806   0.00000  Uiso   1.00
C523   C     0.33726   0.61079   0.92383   0.00000  Uiso   1.00
C524   C     0.58935   0.67713   0.89005   0.00000  Uiso   1.00
C525   C     0.65506   0.65716   0.91396   0.00000  Uiso   1.00
C526   C     0.69775   0.71690   0.93243   0.00000  Uiso   1.00
C527   C     0.53051   0.64567   0.81771   0.00000  Uiso   1.00
C528   C     0.54676   0.59925   0.78080   0.00000  Uiso   1.00
C529   C     0.53995   0.63251   0.73837   0.00000  Uiso   1.00
H530   H     0.47595   0.82261   0.85326   0.00000  Uiso   1.00
H531   H     0.34510   0.80055   0.89322   0.00000  Uiso   1.00
H532   H     0.59243   0.87335   0.89911   0.00000  Uiso   1.00
H533   H     0.48415   0.81545   0.76598   0.00000  Uiso   1.00
H534   H     0.20986   0.74218   0.93987   0.00000  Uiso   1.00
H535   H     0.73138   0.89569   0.95228   0.00000  Uiso   1.00
H536   H     0.50306   0.77360   0.67153   0.00000  Uiso   1.00
H537   H     0.55165   0.56123   0.87120   0.00000  Uiso   1.00
H538   H     0.42495   0.52482   0.91214   0.00000  Uiso   1.00
H539   H     0.67228   0.59763   0.91803   0.00000  Uiso   1.00
H540   H     0.56400   0.53973   0.78490   0.00000  Uiso   1.00
H541   H     0.27467   0.51839   0.95522   0.00000  Uiso   1.00
H542   H     0.79619   0.67191   0.96764   0.00000  Uiso   1.00
H543   H     0.56787   0.54981   0.68689   0.00000  Uiso   1.00
O544   O     0.15756   0.61106   0.97417   0.00000  Uiso   1.00
O545   O     0.84178   0.81246   0.99045   0.00000  Uiso   1.00
O546   O     0.54223   0.65228   0.62212   0.00000  Uiso   1.00
N547   N     0.24249   0.69450   0.93785   0.00000  Uiso   1.00
N548   N     0.73008   0.83803   0.94946   0.00000  Uiso   1.00
N549   N     0.51664   0.72389   0.68699   0.00000  Uiso   1.00
N550   N     0.27736   0.57408   0.94612   0.00000  Uiso   1.00
N551   N     0.76495   0.71761   0.95773   0.00000  Uiso   1.00
N552   N     0.55151   0.60347   0.69525   0.00000  Uiso   1.00
C553   C     0.76272   0.50671   0.14263   0.00000  Uiso   1.00
C554   C     0.71449   0.56731   0.11844   0.00000  Uiso   1.00
C555   C     0.74102   0.63769   0.10269   0.00000  Uiso   1.00
C556   C     0.68784   0.68506   0.08145   0.00000  Uiso   1.00
C557   C     0.62466   0.78253   0.04467   0.00000  Uiso   1.00
C558   C     0.75405   0.43293   0.11523   0.00000  Uiso   1.00
C559   C     0.81384   0.39032   0.09679   0.00000  Uiso   1.00
C560   C     0.79395   0.32457   0.07286   0.00000  Uiso   1.00
C561   C     0.79219   0.21339   0.03112   0.00000  Uiso   1.00
C562   C     0.72259   0.49177   0.18757   0.00000  Uiso   1.00
C563   C     0.75593   0.49861   0.22995   0.00000  Uiso   1.00
C564   C     0.70957   0.48237   0.26692   0.00000  Uiso   1.00
C565   C     0.65895   0.46255   0.33750   0.00000  Uiso   1.00
C566   C     0.62111   0.46569   0.13291   0.00000  Uiso   1.00
C567   C     0.63758   0.54503   0.11316   0.00000  Uiso   1.00
C568   C     0.58434   0.59231   0.09194   0.00000  Uiso   1.00
C569   C     0.61079   0.66274   0.07617   0.00000  Uiso   1.00
C570   C     0.67713   0.41065   0.10995   0.00000  Uiso   1.00
C571   C     0.65716   0.34494   0.08604   0.00000  Uiso   1.00
C572   C     0.71690   0.30225   0.06757   0.00000  Uiso   1.00
C573   C     0.64567   0.46949   0.18229   0.00000  Uiso   1.00
C574   C     0.59925   0.45324   0.21920   0.00000  Uiso   1.00
C575   C     0.63251   0.46005   0.26163   0.00000  Uiso   1.00
H576   H     0.82261   0.52405   0.14674   0.00000  Uiso   1.00
H577   H     0.80055   0.65490   0.10678   0.00000  Uiso   1.00
H578   H     0.87335   0.40757   0.10089   0.00000  Uiso   1.00
H579   H     0.81545   0.51585   0.23402   0.00000  Uiso   1.00
H580   H     0.74218   0.79014   0.06013   0.00000  Uiso   1.00
H581   H     0.89569   0.26862   0.04772   0.00000  Uiso   1.00
H582   H     0.77360   0.49694   0.32847   0.00000  Uiso   1.00
H583   H     0.56123   0.44835   0.12880   0.00000  Uiso   1.00
H584   H     0.52482   0.57505   0.08786   0.00000  Uiso   1.00
H585   H     0.59763   0.32772   0.08197   0.00000  Uiso   1.00
H586   H     0.53973   0.43600   0.21510   0.00000  Uiso   1.00
H587   H     0.51839   0.72533   0.04478   0.00000  Uiso   1.00
H588   H     0.67191   0.20381   0.03236   0.00000  Uiso   1.00
H589   H     0.54981   0.43213   0.31311   0.00000  Uiso   1.00
O590   O     0.61106   0.84244   0.02583   0.00000  Uiso   1.00
O591   O     0.81246   0.15822   0.00955   0.00000  Uiso   1.00
O592   O     0.65228   0.45777   0.37788   0.00000  Uiso   1.00
N593   N     0.69450   0.75751   0.06215   0.00000  Uiso   1.00
N594   N     0.83803   0.26992   0.05054   0.00000  Uiso   1.00
N595   N     0.72389   0.48336   0.31301   0.00000  Uiso   1.00
N596   N     0.57408   0.72264   0.05388   0.00000  Uiso   1.00
N597   N     0.71761   0.23505   0.04227   0.00000  Uiso   1.00
N598   N     0.60347   0.44849   0.30475   0.00000  Uiso   1.00
C599   C     0.26272   0.00671   0.64263   0.00000  Uiso   1.00
C600   C     0.21449   0.06731   0.61844   0.00000  Uiso   1.00
C601   C     0.24102   0.13769   0.60269   0.00000  Uiso   1.00
C602   C     0.18784   0.18506   0.58145   0.00000  Uiso   1.00
C603   C     0.12466   0.28253   0.54467   0.00000  Uiso   1.00
C604   C     0.25405   0.93293   0.61523   0.00000  Uiso   1.00
C605   C     0.31384   0.89032   0.59679   0.00000  Uiso   1.00
C606   C     0.29395   0.82457   0.57286   0.00000  Uiso   1.00
C607   C     0.29219   0.71339   0.53112   0.00000  Uiso   1.00
C608   C     0.22259   0.99177   0.68757   0.00000  Uiso   1.00
C609   C     0.25593   0.99861   0.72995   0.00000  Uiso   1.00
C610   C     0.20957   0.98237   0.76692   0.00000  Uiso   1.00
C611   C     0.15895   0.96255   0.83750   0.00000  Uiso   1.00
C612   C     0.12111   0.96569   0.63291   0.00000  Uiso   1.00
C613   C     0.13758   0.04503   0.61316   0.00000  Uiso   1.00
C614   C     0.08434   0.09231   0.59194   0.00000  Uiso   1.00
C615   C     0.11079   0.16274   0.57617   0.00000  Uiso   1.00
C616   C     0.17713   0.91065   0.60995   0.00000  Uiso   1.00
C617   C     0.15716   0.84494   0.58604   0.00000  Uiso   1.00
C618   C     0.21690   0.80225   0.56757   0.00000  Uiso   1.00
C619   C     0.14567   0.96949   0.68229   0.00000  Uiso   1.00
C620   C     0.09925   0.95324   0.71920   0.00000  Uiso   1.00
C621   C     0.13251   0.96005   0.76163   0.00000  Uiso   1.00
H622   H     0.32261   0.02405   0.64674   0.00000  Uiso   1.00
H623   H     0.30055   0.15490   0.60678   0.00000  Uiso   1.00
H624   H     0.37335   0.90757   0.60089   0.00000  Uiso   1.00
H625   H     0.31545   0.01585   0.73402   0.00000  Uiso   1.00
H626   H     0.24218   0.29014   0.56013   0.00000  Uiso   1.00
H627   H     0.39569   0.76862   0.54772   0.00000  Uiso   1.00
H628   H     0.27360   0.99694   0.82847   0.00000  Uiso   1.00
H629   H     0.06123   0.94835   0.62880   0.00000  Uiso   1.00
H630   H     0.02482   0.07505   0.58786   0.00000  Uiso   1.00
H631   H     0.09763   0.82772   0.58197   0.00000  Uiso   1.00
H632   H     0.03973   0.93600   0.71510   0.00000  Uiso   1.00
H633   H     0.01839   0.22533   0.54478   0.00000  Uiso   1.00
H634   H     0.17191   0.70381   0.53236   0.00000  Uiso   1.00
H635   H     0.04981   0.93213   0.81311   0.00000  Uiso   1.00
O636   O     0.11106   0.34244   0.52583   0.00000  Uiso   1.00
O637   O     0.31246   0.65822   0.50955   0.00000  Uiso   1.00
O638   O     0.15228   0.95777   0.87788   0.00000  Uiso   1.00
N639   N     0.19450   0.25751   0.56215   0.00000  Uiso   1.00
N640   N     0.33803   0.76992   0.55054   0.00000  Uiso   1.00
N641   N     0.22389   0.98336   0.81301   0.00000  Uiso   1.00
N642   N     0.07408   0.22264   0.55388   0.00000  Uiso   1.00
N643   N     0.21761   0.73505   0.54227   0.00000  Uiso   1.00
N644   N     0.10347   0.94849   0.80475   0.00000  Uiso   1.00
C645   C     0.23728   0.49329   0.14263   0.00000  Uiso   1.00
C646   C     0.28551   0.43269   0.11844   0.00000  Uiso   1.00
C647   C     0.25898   0.36231   0.10269   0.00000  Uiso   1.00
C648   C     0.31216   0.31494   0.08145   0.00000  Uiso   1.00
C649   C     0.37534   0.21747   0.04467   0.00000  Uiso   1.00
C650   C     0.24595   0.56707   0.11523   0.00000  Uiso   1.00
C651   C     0.18616   0.60968   0.09679   0.00000  Uiso   1.00
C652   C     0.20605   0.67543   0.07286   0.00000  Uiso   1.00
C653   C     0.20781   0.78661   0.03112   0.00000  Uiso   1.00
C654   C     0.27741   0.50823   0.18757   0.00000  Uiso   1.00
C655   C     0.24407   0.50139   0.22995   0.00000  Uiso   1.00
C656   C     0.29043   0.51763   0.26692   0.00000  Uiso   1.00
C657   C     0.34105   0.53745   0.33750   0.00000  Uiso   1.00
C658   C     0.37889   0.53431   0.13291   0.00000  Uiso   1.00
C659   C     0.36242   0.45497   0.11316   0.00000  Uiso   1.00
C660   C     0.41566   0.40769   0.09194   0.00000  Uiso   1.00
C661   C     0.38921   0.33726   0.07617   0.00000  Uiso   1.00
C662   C     0.32287   0.58935   0.10995   0.00000  Uiso   1.00
C663   C     0.34284   0.65506   0.08604   0.00000  Uiso   1.00
C664   C     0.28310   0.69775   0.06757   0.00000  Uiso   1.00
C665   C     0.35433   0.53051   0.18229   0.00000  Uiso   1.00
C666   C     0.40075   0.54676   0.21920   0.00000  Uiso   1.00
C667   C     0.36749   0.53995   0.26163   0.00000  Uiso   1.00
H668   H     0.17739   0.47595   0.14674   0.00000  Uiso   1.00
H669   H     0.19945   0.34510   0.10678   0.00000  Uiso   1.00
H670   H     0.12665   0.59243   0.10089   0.00000  Uiso   1.00
H671   H     0.18455   0.48415   0.23402   0.00000  Uiso   1.00
H672   H     0.25782   0.20986   0.06013   0.00000  Uiso   1.00
H673   H     0.10431   0.73138   0.04772   0.00000  Uiso   1.00
H674   H     0.22640   0.50306   0.32847   0.00000  Uiso   1.00
H675   H     0.43877   0.55165   0.12880   0.00000  Uiso   1.00
H676   H     0.47518   0.42495   0.08786   0.00000  Uiso   1.00
H677   H     0.40237   0.67228   0.08197   0.00000  Uiso   1.00
H678   H     0.46027   0.56400   0.21510   0.00000  Uiso   1.00
H679   H     0.48161   0.27467   0.04478   0.00000  Uiso   1.00
H680   H     0.32809   0.79619   0.03236   0.00000  Uiso   1.00
H681   H     0.45019   0.56787   0.31311   0.00000  Uiso   1.00
O682   O     0.38894   0.15756   0.02583   0.00000  Uiso   1.00
O683   O     0.18754   0.84178   0.00955   0.00000  Uiso   1.00
O684   O     0.34772   0.54223   0.37788   0.00000  Uiso   1.00
N685   N     0.30550   0.24249   0.06215   0.00000  Uiso   1.00
N686   N     0.16197   0.73008   0.05054   0.00000  Uiso   1.00
N687   N     0.27611   0.51664   0.31301   0.00000  Uiso   1.00
N688   N     0.42592   0.27736   0.05388   0.00000  Uiso   1.00
N689   N     0.28239   0.76495   0.04227   0.00000  Uiso   1.00
N690   N     0.39653   0.55151   0.30475   0.00000  Uiso   1.00
C691   C     0.73728   0.99329   0.64263   0.00000  Uiso   1.00
C692   C     0.78551   0.93269   0.61844   0.00000  Uiso   1.00
C693   C     0.75898   0.86231   0.60269   0.00000  Uiso   1.00
C694   C     0.81216   0.81494   0.58145   0.00000  Uiso   1.00
C695   C     0.87534   0.71747   0.54467   0.00000  Uiso   1.00
C696   C     0.74595   0.06707   0.61523   0.00000  Uiso   1.00
C697   C     0.68616   0.10968   0.59679   0.00000  Uiso   1.00
C698   C     0.70605   0.17543   0.57286   0.00000  Uiso   1.00
C699   C     0.70781   0.28661   0.53112   0.00000  Uiso   1.00
C700   C     0.77741   0.00823   0.68757   0.00000  Uiso   1.00
C701   C     0.74407   0.00139   0.72995   0.00000  Uiso   1.00
C702   C     0.79043   0.01763   0.76692   0.00000  Uiso   1.00
C703   C     0.84105   0.03745   0.83750   0.00000  Uiso   1.00
C704   C     0.87889   0.03431   0.63291   0.00000  Uiso   1.00
C705   C     0.86242   0.95497   0.61316   0.00000  Uiso   1.00
C706   C     0.91566   0.90769   0.59194   0.00000  Uiso   1.00
C707   C     0.88921   0.83726   0.57617   0.00000  Uiso   1.00
C708   C     0.82287   0.08935   0.60995   0.00000  Uiso   1.00
C709   C     0.84284   0.15506   0.58604   0.00000  Uiso   1.00
C710   C     0.78310   0.19775   0.56757   0.00000  Uiso   1.00
C711   C     0.85433   0.03051   0.68229   0.00000  Uiso   1.00
C712   C     0.90075   0.04676   0.71920   0.00000  Uiso   1.00
C713   C     0.86749   0.03995   0.76163   0.00000  Uiso   1.00
H714   H     0.67739   0.97595   0.64674   0.00000  Uiso   1.00
H715   H     0.69945   0.84510   0.60678   0.00000  Uiso   1.00
H716   H     0.62665   0.09243   0.60089   0.00000  Uiso   1.00
H717   H     0.68455   0.98415   0.73402   0.00000  Uiso   1.00
H718   H     0.75782   0.70986   0.56013   0.00000  Uiso   1.00
H719   H     0.60431   0.23138   0.54772   0.00000  Uiso   1.00
H720   H     0.72640   0.00306   0.82847   0.00000  Uiso   1.00
H721   H     0.93877   0.05165   0.62880   0.00000  Uiso   1.00
H722   H     0.97518   0.92495   0.58786   0.00000  Uiso   1.00
H723   H     0.90237   0.17228   0.58197   0.00000  Uiso   1.00
H724   H     0.96027   0.06400   0.71510   0.00000  Uiso   1.00
H725   H     0.98161   0.77467   0.54478   0.00000  Uiso   1.00
H726   H     0.82809   0.29619   0.53236   0.00000  Uiso   1.00
H727   H     0.95019   0.06787   0.81311   0.00000  Uiso   1.00
O728   O     0.88894   0.65756   0.52583   0.00000  Uiso   1.00
O729   O     0.68754   0.34178   0.50955   0.00000  Uiso   1.00
O730   O     0.84772   0.04223   0.87788   0.00000  Uiso   1.00
N731   N     0.80550   0.74249   0.56215   0.00000  Uiso   1.00
N732   N     0.66197   0.23008   0.55054   0.00000  Uiso   1.00
N733   N     0.77611   0.01664   0.81301   0.00000  Uiso   1.00
N734   N     0.92592   0.77736   0.55388   0.00000  Uiso   1.00
N735   N     0.78239   0.26495   0.54227   0.00000  Uiso   1.00
N736   N     0.89653   0.05151   0.80475   0.00000  Uiso   1.00
