data_job_03365
_audit_creation_date              2018-12-19
_audit_creation_method            'Materials Studio'
_symmetry_space_group_name_H-M    'P1'
_symmetry_Int_Tables_number       1
_symmetry_cell_setting            triclinic
loop_
_symmetry_equiv_pos_as_xyz
  x,y,z
_cell_length_a                    33.2336
_cell_length_b                    44.0507
_cell_length_c                    10.0486
_cell_angle_alpha                 90.0000
_cell_angle_beta                  90.0000
_cell_angle_gamma                 90.0000
loop_
_atom_site_label
_atom_site_type_symbol
_atom_site_fract_x
_atom_site_fract_y
_atom_site_fract_z
_atom_site_U_iso_or_equiv
_atom_site_adp_type
_atom_site_occupancy
C1     C     0.50631   0.56239   0.47272   0.00000  Uiso   1.00
C2     C     0.50916   0.59579   0.43398   0.00000  Uiso   1.00
C3     C     0.48373   0.61082   0.34645   0.00000  Uiso   1.00
C4     C     0.49135   0.64138   0.32411   0.00000  Uiso   1.00
C5     C     0.49093   0.69096   0.25431   0.00000  Uiso   1.00
C6     C     0.54713   0.54850   0.43963   0.00000  Uiso   1.00
C7     C     0.55362   0.52376   0.35687   0.00000  Uiso   1.00
C8     C     0.59321   0.51452   0.33931   0.00000  Uiso   1.00
C9     C     0.65174   0.49066   0.27837   0.00000  Uiso   1.00
C10    C     0.50291   0.56178   0.62403   0.00000  Uiso   1.00
C11    C     0.47223   0.54819   0.69633   0.00000  Uiso   1.00
C12    C     0.47459   0.55011   0.83402   0.00000  Uiso   1.00
C13    C     0.46446   0.54687   0.05939   0.00000  Uiso   1.00
C14    C     0.56507   0.58997   0.58870   0.00000  Uiso   1.00
C15    C     0.54108   0.61077   0.49697   0.00000  Uiso   1.00
C16    C     0.54874   0.64132   0.47477   0.00000  Uiso   1.00
C17    C     0.52332   0.65639   0.38722   0.00000  Uiso   1.00
C18    C     0.57905   0.56348   0.50262   0.00000  Uiso   1.00
C19    C     0.61863   0.55427   0.48519   0.00000  Uiso   1.00
C20    C     0.62518   0.52952   0.40242   0.00000  Uiso   1.00
C21    C     0.53483   0.57676   0.68703   0.00000  Uiso   1.00
C22    C     0.53724   0.57870   0.82464   0.00000  Uiso   1.00
C23    C     0.50656   0.56512   0.89713   0.00000  Uiso   1.00
H24    H     0.48146   0.55073   0.42367   0.00000  Uiso   1.00
H25    H     0.45903   0.59922   0.29770   0.00000  Uiso   1.00
H26    H     0.52891   0.51217   0.30814   0.00000  Uiso   1.00
H27    H     0.44753   0.53660   0.64754   0.00000  Uiso   1.00
H28    H     0.44824   0.65957   0.18579   0.00000  Uiso   1.00
H29    H     0.59560   0.47603   0.20783   0.00000  Uiso   1.00
H30    H     0.42399   0.52754   0.92352   0.00000  Uiso   1.00
H31    H     0.58992   0.60163   0.63775   0.00000  Uiso   1.00
H32    H     0.57344   0.65291   0.52353   0.00000  Uiso   1.00
H33    H     0.64333   0.56586   0.53396   0.00000  Uiso   1.00
H34    H     0.56194   0.59029   0.87336   0.00000  Uiso   1.00
H35    H     0.54111   0.70315   0.36907   0.00000  Uiso   1.00
H36    H     0.68846   0.51961   0.39111   0.00000  Uiso   1.00
H37    H     0.51685   0.57112   0.10680   0.00000  Uiso   1.00
O38    O     0.48188   0.71417   0.19839   0.00000  Uiso   1.00
O39    O     0.67520   0.47337   0.22733   0.00000  Uiso   1.00
O40    O     0.45005   0.54095   0.16630   0.00000  Uiso   1.00
N41    N     0.47236   0.66279   0.24462   0.00000  Uiso   1.00
N42    N     0.61012   0.49119   0.26521   0.00000  Uiso   1.00
N43    N     0.44969   0.53934   0.93432   0.00000  Uiso   1.00
N44    N     0.52232   0.68624   0.34324   0.00000  Uiso   1.00
N45    N     0.66009   0.51464   0.36383   0.00000  Uiso   1.00
N46    N     0.49965   0.56279   0.03295   0.00000  Uiso   1.00
C47    C     0.50631   0.06239   0.97272   0.00000  Uiso   1.00
C48    C     0.50916   0.09579   0.93398   0.00000  Uiso   1.00
C49    C     0.48373   0.11082   0.84645   0.00000  Uiso   1.00
C50    C     0.49135   0.14138   0.82411   0.00000  Uiso   1.00
C51    C     0.49093   0.19096   0.75431   0.00000  Uiso   1.00
C52    C     0.54713   0.04850   0.93963   0.00000  Uiso   1.00
C53    C     0.55362   0.02376   0.85687   0.00000  Uiso   1.00
C54    C     0.59321   0.01452   0.83931   0.00000  Uiso   1.00
C55    C     0.65174   0.99066   0.77837   0.00000  Uiso   1.00
C56    C     0.50291   0.06178   0.12403   0.00000  Uiso   1.00
C57    C     0.47223   0.04819   0.19633   0.00000  Uiso   1.00
C58    C     0.47459   0.05011   0.33402   0.00000  Uiso   1.00
C59    C     0.46446   0.04687   0.55939   0.00000  Uiso   1.00
C60    C     0.56507   0.08997   0.08870   0.00000  Uiso   1.00
C61    C     0.54108   0.11077   0.99697   0.00000  Uiso   1.00
C62    C     0.54874   0.14132   0.97477   0.00000  Uiso   1.00
C63    C     0.52332   0.15639   0.88722   0.00000  Uiso   1.00
C64    C     0.57905   0.06348   0.00262   0.00000  Uiso   1.00
C65    C     0.61863   0.05427   0.98519   0.00000  Uiso   1.00
C66    C     0.62518   0.02952   0.90242   0.00000  Uiso   1.00
C67    C     0.53483   0.07676   0.18703   0.00000  Uiso   1.00
C68    C     0.53724   0.07870   0.32464   0.00000  Uiso   1.00
C69    C     0.50656   0.06512   0.39713   0.00000  Uiso   1.00
H70    H     0.48146   0.05073   0.92367   0.00000  Uiso   1.00
H71    H     0.45903   0.09922   0.79770   0.00000  Uiso   1.00
H72    H     0.52891   0.01217   0.80814   0.00000  Uiso   1.00
H73    H     0.44753   0.03660   0.14754   0.00000  Uiso   1.00
H74    H     0.44824   0.15957   0.68579   0.00000  Uiso   1.00
H75    H     0.59560   0.97603   0.70783   0.00000  Uiso   1.00
H76    H     0.42399   0.02754   0.42352   0.00000  Uiso   1.00
H77    H     0.58992   0.10163   0.13775   0.00000  Uiso   1.00
H78    H     0.57344   0.15291   0.02353   0.00000  Uiso   1.00
H79    H     0.64333   0.06586   0.03396   0.00000  Uiso   1.00
H80    H     0.56194   0.09029   0.37336   0.00000  Uiso   1.00
H81    H     0.54111   0.20315   0.86907   0.00000  Uiso   1.00
H82    H     0.68846   0.01961   0.89111   0.00000  Uiso   1.00
H83    H     0.51685   0.07112   0.60680   0.00000  Uiso   1.00
O84    O     0.48188   0.21417   0.69839   0.00000  Uiso   1.00
O85    O     0.67520   0.97337   0.72733   0.00000  Uiso   1.00
O86    O     0.45005   0.04095   0.66630   0.00000  Uiso   1.00
N87    N     0.47236   0.16279   0.74462   0.00000  Uiso   1.00
N88    N     0.61012   0.99119   0.76521   0.00000  Uiso   1.00
N89    N     0.44969   0.03934   0.43432   0.00000  Uiso   1.00
N90    N     0.52232   0.18624   0.84324   0.00000  Uiso   1.00
N91    N     0.66009   0.01464   0.86383   0.00000  Uiso   1.00
N92    N     0.49965   0.06279   0.53295   0.00000  Uiso   1.00
C93    C     0.00631   0.56239   0.97272   0.00000  Uiso   1.00
C94    C     0.00916   0.59579   0.93398   0.00000  Uiso   1.00
C95    C     0.98373   0.61082   0.84645   0.00000  Uiso   1.00
C96    C     0.99135   0.64138   0.82411   0.00000  Uiso   1.00
C97    C     0.99093   0.69096   0.75431   0.00000  Uiso   1.00
C98    C     0.04713   0.54850   0.93963   0.00000  Uiso   1.00
C99    C     0.05362   0.52376   0.85687   0.00000  Uiso   1.00
C100   C     0.09321   0.51452   0.83931   0.00000  Uiso   1.00
C101   C     0.15174   0.49066   0.77837   0.00000  Uiso   1.00
C102   C     0.00291   0.56178   0.12403   0.00000  Uiso   1.00
C103   C     0.97223   0.54819   0.19633   0.00000  Uiso   1.00
C104   C     0.97459   0.55011   0.33402   0.00000  Uiso   1.00
C105   C     0.96446   0.54687   0.55939   0.00000  Uiso   1.00
C106   C     0.06507   0.58997   0.08870   0.00000  Uiso   1.00
C107   C     0.04108   0.61077   0.99697   0.00000  Uiso   1.00
C108   C     0.04874   0.64132   0.97477   0.00000  Uiso   1.00
C109   C     0.02332   0.65639   0.88722   0.00000  Uiso   1.00
C110   C     0.07905   0.56348   0.00262   0.00000  Uiso   1.00
C111   C     0.11863   0.55427   0.98519   0.00000  Uiso   1.00
C112   C     0.12518   0.52952   0.90242   0.00000  Uiso   1.00
C113   C     0.03483   0.57676   0.18703   0.00000  Uiso   1.00
C114   C     0.03724   0.57870   0.32464   0.00000  Uiso   1.00
C115   C     0.00656   0.56512   0.39713   0.00000  Uiso   1.00
H116   H     0.98146   0.55073   0.92367   0.00000  Uiso   1.00
H117   H     0.95903   0.59922   0.79770   0.00000  Uiso   1.00
H118   H     0.02891   0.51217   0.80814   0.00000  Uiso   1.00
H119   H     0.94753   0.53660   0.14754   0.00000  Uiso   1.00
H120   H     0.94824   0.65957   0.68579   0.00000  Uiso   1.00
H121   H     0.09560   0.47603   0.70783   0.00000  Uiso   1.00
H122   H     0.92399   0.52754   0.42352   0.00000  Uiso   1.00
H123   H     0.08992   0.60163   0.13775   0.00000  Uiso   1.00
H124   H     0.07344   0.65291   0.02353   0.00000  Uiso   1.00
H125   H     0.14333   0.56586   0.03396   0.00000  Uiso   1.00
H126   H     0.06194   0.59029   0.37336   0.00000  Uiso   1.00
H127   H     0.04111   0.70315   0.86907   0.00000  Uiso   1.00
H128   H     0.18846   0.51961   0.89111   0.00000  Uiso   1.00
H129   H     0.01685   0.57112   0.60680   0.00000  Uiso   1.00
O130   O     0.98188   0.71417   0.69839   0.00000  Uiso   1.00
O131   O     0.17520   0.47337   0.72733   0.00000  Uiso   1.00
O132   O     0.95005   0.54095   0.66630   0.00000  Uiso   1.00
N133   N     0.97236   0.66279   0.74462   0.00000  Uiso   1.00
N134   N     0.11012   0.49119   0.76521   0.00000  Uiso   1.00
N135   N     0.94969   0.53934   0.43432   0.00000  Uiso   1.00
N136   N     0.02232   0.68624   0.84324   0.00000  Uiso   1.00
N137   N     0.16009   0.51464   0.86383   0.00000  Uiso   1.00
N138   N     0.99965   0.56279   0.53295   0.00000  Uiso   1.00
C139   C     0.00631   0.06239   0.47272   0.00000  Uiso   1.00
C140   C     0.00916   0.09579   0.43398   0.00000  Uiso   1.00
C141   C     0.98373   0.11082   0.34645   0.00000  Uiso   1.00
C142   C     0.99135   0.14138   0.32411   0.00000  Uiso   1.00
C143   C     0.99093   0.19096   0.25431   0.00000  Uiso   1.00
C144   C     0.04713   0.04850   0.43963   0.00000  Uiso   1.00
C145   C     0.05362   0.02376   0.35687   0.00000  Uiso   1.00
C146   C     0.09321   0.01452   0.33931   0.00000  Uiso   1.00
C147   C     0.15174   0.99066   0.27837   0.00000  Uiso   1.00
C148   C     0.00291   0.06178   0.62403   0.00000  Uiso   1.00
C149   C     0.97223   0.04819   0.69633   0.00000  Uiso   1.00
C150   C     0.97459   0.05011   0.83402   0.00000  Uiso   1.00
C151   C     0.96446   0.04687   0.05939   0.00000  Uiso   1.00
C152   C     0.06507   0.08997   0.58870   0.00000  Uiso   1.00
C153   C     0.04108   0.11077   0.49697   0.00000  Uiso   1.00
C154   C     0.04874   0.14132   0.47477   0.00000  Uiso   1.00
C155   C     0.02332   0.15639   0.38722   0.00000  Uiso   1.00
C156   C     0.07905   0.06348   0.50262   0.00000  Uiso   1.00
C157   C     0.11863   0.05427   0.48519   0.00000  Uiso   1.00
C158   C     0.12518   0.02952   0.40242   0.00000  Uiso   1.00
C159   C     0.03483   0.07676   0.68703   0.00000  Uiso   1.00
C160   C     0.03724   0.07870   0.82464   0.00000  Uiso   1.00
C161   C     0.00656   0.06512   0.89713   0.00000  Uiso   1.00
H162   H     0.98146   0.05073   0.42367   0.00000  Uiso   1.00
H163   H     0.95903   0.09922   0.29770   0.00000  Uiso   1.00
H164   H     0.02891   0.01217   0.30814   0.00000  Uiso   1.00
H165   H     0.94753   0.03660   0.64754   0.00000  Uiso   1.00
H166   H     0.94824   0.15957   0.18579   0.00000  Uiso   1.00
H167   H     0.09560   0.97603   0.20783   0.00000  Uiso   1.00
H168   H     0.92399   0.02754   0.92352   0.00000  Uiso   1.00
H169   H     0.08992   0.10163   0.63775   0.00000  Uiso   1.00
H170   H     0.07344   0.15291   0.52353   0.00000  Uiso   1.00
H171   H     0.14333   0.06586   0.53396   0.00000  Uiso   1.00
H172   H     0.06194   0.09029   0.87336   0.00000  Uiso   1.00
H173   H     0.04111   0.20315   0.36907   0.00000  Uiso   1.00
H174   H     0.18846   0.01961   0.39111   0.00000  Uiso   1.00
H175   H     0.01685   0.07112   0.10680   0.00000  Uiso   1.00
O176   O     0.98188   0.21417   0.19839   0.00000  Uiso   1.00
O177   O     0.17520   0.97337   0.22733   0.00000  Uiso   1.00
O178   O     0.95005   0.04095   0.16630   0.00000  Uiso   1.00
N179   N     0.97236   0.16279   0.24462   0.00000  Uiso   1.00
N180   N     0.11012   0.99119   0.26521   0.00000  Uiso   1.00
N181   N     0.94969   0.03934   0.93432   0.00000  Uiso   1.00
N182   N     0.02232   0.18624   0.34324   0.00000  Uiso   1.00
N183   N     0.16009   0.01464   0.36383   0.00000  Uiso   1.00
N184   N     0.99965   0.06279   0.03295   0.00000  Uiso   1.00
C185   C     0.49369   0.43761   0.47272   0.00000  Uiso   1.00
C186   C     0.49084   0.40421   0.43398   0.00000  Uiso   1.00
C187   C     0.51627   0.38918   0.34645   0.00000  Uiso   1.00
C188   C     0.50865   0.35862   0.32411   0.00000  Uiso   1.00
C189   C     0.50907   0.30904   0.25431   0.00000  Uiso   1.00
C190   C     0.45287   0.45150   0.43963   0.00000  Uiso   1.00
C191   C     0.44638   0.47624   0.35687   0.00000  Uiso   1.00
C192   C     0.40679   0.48548   0.33931   0.00000  Uiso   1.00
C193   C     0.34826   0.50934   0.27837   0.00000  Uiso   1.00
C194   C     0.49709   0.43822   0.62403   0.00000  Uiso   1.00
C195   C     0.52777   0.45181   0.69633   0.00000  Uiso   1.00
C196   C     0.52541   0.44989   0.83402   0.00000  Uiso   1.00
C197   C     0.53554   0.45313   0.05939   0.00000  Uiso   1.00
C198   C     0.43493   0.41003   0.58870   0.00000  Uiso   1.00
C199   C     0.45892   0.38923   0.49697   0.00000  Uiso   1.00
C200   C     0.45126   0.35868   0.47477   0.00000  Uiso   1.00
C201   C     0.47668   0.34361   0.38722   0.00000  Uiso   1.00
C202   C     0.42095   0.43652   0.50262   0.00000  Uiso   1.00
C203   C     0.38137   0.44573   0.48519   0.00000  Uiso   1.00
C204   C     0.37482   0.47048   0.40242   0.00000  Uiso   1.00
C205   C     0.46517   0.42324   0.68703   0.00000  Uiso   1.00
C206   C     0.46276   0.42130   0.82464   0.00000  Uiso   1.00
C207   C     0.49344   0.43488   0.89713   0.00000  Uiso   1.00
H208   H     0.51854   0.44927   0.42367   0.00000  Uiso   1.00
H209   H     0.54097   0.40078   0.29770   0.00000  Uiso   1.00
H210   H     0.47109   0.48783   0.30814   0.00000  Uiso   1.00
H211   H     0.55247   0.46340   0.64754   0.00000  Uiso   1.00
H212   H     0.55176   0.34043   0.18579   0.00000  Uiso   1.00
H213   H     0.40440   0.52397   0.20783   0.00000  Uiso   1.00
H214   H     0.57601   0.47246   0.92352   0.00000  Uiso   1.00
H215   H     0.41008   0.39837   0.63775   0.00000  Uiso   1.00
H216   H     0.42656   0.34709   0.52353   0.00000  Uiso   1.00
H217   H     0.35667   0.43414   0.53396   0.00000  Uiso   1.00
H218   H     0.43806   0.40971   0.87336   0.00000  Uiso   1.00
H219   H     0.45889   0.29685   0.36907   0.00000  Uiso   1.00
H220   H     0.31154   0.48039   0.39111   0.00000  Uiso   1.00
H221   H     0.48315   0.42888   0.10680   0.00000  Uiso   1.00
O222   O     0.51812   0.28583   0.19839   0.00000  Uiso   1.00
O223   O     0.32480   0.52663   0.22733   0.00000  Uiso   1.00
O224   O     0.54995   0.45905   0.16630   0.00000  Uiso   1.00
N225   N     0.52764   0.33721   0.24462   0.00000  Uiso   1.00
N226   N     0.38988   0.50881   0.26521   0.00000  Uiso   1.00
N227   N     0.55031   0.46066   0.93432   0.00000  Uiso   1.00
N228   N     0.47768   0.31376   0.34324   0.00000  Uiso   1.00
N229   N     0.33991   0.48536   0.36383   0.00000  Uiso   1.00
N230   N     0.50035   0.43721   0.03295   0.00000  Uiso   1.00
C231   C     0.49369   0.93761   0.97272   0.00000  Uiso   1.00
C232   C     0.49084   0.90421   0.93398   0.00000  Uiso   1.00
C233   C     0.51627   0.88918   0.84645   0.00000  Uiso   1.00
C234   C     0.50865   0.85862   0.82411   0.00000  Uiso   1.00
C235   C     0.50907   0.80904   0.75431   0.00000  Uiso   1.00
C236   C     0.45287   0.95150   0.93963   0.00000  Uiso   1.00
C237   C     0.44638   0.97624   0.85687   0.00000  Uiso   1.00
C238   C     0.40679   0.98548   0.83931   0.00000  Uiso   1.00
C239   C     0.34826   0.00934   0.77837   0.00000  Uiso   1.00
C240   C     0.49709   0.93822   0.12403   0.00000  Uiso   1.00
C241   C     0.52777   0.95181   0.19633   0.00000  Uiso   1.00
C242   C     0.52541   0.94989   0.33402   0.00000  Uiso   1.00
C243   C     0.53554   0.95313   0.55939   0.00000  Uiso   1.00
C244   C     0.43493   0.91003   0.08870   0.00000  Uiso   1.00
C245   C     0.45892   0.88923   0.99697   0.00000  Uiso   1.00
C246   C     0.45126   0.85868   0.97477   0.00000  Uiso   1.00
C247   C     0.47668   0.84361   0.88722   0.00000  Uiso   1.00
C248   C     0.42095   0.93652   0.00262   0.00000  Uiso   1.00
C249   C     0.38137   0.94573   0.98519   0.00000  Uiso   1.00
C250   C     0.37482   0.97048   0.90242   0.00000  Uiso   1.00
C251   C     0.46517   0.92324   0.18703   0.00000  Uiso   1.00
C252   C     0.46276   0.92130   0.32464   0.00000  Uiso   1.00
C253   C     0.49344   0.93488   0.39713   0.00000  Uiso   1.00
H254   H     0.51854   0.94927   0.92367   0.00000  Uiso   1.00
H255   H     0.54097   0.90078   0.79770   0.00000  Uiso   1.00
H256   H     0.47109   0.98783   0.80814   0.00000  Uiso   1.00
H257   H     0.55247   0.96340   0.14754   0.00000  Uiso   1.00
H258   H     0.55176   0.84043   0.68579   0.00000  Uiso   1.00
H259   H     0.40440   0.02397   0.70783   0.00000  Uiso   1.00
H260   H     0.57601   0.97246   0.42352   0.00000  Uiso   1.00
H261   H     0.41008   0.89837   0.13775   0.00000  Uiso   1.00
H262   H     0.42656   0.84709   0.02353   0.00000  Uiso   1.00
H263   H     0.35667   0.93414   0.03396   0.00000  Uiso   1.00
H264   H     0.43806   0.90971   0.37336   0.00000  Uiso   1.00
H265   H     0.45889   0.79685   0.86907   0.00000  Uiso   1.00
H266   H     0.31154   0.98039   0.89111   0.00000  Uiso   1.00
H267   H     0.48315   0.92888   0.60680   0.00000  Uiso   1.00
O268   O     0.51812   0.78583   0.69839   0.00000  Uiso   1.00
O269   O     0.32480   0.02663   0.72733   0.00000  Uiso   1.00
O270   O     0.54995   0.95905   0.66630   0.00000  Uiso   1.00
N271   N     0.52764   0.83721   0.74462   0.00000  Uiso   1.00
N272   N     0.38988   0.00881   0.76521   0.00000  Uiso   1.00
N273   N     0.55031   0.96066   0.43432   0.00000  Uiso   1.00
N274   N     0.47768   0.81376   0.84324   0.00000  Uiso   1.00
N275   N     0.33991   0.98536   0.86383   0.00000  Uiso   1.00
N276   N     0.50035   0.93721   0.53295   0.00000  Uiso   1.00
C277   C     0.99369   0.43761   0.97272   0.00000  Uiso   1.00
C278   C     0.99084   0.40421   0.93398   0.00000  Uiso   1.00
C279   C     0.01627   0.38918   0.84645   0.00000  Uiso   1.00
C280   C     0.00865   0.35862   0.82411   0.00000  Uiso   1.00
C281   C     0.00907   0.30904   0.75431   0.00000  Uiso   1.00
C282   C     0.95287   0.45150   0.93963   0.00000  Uiso   1.00
C283   C     0.94638   0.47624   0.85687   0.00000  Uiso   1.00
C284   C     0.90679   0.48548   0.83931   0.00000  Uiso   1.00
C285   C     0.84826   0.50934   0.77837   0.00000  Uiso   1.00
C286   C     0.99709   0.43822   0.12403   0.00000  Uiso   1.00
C287   C     0.02777   0.45181   0.19633   0.00000  Uiso   1.00
C288   C     0.02541   0.44989   0.33402   0.00000  Uiso   1.00
C289   C     0.03554   0.45313   0.55939   0.00000  Uiso   1.00
C290   C     0.93493   0.41003   0.08870   0.00000  Uiso   1.00
C291   C     0.95892   0.38923   0.99697   0.00000  Uiso   1.00
C292   C     0.95126   0.35868   0.97477   0.00000  Uiso   1.00
C293   C     0.97668   0.34361   0.88722   0.00000  Uiso   1.00
C294   C     0.92095   0.43652   0.00262   0.00000  Uiso   1.00
C295   C     0.88137   0.44573   0.98519   0.00000  Uiso   1.00
C296   C     0.87482   0.47048   0.90242   0.00000  Uiso   1.00
C297   C     0.96517   0.42324   0.18703   0.00000  Uiso   1.00
C298   C     0.96276   0.42130   0.32464   0.00000  Uiso   1.00
C299   C     0.99344   0.43488   0.39713   0.00000  Uiso   1.00
H300   H     0.01854   0.44927   0.92367   0.00000  Uiso   1.00
H301   H     0.04097   0.40078   0.79770   0.00000  Uiso   1.00
H302   H     0.97109   0.48783   0.80814   0.00000  Uiso   1.00
H303   H     0.05247   0.46340   0.14754   0.00000  Uiso   1.00
H304   H     0.05176   0.34043   0.68579   0.00000  Uiso   1.00
H305   H     0.90440   0.52397   0.70783   0.00000  Uiso   1.00
H306   H     0.07601   0.47246   0.42352   0.00000  Uiso   1.00
H307   H     0.91008   0.39837   0.13775   0.00000  Uiso   1.00
H308   H     0.92656   0.34709   0.02353   0.00000  Uiso   1.00
H309   H     0.85667   0.43414   0.03396   0.00000  Uiso   1.00
H310   H     0.93806   0.40971   0.37336   0.00000  Uiso   1.00
H311   H     0.95889   0.29685   0.86907   0.00000  Uiso   1.00
H312   H     0.81154   0.48039   0.89111   0.00000  Uiso   1.00
H313   H     0.98315   0.42888   0.60680   0.00000  Uiso   1.00
O314   O     0.01812   0.28583   0.69839   0.00000  Uiso   1.00
O315   O     0.82480   0.52663   0.72733   0.00000  Uiso   1.00
O316   O     0.04995   0.45905   0.66630   0.00000  Uiso   1.00
N317   N     0.02764   0.33721   0.74462   0.00000  Uiso   1.00
N318   N     0.88988   0.50881   0.76521   0.00000  Uiso   1.00
N319   N     0.05031   0.46066   0.43432   0.00000  Uiso   1.00
N320   N     0.97768   0.31376   0.84324   0.00000  Uiso   1.00
N321   N     0.83991   0.48536   0.86383   0.00000  Uiso   1.00
N322   N     0.00035   0.43721   0.53295   0.00000  Uiso   1.00
C323   C     0.99369   0.93761   0.47272   0.00000  Uiso   1.00
C324   C     0.99084   0.90421   0.43398   0.00000  Uiso   1.00
C325   C     0.01627   0.88918   0.34645   0.00000  Uiso   1.00
C326   C     0.00865   0.85862   0.32411   0.00000  Uiso   1.00
C327   C     0.00907   0.80904   0.25431   0.00000  Uiso   1.00
C328   C     0.95287   0.95150   0.43963   0.00000  Uiso   1.00
C329   C     0.94638   0.97624   0.35687   0.00000  Uiso   1.00
C330   C     0.90679   0.98548   0.33931   0.00000  Uiso   1.00
C331   C     0.84826   0.00934   0.27837   0.00000  Uiso   1.00
C332   C     0.99709   0.93822   0.62403   0.00000  Uiso   1.00
C333   C     0.02777   0.95181   0.69633   0.00000  Uiso   1.00
C334   C     0.02541   0.94989   0.83402   0.00000  Uiso   1.00
C335   C     0.03554   0.95313   0.05939   0.00000  Uiso   1.00
C336   C     0.93493   0.91003   0.58870   0.00000  Uiso   1.00
C337   C     0.95892   0.88923   0.49697   0.00000  Uiso   1.00
C338   C     0.95126   0.85868   0.47477   0.00000  Uiso   1.00
C339   C     0.97668   0.84361   0.38722   0.00000  Uiso   1.00
C340   C     0.92095   0.93652   0.50262   0.00000  Uiso   1.00
C341   C     0.88137   0.94573   0.48519   0.00000  Uiso   1.00
C342   C     0.87482   0.97048   0.40242   0.00000  Uiso   1.00
C343   C     0.96517   0.92324   0.68703   0.00000  Uiso   1.00
C344   C     0.96276   0.92130   0.82464   0.00000  Uiso   1.00
C345   C     0.99344   0.93488   0.89713   0.00000  Uiso   1.00
H346   H     0.01854   0.94927   0.42367   0.00000  Uiso   1.00
H347   H     0.04097   0.90078   0.29770   0.00000  Uiso   1.00
H348   H     0.97109   0.98783   0.30814   0.00000  Uiso   1.00
H349   H     0.05247   0.96340   0.64754   0.00000  Uiso   1.00
H350   H     0.05176   0.84043   0.18579   0.00000  Uiso   1.00
H351   H     0.90440   0.02397   0.20783   0.00000  Uiso   1.00
H352   H     0.07601   0.97246   0.92352   0.00000  Uiso   1.00
H353   H     0.91008   0.89837   0.63775   0.00000  Uiso   1.00
H354   H     0.92656   0.84709   0.52353   0.00000  Uiso   1.00
H355   H     0.85667   0.93414   0.53396   0.00000  Uiso   1.00
H356   H     0.93806   0.90971   0.87336   0.00000  Uiso   1.00
H357   H     0.95889   0.79685   0.36907   0.00000  Uiso   1.00
H358   H     0.81154   0.98039   0.39111   0.00000  Uiso   1.00
H359   H     0.98315   0.92888   0.10680   0.00000  Uiso   1.00
O360   O     0.01812   0.78583   0.19839   0.00000  Uiso   1.00
O361   O     0.82480   0.02663   0.22733   0.00000  Uiso   1.00
O362   O     0.04995   0.95905   0.16630   0.00000  Uiso   1.00
N363   N     0.02764   0.83721   0.24462   0.00000  Uiso   1.00
N364   N     0.88988   0.00881   0.26521   0.00000  Uiso   1.00
N365   N     0.05031   0.96066   0.93432   0.00000  Uiso   1.00
N366   N     0.97768   0.81376   0.34324   0.00000  Uiso   1.00
N367   N     0.83991   0.98536   0.36383   0.00000  Uiso   1.00
N368   N     0.00035   0.93721   0.03295   0.00000  Uiso   1.00
C369   C     0.75631   0.68761   0.72272   0.00000  Uiso   1.00
C370   C     0.75916   0.65421   0.68398   0.00000  Uiso   1.00
C371   C     0.73373   0.63918   0.59645   0.00000  Uiso   1.00
C372   C     0.74135   0.60862   0.57411   0.00000  Uiso   1.00
C373   C     0.74093   0.55904   0.50431   0.00000  Uiso   1.00
C374   C     0.79713   0.70150   0.68963   0.00000  Uiso   1.00
C375   C     0.80362   0.72624   0.60687   0.00000  Uiso   1.00
C376   C     0.84321   0.73548   0.58931   0.00000  Uiso   1.00
C377   C     0.90174   0.75934   0.52837   0.00000  Uiso   1.00
C378   C     0.75291   0.68822   0.87403   0.00000  Uiso   1.00
C379   C     0.72223   0.70181   0.94633   0.00000  Uiso   1.00
C380   C     0.72459   0.69989   0.08402   0.00000  Uiso   1.00
C381   C     0.71446   0.70313   0.30939   0.00000  Uiso   1.00
C382   C     0.81507   0.66003   0.83870   0.00000  Uiso   1.00
C383   C     0.79108   0.63923   0.74697   0.00000  Uiso   1.00
C384   C     0.79874   0.60868   0.72477   0.00000  Uiso   1.00
C385   C     0.77332   0.59361   0.63722   0.00000  Uiso   1.00
C386   C     0.82905   0.68652   0.75262   0.00000  Uiso   1.00
C387   C     0.86863   0.69573   0.73519   0.00000  Uiso   1.00
C388   C     0.87518   0.72048   0.65242   0.00000  Uiso   1.00
C389   C     0.78483   0.67324   0.93703   0.00000  Uiso   1.00
C390   C     0.78724   0.67130   0.07464   0.00000  Uiso   1.00
C391   C     0.75656   0.68488   0.14713   0.00000  Uiso   1.00
H392   H     0.73146   0.69927   0.67367   0.00000  Uiso   1.00
H393   H     0.70903   0.65078   0.54770   0.00000  Uiso   1.00
H394   H     0.77891   0.73783   0.55814   0.00000  Uiso   1.00
H395   H     0.69753   0.71340   0.89754   0.00000  Uiso   1.00
H396   H     0.69824   0.59043   0.43579   0.00000  Uiso   1.00
H397   H     0.84560   0.77397   0.45783   0.00000  Uiso   1.00
H398   H     0.67399   0.72246   0.17352   0.00000  Uiso   1.00
H399   H     0.83992   0.64837   0.88775   0.00000  Uiso   1.00
H400   H     0.82344   0.59709   0.77353   0.00000  Uiso   1.00
H401   H     0.89333   0.68414   0.78396   0.00000  Uiso   1.00
H402   H     0.81194   0.65971   0.12336   0.00000  Uiso   1.00
H403   H     0.79111   0.54685   0.61907   0.00000  Uiso   1.00
H404   H     0.93846   0.73039   0.64111   0.00000  Uiso   1.00
H405   H     0.76685   0.67888   0.35680   0.00000  Uiso   1.00
O406   O     0.73188   0.53583   0.44839   0.00000  Uiso   1.00
O407   O     0.92520   0.77663   0.47733   0.00000  Uiso   1.00
O408   O     0.70005   0.70905   0.41630   0.00000  Uiso   1.00
N409   N     0.72236   0.58721   0.49462   0.00000  Uiso   1.00
N410   N     0.86012   0.75881   0.51521   0.00000  Uiso   1.00
N411   N     0.69969   0.71066   0.18432   0.00000  Uiso   1.00
N412   N     0.77232   0.56376   0.59324   0.00000  Uiso   1.00
N413   N     0.91009   0.73536   0.61383   0.00000  Uiso   1.00
N414   N     0.74965   0.68721   0.28295   0.00000  Uiso   1.00
C415   C     0.75631   0.18761   0.22272   0.00000  Uiso   1.00
C416   C     0.75916   0.15421   0.18398   0.00000  Uiso   1.00
C417   C     0.73373   0.13918   0.09645   0.00000  Uiso   1.00
C418   C     0.74135   0.10862   0.07411   0.00000  Uiso   1.00
C419   C     0.74093   0.05904   0.00431   0.00000  Uiso   1.00
C420   C     0.79713   0.20150   0.18963   0.00000  Uiso   1.00
C421   C     0.80362   0.22624   0.10687   0.00000  Uiso   1.00
C422   C     0.84321   0.23548   0.08931   0.00000  Uiso   1.00
C423   C     0.90174   0.25934   0.02837   0.00000  Uiso   1.00
C424   C     0.75291   0.18822   0.37403   0.00000  Uiso   1.00
C425   C     0.72223   0.20181   0.44633   0.00000  Uiso   1.00
C426   C     0.72459   0.19989   0.58402   0.00000  Uiso   1.00
C427   C     0.71446   0.20313   0.80939   0.00000  Uiso   1.00
C428   C     0.81507   0.16003   0.33870   0.00000  Uiso   1.00
C429   C     0.79108   0.13923   0.24697   0.00000  Uiso   1.00
C430   C     0.79874   0.10868   0.22477   0.00000  Uiso   1.00
C431   C     0.77332   0.09361   0.13722   0.00000  Uiso   1.00
C432   C     0.82905   0.18652   0.25262   0.00000  Uiso   1.00
C433   C     0.86863   0.19573   0.23519   0.00000  Uiso   1.00
C434   C     0.87518   0.22048   0.15242   0.00000  Uiso   1.00
C435   C     0.78483   0.17324   0.43703   0.00000  Uiso   1.00
C436   C     0.78724   0.17130   0.57464   0.00000  Uiso   1.00
C437   C     0.75656   0.18488   0.64713   0.00000  Uiso   1.00
H438   H     0.73146   0.19927   0.17367   0.00000  Uiso   1.00
H439   H     0.70903   0.15078   0.04770   0.00000  Uiso   1.00
H440   H     0.77891   0.23783   0.05814   0.00000  Uiso   1.00
H441   H     0.69753   0.21340   0.39754   0.00000  Uiso   1.00
H442   H     0.69824   0.09043   0.93579   0.00000  Uiso   1.00
H443   H     0.84560   0.27397   0.95783   0.00000  Uiso   1.00
H444   H     0.67399   0.22246   0.67352   0.00000  Uiso   1.00
H445   H     0.83992   0.14837   0.38775   0.00000  Uiso   1.00
H446   H     0.82344   0.09709   0.27353   0.00000  Uiso   1.00
H447   H     0.89333   0.18414   0.28396   0.00000  Uiso   1.00
H448   H     0.81194   0.15971   0.62336   0.00000  Uiso   1.00
H449   H     0.79111   0.04685   0.11907   0.00000  Uiso   1.00
H450   H     0.93846   0.23039   0.14111   0.00000  Uiso   1.00
H451   H     0.76685   0.17888   0.85680   0.00000  Uiso   1.00
O452   O     0.73188   0.03583   0.94839   0.00000  Uiso   1.00
O453   O     0.92520   0.27663   0.97733   0.00000  Uiso   1.00
O454   O     0.70005   0.20905   0.91630   0.00000  Uiso   1.00
N455   N     0.72236   0.08721   0.99462   0.00000  Uiso   1.00
N456   N     0.86012   0.25881   0.01521   0.00000  Uiso   1.00
N457   N     0.69969   0.21066   0.68432   0.00000  Uiso   1.00
N458   N     0.77232   0.06376   0.09324   0.00000  Uiso   1.00
N459   N     0.91009   0.23536   0.11383   0.00000  Uiso   1.00
N460   N     0.74965   0.18721   0.78295   0.00000  Uiso   1.00
C461   C     0.25631   0.68761   0.22272   0.00000  Uiso   1.00
C462   C     0.25916   0.65421   0.18398   0.00000  Uiso   1.00
C463   C     0.23373   0.63918   0.09645   0.00000  Uiso   1.00
C464   C     0.24135   0.60862   0.07411   0.00000  Uiso   1.00
C465   C     0.24093   0.55904   0.00431   0.00000  Uiso   1.00
C466   C     0.29713   0.70150   0.18963   0.00000  Uiso   1.00
C467   C     0.30362   0.72624   0.10687   0.00000  Uiso   1.00
C468   C     0.34321   0.73548   0.08931   0.00000  Uiso   1.00
C469   C     0.40174   0.75934   0.02837   0.00000  Uiso   1.00
C470   C     0.25291   0.68822   0.37403   0.00000  Uiso   1.00
C471   C     0.22223   0.70181   0.44633   0.00000  Uiso   1.00
C472   C     0.22459   0.69989   0.58402   0.00000  Uiso   1.00
C473   C     0.21446   0.70313   0.80939   0.00000  Uiso   1.00
C474   C     0.31507   0.66003   0.33870   0.00000  Uiso   1.00
C475   C     0.29108   0.63923   0.24697   0.00000  Uiso   1.00
C476   C     0.29874   0.60868   0.22477   0.00000  Uiso   1.00
C477   C     0.27332   0.59361   0.13722   0.00000  Uiso   1.00
C478   C     0.32905   0.68652   0.25262   0.00000  Uiso   1.00
C479   C     0.36863   0.69573   0.23519   0.00000  Uiso   1.00
C480   C     0.37518   0.72048   0.15242   0.00000  Uiso   1.00
C481   C     0.28483   0.67324   0.43703   0.00000  Uiso   1.00
C482   C     0.28724   0.67130   0.57464   0.00000  Uiso   1.00
C483   C     0.25656   0.68488   0.64713   0.00000  Uiso   1.00
H484   H     0.23146   0.69927   0.17367   0.00000  Uiso   1.00
H485   H     0.20903   0.65078   0.04770   0.00000  Uiso   1.00
H486   H     0.27891   0.73783   0.05814   0.00000  Uiso   1.00
H487   H     0.19753   0.71340   0.39754   0.00000  Uiso   1.00
H488   H     0.19824   0.59043   0.93579   0.00000  Uiso   1.00
H489   H     0.34560   0.77397   0.95783   0.00000  Uiso   1.00
H490   H     0.17399   0.72246   0.67352   0.00000  Uiso   1.00
H491   H     0.33992   0.64837   0.38775   0.00000  Uiso   1.00
H492   H     0.32344   0.59709   0.27353   0.00000  Uiso   1.00
H493   H     0.39333   0.68414   0.28396   0.00000  Uiso   1.00
H494   H     0.31194   0.65971   0.62336   0.00000  Uiso   1.00
H495   H     0.29111   0.54685   0.11907   0.00000  Uiso   1.00
H496   H     0.43846   0.73039   0.14111   0.00000  Uiso   1.00
H497   H     0.26685   0.67888   0.85680   0.00000  Uiso   1.00
O498   O     0.23188   0.53583   0.94839   0.00000  Uiso   1.00
O499   O     0.42520   0.77663   0.97733   0.00000  Uiso   1.00
O500   O     0.20005   0.70905   0.91630   0.00000  Uiso   1.00
N501   N     0.22236   0.58721   0.99462   0.00000  Uiso   1.00
N502   N     0.36012   0.75881   0.01521   0.00000  Uiso   1.00
N503   N     0.19969   0.71066   0.68432   0.00000  Uiso   1.00
N504   N     0.27232   0.56376   0.09324   0.00000  Uiso   1.00
N505   N     0.41009   0.73536   0.11383   0.00000  Uiso   1.00
N506   N     0.24965   0.68721   0.78295   0.00000  Uiso   1.00
C507   C     0.25631   0.18761   0.72272   0.00000  Uiso   1.00
C508   C     0.25916   0.15421   0.68398   0.00000  Uiso   1.00
C509   C     0.23373   0.13918   0.59645   0.00000  Uiso   1.00
C510   C     0.24135   0.10862   0.57411   0.00000  Uiso   1.00
C511   C     0.24093   0.05904   0.50431   0.00000  Uiso   1.00
C512   C     0.29713   0.20150   0.68963   0.00000  Uiso   1.00
C513   C     0.30362   0.22624   0.60687   0.00000  Uiso   1.00
C514   C     0.34321   0.23548   0.58931   0.00000  Uiso   1.00
C515   C     0.40174   0.25934   0.52837   0.00000  Uiso   1.00
C516   C     0.25291   0.18822   0.87403   0.00000  Uiso   1.00
C517   C     0.22223   0.20181   0.94633   0.00000  Uiso   1.00
C518   C     0.22459   0.19989   0.08402   0.00000  Uiso   1.00
C519   C     0.21446   0.20313   0.30939   0.00000  Uiso   1.00
C520   C     0.31507   0.16003   0.83870   0.00000  Uiso   1.00
C521   C     0.29108   0.13923   0.74697   0.00000  Uiso   1.00
C522   C     0.29874   0.10868   0.72477   0.00000  Uiso   1.00
C523   C     0.27332   0.09361   0.63722   0.00000  Uiso   1.00
C524   C     0.32905   0.18652   0.75262   0.00000  Uiso   1.00
C525   C     0.36863   0.19573   0.73519   0.00000  Uiso   1.00
C526   C     0.37518   0.22048   0.65242   0.00000  Uiso   1.00
C527   C     0.28483   0.17324   0.93703   0.00000  Uiso   1.00
C528   C     0.28724   0.17130   0.07464   0.00000  Uiso   1.00
C529   C     0.25656   0.18488   0.14713   0.00000  Uiso   1.00
H530   H     0.23146   0.19927   0.67367   0.00000  Uiso   1.00
H531   H     0.20903   0.15078   0.54770   0.00000  Uiso   1.00
H532   H     0.27891   0.23783   0.55814   0.00000  Uiso   1.00
H533   H     0.19753   0.21340   0.89754   0.00000  Uiso   1.00
H534   H     0.19824   0.09043   0.43579   0.00000  Uiso   1.00
H535   H     0.34560   0.27397   0.45783   0.00000  Uiso   1.00
H536   H     0.17399   0.22246   0.17352   0.00000  Uiso   1.00
H537   H     0.33992   0.14837   0.88775   0.00000  Uiso   1.00
H538   H     0.32344   0.09709   0.77353   0.00000  Uiso   1.00
H539   H     0.39333   0.18414   0.78396   0.00000  Uiso   1.00
H540   H     0.31194   0.15971   0.12336   0.00000  Uiso   1.00
H541   H     0.29111   0.04685   0.61907   0.00000  Uiso   1.00
H542   H     0.43846   0.23039   0.64111   0.00000  Uiso   1.00
H543   H     0.26685   0.17888   0.35680   0.00000  Uiso   1.00
O544   O     0.23188   0.03583   0.44839   0.00000  Uiso   1.00
O545   O     0.42520   0.27663   0.47733   0.00000  Uiso   1.00
O546   O     0.20005   0.20905   0.41630   0.00000  Uiso   1.00
N547   N     0.22236   0.08721   0.49462   0.00000  Uiso   1.00
N548   N     0.36012   0.25881   0.51521   0.00000  Uiso   1.00
N549   N     0.19969   0.21066   0.18432   0.00000  Uiso   1.00
N550   N     0.27232   0.06376   0.59324   0.00000  Uiso   1.00
N551   N     0.41009   0.23536   0.61383   0.00000  Uiso   1.00
N552   N     0.24965   0.18721   0.28295   0.00000  Uiso   1.00
C553   C     0.74369   0.81239   0.72272   0.00000  Uiso   1.00
C554   C     0.74084   0.84579   0.68398   0.00000  Uiso   1.00
C555   C     0.76627   0.86082   0.59645   0.00000  Uiso   1.00
C556   C     0.75865   0.89138   0.57411   0.00000  Uiso   1.00
C557   C     0.75907   0.94096   0.50431   0.00000  Uiso   1.00
C558   C     0.70287   0.79850   0.68963   0.00000  Uiso   1.00
C559   C     0.69638   0.77376   0.60687   0.00000  Uiso   1.00
C560   C     0.65679   0.76452   0.58931   0.00000  Uiso   1.00
C561   C     0.59826   0.74066   0.52837   0.00000  Uiso   1.00
C562   C     0.74709   0.81178   0.87403   0.00000  Uiso   1.00
C563   C     0.77777   0.79819   0.94633   0.00000  Uiso   1.00
C564   C     0.77541   0.80011   0.08402   0.00000  Uiso   1.00
C565   C     0.78554   0.79687   0.30939   0.00000  Uiso   1.00
C566   C     0.68493   0.83997   0.83870   0.00000  Uiso   1.00
C567   C     0.70892   0.86077   0.74697   0.00000  Uiso   1.00
C568   C     0.70126   0.89132   0.72477   0.00000  Uiso   1.00
C569   C     0.72668   0.90639   0.63722   0.00000  Uiso   1.00
C570   C     0.67095   0.81348   0.75262   0.00000  Uiso   1.00
C571   C     0.63137   0.80427   0.73519   0.00000  Uiso   1.00
C572   C     0.62482   0.77952   0.65242   0.00000  Uiso   1.00
C573   C     0.71517   0.82676   0.93703   0.00000  Uiso   1.00
C574   C     0.71276   0.82870   0.07464   0.00000  Uiso   1.00
C575   C     0.74344   0.81512   0.14713   0.00000  Uiso   1.00
H576   H     0.76854   0.80073   0.67367   0.00000  Uiso   1.00
H577   H     0.79097   0.84922   0.54770   0.00000  Uiso   1.00
H578   H     0.72109   0.76217   0.55814   0.00000  Uiso   1.00
H579   H     0.80247   0.78660   0.89754   0.00000  Uiso   1.00
H580   H     0.80176   0.90957   0.43579   0.00000  Uiso   1.00
H581   H     0.65440   0.72603   0.45783   0.00000  Uiso   1.00
H582   H     0.82601   0.77754   0.17352   0.00000  Uiso   1.00
H583   H     0.66008   0.85163   0.88775   0.00000  Uiso   1.00
H584   H     0.67656   0.90291   0.77353   0.00000  Uiso   1.00
H585   H     0.60667   0.81586   0.78396   0.00000  Uiso   1.00
H586   H     0.68806   0.84029   0.12336   0.00000  Uiso   1.00
H587   H     0.70889   0.95315   0.61907   0.00000  Uiso   1.00
H588   H     0.56154   0.76961   0.64111   0.00000  Uiso   1.00
H589   H     0.73315   0.82112   0.35680   0.00000  Uiso   1.00
O590   O     0.76812   0.96417   0.44839   0.00000  Uiso   1.00
O591   O     0.57480   0.72337   0.47733   0.00000  Uiso   1.00
O592   O     0.79995   0.79095   0.41630   0.00000  Uiso   1.00
N593   N     0.77764   0.91279   0.49462   0.00000  Uiso   1.00
N594   N     0.63988   0.74119   0.51521   0.00000  Uiso   1.00
N595   N     0.80031   0.78934   0.18432   0.00000  Uiso   1.00
N596   N     0.72768   0.93624   0.59324   0.00000  Uiso   1.00
N597   N     0.58991   0.76464   0.61383   0.00000  Uiso   1.00
N598   N     0.75035   0.81279   0.28295   0.00000  Uiso   1.00
C599   C     0.74369   0.31239   0.22272   0.00000  Uiso   1.00
C600   C     0.74084   0.34579   0.18398   0.00000  Uiso   1.00
C601   C     0.76627   0.36082   0.09645   0.00000  Uiso   1.00
C602   C     0.75865   0.39138   0.07411   0.00000  Uiso   1.00
C603   C     0.75907   0.44096   0.00431   0.00000  Uiso   1.00
C604   C     0.70287   0.29850   0.18963   0.00000  Uiso   1.00
C605   C     0.69638   0.27376   0.10687   0.00000  Uiso   1.00
C606   C     0.65679   0.26452   0.08931   0.00000  Uiso   1.00
C607   C     0.59826   0.24066   0.02837   0.00000  Uiso   1.00
C608   C     0.74709   0.31178   0.37403   0.00000  Uiso   1.00
C609   C     0.77777   0.29819   0.44633   0.00000  Uiso   1.00
C610   C     0.77541   0.30011   0.58402   0.00000  Uiso   1.00
C611   C     0.78554   0.29687   0.80939   0.00000  Uiso   1.00
C612   C     0.68493   0.33997   0.33870   0.00000  Uiso   1.00
C613   C     0.70892   0.36077   0.24697   0.00000  Uiso   1.00
C614   C     0.70126   0.39132   0.22477   0.00000  Uiso   1.00
C615   C     0.72668   0.40639   0.13722   0.00000  Uiso   1.00
C616   C     0.67095   0.31348   0.25262   0.00000  Uiso   1.00
C617   C     0.63137   0.30427   0.23519   0.00000  Uiso   1.00
C618   C     0.62482   0.27952   0.15242   0.00000  Uiso   1.00
C619   C     0.71517   0.32676   0.43703   0.00000  Uiso   1.00
C620   C     0.71276   0.32870   0.57464   0.00000  Uiso   1.00
C621   C     0.74344   0.31512   0.64713   0.00000  Uiso   1.00
H622   H     0.76854   0.30073   0.17367   0.00000  Uiso   1.00
H623   H     0.79097   0.34922   0.04770   0.00000  Uiso   1.00
H624   H     0.72109   0.26217   0.05814   0.00000  Uiso   1.00
H625   H     0.80247   0.28660   0.39754   0.00000  Uiso   1.00
H626   H     0.80176   0.40957   0.93579   0.00000  Uiso   1.00
H627   H     0.65440   0.22603   0.95783   0.00000  Uiso   1.00
H628   H     0.82601   0.27754   0.67352   0.00000  Uiso   1.00
H629   H     0.66008   0.35163   0.38775   0.00000  Uiso   1.00
H630   H     0.67656   0.40291   0.27353   0.00000  Uiso   1.00
H631   H     0.60667   0.31586   0.28396   0.00000  Uiso   1.00
H632   H     0.68806   0.34029   0.62336   0.00000  Uiso   1.00
H633   H     0.70889   0.45315   0.11907   0.00000  Uiso   1.00
H634   H     0.56154   0.26961   0.14111   0.00000  Uiso   1.00
H635   H     0.73315   0.32112   0.85680   0.00000  Uiso   1.00
O636   O     0.76812   0.46417   0.94839   0.00000  Uiso   1.00
O637   O     0.57480   0.22337   0.97733   0.00000  Uiso   1.00
O638   O     0.79995   0.29095   0.91630   0.00000  Uiso   1.00
N639   N     0.77764   0.41279   0.99462   0.00000  Uiso   1.00
N640   N     0.63988   0.24119   0.01521   0.00000  Uiso   1.00
N641   N     0.80031   0.28934   0.68432   0.00000  Uiso   1.00
N642   N     0.72768   0.43624   0.09324   0.00000  Uiso   1.00
N643   N     0.58991   0.26464   0.11383   0.00000  Uiso   1.00
N644   N     0.75035   0.31279   0.78295   0.00000  Uiso   1.00
C645   C     0.24369   0.81239   0.22272   0.00000  Uiso   1.00
C646   C     0.24084   0.84579   0.18398   0.00000  Uiso   1.00
C647   C     0.26627   0.86082   0.09645   0.00000  Uiso   1.00
C648   C     0.25865   0.89138   0.07411   0.00000  Uiso   1.00
C649   C     0.25907   0.94096   0.00431   0.00000  Uiso   1.00
C650   C     0.20287   0.79850   0.18963   0.00000  Uiso   1.00
C651   C     0.19638   0.77376   0.10687   0.00000  Uiso   1.00
C652   C     0.15679   0.76452   0.08931   0.00000  Uiso   1.00
C653   C     0.09826   0.74066   0.02837   0.00000  Uiso   1.00
C654   C     0.24709   0.81178   0.37403   0.00000  Uiso   1.00
C655   C     0.27777   0.79819   0.44633   0.00000  Uiso   1.00
C656   C     0.27541   0.80011   0.58402   0.00000  Uiso   1.00
C657   C     0.28554   0.79687   0.80939   0.00000  Uiso   1.00
C658   C     0.18493   0.83997   0.33870   0.00000  Uiso   1.00
C659   C     0.20892   0.86077   0.24697   0.00000  Uiso   1.00
C660   C     0.20126   0.89132   0.22477   0.00000  Uiso   1.00
C661   C     0.22668   0.90639   0.13722   0.00000  Uiso   1.00
C662   C     0.17095   0.81348   0.25262   0.00000  Uiso   1.00
C663   C     0.13137   0.80427   0.23519   0.00000  Uiso   1.00
C664   C     0.12482   0.77952   0.15242   0.00000  Uiso   1.00
C665   C     0.21517   0.82676   0.43703   0.00000  Uiso   1.00
C666   C     0.21276   0.82870   0.57464   0.00000  Uiso   1.00
C667   C     0.24344   0.81512   0.64713   0.00000  Uiso   1.00
H668   H     0.26854   0.80073   0.17367   0.00000  Uiso   1.00
H669   H     0.29097   0.84922   0.04770   0.00000  Uiso   1.00
H670   H     0.22109   0.76217   0.05814   0.00000  Uiso   1.00
H671   H     0.30247   0.78660   0.39754   0.00000  Uiso   1.00
H672   H     0.30176   0.90957   0.93579   0.00000  Uiso   1.00
H673   H     0.15440   0.72603   0.95783   0.00000  Uiso   1.00
H674   H     0.32601   0.77754   0.67352   0.00000  Uiso   1.00
H675   H     0.16008   0.85163   0.38775   0.00000  Uiso   1.00
H676   H     0.17656   0.90291   0.27353   0.00000  Uiso   1.00
H677   H     0.10667   0.81586   0.28396   0.00000  Uiso   1.00
H678   H     0.18806   0.84029   0.62336   0.00000  Uiso   1.00
H679   H     0.20889   0.95315   0.11907   0.00000  Uiso   1.00
H680   H     0.06154   0.76961   0.14111   0.00000  Uiso   1.00
H681   H     0.23315   0.82112   0.85680   0.00000  Uiso   1.00
O682   O     0.26812   0.96417   0.94839   0.00000  Uiso   1.00
O683   O     0.07480   0.72337   0.97733   0.00000  Uiso   1.00
O684   O     0.29995   0.79095   0.91630   0.00000  Uiso   1.00
N685   N     0.27764   0.91279   0.99462   0.00000  Uiso   1.00
N686   N     0.13988   0.74119   0.01521   0.00000  Uiso   1.00
N687   N     0.30031   0.78934   0.68432   0.00000  Uiso   1.00
N688   N     0.22768   0.93624   0.09324   0.00000  Uiso   1.00
N689   N     0.08991   0.76464   0.11383   0.00000  Uiso   1.00
N690   N     0.25035   0.81279   0.78295   0.00000  Uiso   1.00
C691   C     0.24369   0.31239   0.72272   0.00000  Uiso   1.00
C692   C     0.24084   0.34579   0.68398   0.00000  Uiso   1.00
C693   C     0.26627   0.36082   0.59645   0.00000  Uiso   1.00
C694   C     0.25865   0.39138   0.57411   0.00000  Uiso   1.00
C695   C     0.25907   0.44096   0.50431   0.00000  Uiso   1.00
C696   C     0.20287   0.29850   0.68963   0.00000  Uiso   1.00
C697   C     0.19638   0.27376   0.60687   0.00000  Uiso   1.00
C698   C     0.15679   0.26452   0.58931   0.00000  Uiso   1.00
C699   C     0.09826   0.24066   0.52837   0.00000  Uiso   1.00
C700   C     0.24709   0.31178   0.87403   0.00000  Uiso   1.00
C701   C     0.27777   0.29819   0.94633   0.00000  Uiso   1.00
C702   C     0.27541   0.30011   0.08402   0.00000  Uiso   1.00
C703   C     0.28554   0.29687   0.30939   0.00000  Uiso   1.00
C704   C     0.18493   0.33997   0.83870   0.00000  Uiso   1.00
C705   C     0.20892   0.36077   0.74697   0.00000  Uiso   1.00
C706   C     0.20126   0.39132   0.72477   0.00000  Uiso   1.00
C707   C     0.22668   0.40639   0.63722   0.00000  Uiso   1.00
C708   C     0.17095   0.31348   0.75262   0.00000  Uiso   1.00
C709   C     0.13137   0.30427   0.73519   0.00000  Uiso   1.00
C710   C     0.12482   0.27952   0.65242   0.00000  Uiso   1.00
C711   C     0.21517   0.32676   0.93703   0.00000  Uiso   1.00
C712   C     0.21276   0.32870   0.07464   0.00000  Uiso   1.00
C713   C     0.24344   0.31512   0.14713   0.00000  Uiso   1.00
H714   H     0.26854   0.30073   0.67367   0.00000  Uiso   1.00
H715   H     0.29097   0.34922   0.54770   0.00000  Uiso   1.00
H716   H     0.22109   0.26217   0.55814   0.00000  Uiso   1.00
H717   H     0.30247   0.28660   0.89754   0.00000  Uiso   1.00
H718   H     0.30176   0.40957   0.43579   0.00000  Uiso   1.00
H719   H     0.15440   0.22603   0.45783   0.00000  Uiso   1.00
H720   H     0.32601   0.27754   0.17352   0.00000  Uiso   1.00
H721   H     0.16008   0.35163   0.88775   0.00000  Uiso   1.00
H722   H     0.17656   0.40291   0.77353   0.00000  Uiso   1.00
H723   H     0.10667   0.31586   0.78396   0.00000  Uiso   1.00
H724   H     0.18806   0.34029   0.12336   0.00000  Uiso   1.00
H725   H     0.20889   0.45315   0.61907   0.00000  Uiso   1.00
H726   H     0.06154   0.26961   0.64111   0.00000  Uiso   1.00
H727   H     0.23315   0.32112   0.35680   0.00000  Uiso   1.00
O728   O     0.26812   0.46417   0.44839   0.00000  Uiso   1.00
O729   O     0.07480   0.22337   0.47733   0.00000  Uiso   1.00
O730   O     0.29995   0.29095   0.41630   0.00000  Uiso   1.00
N731   N     0.27764   0.41279   0.49462   0.00000  Uiso   1.00
N732   N     0.13988   0.24119   0.51521   0.00000  Uiso   1.00
N733   N     0.30031   0.28934   0.18432   0.00000  Uiso   1.00
N734   N     0.22768   0.43624   0.59324   0.00000  Uiso   1.00
N735   N     0.08991   0.26464   0.61383   0.00000  Uiso   1.00
N736   N     0.25035   0.31279   0.28295   0.00000  Uiso   1.00
