data_job_05882
_audit_creation_date              2018-12-19
_audit_creation_method            'Materials Studio'
_symmetry_space_group_name_H-M    'P1'
_symmetry_Int_Tables_number       1
_symmetry_cell_setting            triclinic
loop_
_symmetry_equiv_pos_as_xyz
  x,y,z
_cell_length_a                    22.0874
_cell_length_b                    43.4134
_cell_length_c                    12.6833
_cell_angle_alpha                 90.0000
_cell_angle_beta                  90.0000
_cell_angle_gamma                 90.0000
loop_
_atom_site_label
_atom_site_type_symbol
_atom_site_fract_x
_atom_site_fract_y
_atom_site_fract_z
_atom_site_U_iso_or_equiv
_atom_site_adp_type
_atom_site_occupancy
C1     C     0.93329   0.33264   0.60136   0.00000  Uiso   1.00
C2     C     0.99477   0.31795   0.57988   0.00000  Uiso   1.00
C3     C     0.01865   0.29265   0.63228   0.00000  Uiso   1.00
C4     C     0.07563   0.28271   0.60100   0.00000  Uiso   1.00
C5     C     0.16625   0.25764   0.57996   0.00000  Uiso   1.00
C6     C     0.94589   0.36644   0.62570   0.00000  Uiso   1.00
C7     C     0.92867   0.38192   0.71662   0.00000  Uiso   1.00
C8     C     0.94450   0.41280   0.72390   0.00000  Uiso   1.00
C9     C     0.95920   0.46302   0.77396   0.00000  Uiso   1.00
C10    C     0.89944   0.33227   0.49659   0.00000  Uiso   1.00
C11    C     0.84316   0.31902   0.47895   0.00000  Uiso   1.00
C12    C     0.81987   0.32114   0.37753   0.00000  Uiso   1.00
C13    C     0.76245   0.31830   0.22713   0.00000  Uiso   1.00
C14    C     0.99200   0.35996   0.45261   0.00000  Uiso   1.00
C15    C     0.02666   0.33278   0.49908   0.00000  Uiso   1.00
C16    C     0.08361   0.32287   0.46771   0.00000  Uiso   1.00
C17    C     0.10758   0.29757   0.52005   0.00000  Uiso   1.00
C18    C     0.97778   0.38128   0.54491   0.00000  Uiso   1.00
C19    C     0.99363   0.41214   0.55204   0.00000  Uiso   1.00
C20    C     0.97645   0.42766   0.64296   0.00000  Uiso   1.00
C21    C     0.93133   0.34710   0.41579   0.00000  Uiso   1.00
C22    C     0.90812   0.34924   0.31437   0.00000  Uiso   1.00
C23    C     0.85182   0.33600   0.29658   0.00000  Uiso   1.00
H24    H     0.90846   0.32109   0.66427   0.00000  Uiso   1.00
H25    H     0.99396   0.28118   0.69481   0.00000  Uiso   1.00
H26    H     0.90399   0.37043   0.77913   0.00000  Uiso   1.00
H27    H     0.81849   0.30754   0.54149   0.00000  Uiso   1.00
H28    H     0.10283   0.24347   0.69307   0.00000  Uiso   1.00
H29    H     0.91310   0.43167   0.87084   0.00000  Uiso   1.00
H30    H     0.73281   0.29906   0.36974   0.00000  Uiso   1.00
H31    H     0.01683   0.37151   0.38971   0.00000  Uiso   1.00
H32    H     0.10828   0.33436   0.40518   0.00000  Uiso   1.00
H33    H     0.01831   0.42361   0.48950   0.00000  Uiso   1.00
H34    H     0.93281   0.36073   0.25187   0.00000  Uiso   1.00
H35    H     0.19561   0.28664   0.45800   0.00000  Uiso   1.00
H36    H     0.00589   0.47484   0.63577   0.00000  Uiso   1.00
H37    H     0.82560   0.34222   0.13467   0.00000  Uiso   1.00
O38    O     0.20743   0.23971   0.59069   0.00000  Uiso   1.00
O39    O     0.95851   0.48662   0.82391   0.00000  Uiso   1.00
O40    O     0.72198   0.31264   0.16648   0.00000  Uiso   1.00
N41    N     0.11211   0.25873   0.63561   0.00000  Uiso   1.00
N42    N     0.93473   0.43468   0.80182   0.00000  Uiso   1.00
N43    N     0.76617   0.31071   0.33334   0.00000  Uiso   1.00
N44    N     0.16204   0.28195   0.50912   0.00000  Uiso   1.00
N45    N     0.98466   0.45791   0.67533   0.00000  Uiso   1.00
N46    N     0.81610   0.33393   0.20685   0.00000  Uiso   1.00
C47    C     0.57771   0.32897   0.40939   0.00000  Uiso   1.00
C48    C     0.51345   0.31707   0.42586   0.00000  Uiso   1.00
C49    C     0.48886   0.29091   0.37983   0.00000  Uiso   1.00
C50    C     0.42923   0.28391   0.40491   0.00000  Uiso   1.00
C51    C     0.33457   0.26262   0.42000   0.00000  Uiso   1.00
C52    C     0.57123   0.36200   0.37001   0.00000  Uiso   1.00
C53    C     0.59524   0.37361   0.27703   0.00000  Uiso   1.00
C54    C     0.58426   0.40444   0.25511   0.00000  Uiso   1.00
C55    C     0.57936   0.45291   0.18353   0.00000  Uiso   1.00
C56    C     0.60585   0.33123   0.51891   0.00000  Uiso   1.00
C57    C     0.65896   0.31698   0.55111   0.00000  Uiso   1.00
C58    C     0.67714   0.32191   0.65454   0.00000  Uiso   1.00
C59    C     0.72598   0.32260   0.81414   0.00000  Uiso   1.00
C60    C     0.51555   0.36308   0.53579   0.00000  Uiso   1.00
C61    C     0.47968   0.33559   0.49451   0.00000  Uiso   1.00
C62    C     0.42008   0.32864   0.51967   0.00000  Uiso   1.00
C63    C     0.39541   0.30247   0.47369   0.00000  Uiso   1.00
C64    C     0.53747   0.38052   0.43866   0.00000  Uiso   1.00
C65    C     0.52646   0.41135   0.41687   0.00000  Uiso   1.00
C66    C     0.55044   0.42300   0.32388   0.00000  Uiso   1.00
C67    C     0.57208   0.34975   0.58756   0.00000  Uiso   1.00
C68    C     0.59019   0.35471   0.69096   0.00000  Uiso   1.00
C69    C     0.64332   0.34047   0.72331   0.00000  Uiso   1.00
H70    H     0.60399   0.31455   0.35594   0.00000  Uiso   1.00
H71    H     0.51500   0.27658   0.32669   0.00000  Uiso   1.00
H72    H     0.62137   0.35927   0.22392   0.00000  Uiso   1.00
H73    H     0.68508   0.30264   0.49796   0.00000  Uiso   1.00
H74    H     0.40143   0.24265   0.32452   0.00000  Uiso   1.00
H75    H     0.62573   0.41701   0.10784   0.00000  Uiso   1.00
H76    H     0.76009   0.29761   0.68570   0.00000  Uiso   1.00
H77    H     0.48926   0.37750   0.58924   0.00000  Uiso   1.00
H78    H     0.39396   0.34298   0.57280   0.00000  Uiso   1.00
H79    H     0.50033   0.42567   0.47002   0.00000  Uiso   1.00
H80    H     0.56405   0.36905   0.74406   0.00000  Uiso   1.00
H81    H     0.30319   0.29655   0.52427   0.00000  Uiso   1.00
H82    H     0.52750   0.47091   0.30758   0.00000  Uiso   1.00
H83    H     0.66185   0.35151   0.88544   0.00000  Uiso   1.00
O84    O     0.29169   0.24576   0.40934   0.00000  Uiso   1.00
O85    O     0.58598   0.47452   0.12507   0.00000  Uiso   1.00
O86    O     0.76224   0.31786   0.88321   0.00000  Uiso   1.00
N87    N     0.39139   0.26007   0.37380   0.00000  Uiso   1.00
N88    N     0.60110   0.42309   0.17121   0.00000  Uiso   1.00
N89    N     0.72671   0.31146   0.71145   0.00000  Uiso   1.00
N90    N     0.33853   0.28907   0.48129   0.00000  Uiso   1.00
N91    N     0.54824   0.45209   0.27869   0.00000  Uiso   1.00
N92    N     0.67385   0.34046   0.81893   0.00000  Uiso   1.00
C93    C     0.56671   0.66736   0.10136   0.00000  Uiso   1.00
C94    C     0.50523   0.68205   0.07988   0.00000  Uiso   1.00
C95    C     0.48135   0.70735   0.13228   0.00000  Uiso   1.00
C96    C     0.42437   0.71729   0.10100   0.00000  Uiso   1.00
C97    C     0.33375   0.74236   0.07996   0.00000  Uiso   1.00
C98    C     0.55411   0.63356   0.12570   0.00000  Uiso   1.00
C99    C     0.57133   0.61808   0.21662   0.00000  Uiso   1.00
C100   C     0.55550   0.58720   0.22390   0.00000  Uiso   1.00
C101   C     0.54080   0.53698   0.27396   0.00000  Uiso   1.00
C102   C     0.60056   0.66773   0.99659   0.00000  Uiso   1.00
C103   C     0.65684   0.68098   0.97895   0.00000  Uiso   1.00
C104   C     0.68013   0.67886   0.87753   0.00000  Uiso   1.00
C105   C     0.73755   0.68170   0.72713   0.00000  Uiso   1.00
C106   C     0.50800   0.64004   0.95261   0.00000  Uiso   1.00
C107   C     0.47334   0.66722   0.99908   0.00000  Uiso   1.00
C108   C     0.41639   0.67713   0.96771   0.00000  Uiso   1.00
C109   C     0.39242   0.70243   0.02005   0.00000  Uiso   1.00
C110   C     0.52222   0.61872   0.04491   0.00000  Uiso   1.00
C111   C     0.50637   0.58786   0.05204   0.00000  Uiso   1.00
C112   C     0.52355   0.57234   0.14296   0.00000  Uiso   1.00
C113   C     0.56867   0.65290   0.91579   0.00000  Uiso   1.00
C114   C     0.59188   0.65076   0.81437   0.00000  Uiso   1.00
C115   C     0.64818   0.66400   0.79658   0.00000  Uiso   1.00
H116   H     0.59154   0.67891   0.16427   0.00000  Uiso   1.00
H117   H     0.50604   0.71882   0.19481   0.00000  Uiso   1.00
H118   H     0.59601   0.62957   0.27913   0.00000  Uiso   1.00
H119   H     0.68151   0.69246   0.04149   0.00000  Uiso   1.00
H120   H     0.39717   0.75653   0.19307   0.00000  Uiso   1.00
H121   H     0.58690   0.56833   0.37084   0.00000  Uiso   1.00
H122   H     0.76719   0.70094   0.86974   0.00000  Uiso   1.00
H123   H     0.48317   0.62849   0.88971   0.00000  Uiso   1.00
H124   H     0.39172   0.66564   0.90518   0.00000  Uiso   1.00
H125   H     0.48169   0.57639   0.98950   0.00000  Uiso   1.00
H126   H     0.56719   0.63927   0.75187   0.00000  Uiso   1.00
H127   H     0.30439   0.71336   0.95800   0.00000  Uiso   1.00
H128   H     0.49411   0.52516   0.13577   0.00000  Uiso   1.00
H129   H     0.67440   0.65778   0.63467   0.00000  Uiso   1.00
O130   O     0.29257   0.76029   0.09069   0.00000  Uiso   1.00
O131   O     0.54149   0.51338   0.32391   0.00000  Uiso   1.00
O132   O     0.77802   0.68736   0.66648   0.00000  Uiso   1.00
N133   N     0.38789   0.74127   0.13561   0.00000  Uiso   1.00
N134   N     0.56527   0.56532   0.30182   0.00000  Uiso   1.00
N135   N     0.73383   0.68929   0.83334   0.00000  Uiso   1.00
N136   N     0.33796   0.71805   0.00912   0.00000  Uiso   1.00
N137   N     0.51534   0.54209   0.17533   0.00000  Uiso   1.00
N138   N     0.68390   0.66607   0.70685   0.00000  Uiso   1.00
C139   C     0.92229   0.67103   0.90939   0.00000  Uiso   1.00
C140   C     0.98655   0.68293   0.92586   0.00000  Uiso   1.00
C141   C     0.01114   0.70909   0.87983   0.00000  Uiso   1.00
C142   C     0.07077   0.71609   0.90491   0.00000  Uiso   1.00
C143   C     0.16543   0.73738   0.92000   0.00000  Uiso   1.00
C144   C     0.92877   0.63800   0.87001   0.00000  Uiso   1.00
C145   C     0.90476   0.62639   0.77703   0.00000  Uiso   1.00
C146   C     0.91574   0.59556   0.75511   0.00000  Uiso   1.00
C147   C     0.92064   0.54709   0.68353   0.00000  Uiso   1.00
C148   C     0.89415   0.66877   0.01891   0.00000  Uiso   1.00
C149   C     0.84104   0.68302   0.05111   0.00000  Uiso   1.00
C150   C     0.82286   0.67809   0.15454   0.00000  Uiso   1.00
C151   C     0.77402   0.67740   0.31414   0.00000  Uiso   1.00
C152   C     0.98445   0.63692   0.03579   0.00000  Uiso   1.00
C153   C     0.02032   0.66441   0.99451   0.00000  Uiso   1.00
C154   C     0.07992   0.67136   0.01967   0.00000  Uiso   1.00
C155   C     0.10459   0.69753   0.97369   0.00000  Uiso   1.00
C156   C     0.96253   0.61948   0.93866   0.00000  Uiso   1.00
C157   C     0.97354   0.58865   0.91687   0.00000  Uiso   1.00
C158   C     0.94956   0.57700   0.82388   0.00000  Uiso   1.00
C159   C     0.92792   0.65025   0.08756   0.00000  Uiso   1.00
C160   C     0.90981   0.64529   0.19096   0.00000  Uiso   1.00
C161   C     0.85668   0.65953   0.22331   0.00000  Uiso   1.00
H162   H     0.89601   0.68545   0.85594   0.00000  Uiso   1.00
H163   H     0.98500   0.72342   0.82669   0.00000  Uiso   1.00
H164   H     0.87863   0.64073   0.72392   0.00000  Uiso   1.00
H165   H     0.81492   0.69736   0.99796   0.00000  Uiso   1.00
H166   H     0.09857   0.75735   0.82452   0.00000  Uiso   1.00
H167   H     0.87427   0.58299   0.60784   0.00000  Uiso   1.00
H168   H     0.73991   0.70239   0.18570   0.00000  Uiso   1.00
H169   H     0.01074   0.62250   0.08924   0.00000  Uiso   1.00
H170   H     0.10604   0.65702   0.07280   0.00000  Uiso   1.00
H171   H     0.99967   0.57433   0.97002   0.00000  Uiso   1.00
H172   H     0.93595   0.63095   0.24406   0.00000  Uiso   1.00
H173   H     0.19681   0.70345   0.02427   0.00000  Uiso   1.00
H174   H     0.97250   0.52909   0.80758   0.00000  Uiso   1.00
H175   H     0.83815   0.64849   0.38544   0.00000  Uiso   1.00
O176   O     0.20831   0.75424   0.90934   0.00000  Uiso   1.00
O177   O     0.91402   0.52548   0.62507   0.00000  Uiso   1.00
O178   O     0.73776   0.68214   0.38321   0.00000  Uiso   1.00
N179   N     0.10861   0.73993   0.87380   0.00000  Uiso   1.00
N180   N     0.89890   0.57691   0.67121   0.00000  Uiso   1.00
N181   N     0.77329   0.68854   0.21145   0.00000  Uiso   1.00
N182   N     0.16147   0.71093   0.98129   0.00000  Uiso   1.00
N183   N     0.95176   0.54791   0.77869   0.00000  Uiso   1.00
N184   N     0.82615   0.65954   0.31893   0.00000  Uiso   1.00
C185   C     0.06671   0.83264   0.89864   0.00000  Uiso   1.00
C186   C     0.00523   0.81795   0.92012   0.00000  Uiso   1.00
C187   C     0.98135   0.79265   0.86772   0.00000  Uiso   1.00
C188   C     0.92437   0.78271   0.89900   0.00000  Uiso   1.00
C189   C     0.83375   0.75764   0.92004   0.00000  Uiso   1.00
C190   C     0.05411   0.86644   0.87430   0.00000  Uiso   1.00
C191   C     0.07133   0.88192   0.78338   0.00000  Uiso   1.00
C192   C     0.05550   0.91280   0.77610   0.00000  Uiso   1.00
C193   C     0.04080   0.96302   0.72604   0.00000  Uiso   1.00
C194   C     0.10056   0.83227   0.00341   0.00000  Uiso   1.00
C195   C     0.15684   0.81902   0.02105   0.00000  Uiso   1.00
C196   C     0.18013   0.82114   0.12247   0.00000  Uiso   1.00
C197   C     0.23755   0.81830   0.27287   0.00000  Uiso   1.00
C198   C     0.00800   0.85996   0.04739   0.00000  Uiso   1.00
C199   C     0.97334   0.83278   0.00092   0.00000  Uiso   1.00
C200   C     0.91639   0.82287   0.03229   0.00000  Uiso   1.00
C201   C     0.89242   0.79757   0.97995   0.00000  Uiso   1.00
C202   C     0.02222   0.88128   0.95509   0.00000  Uiso   1.00
C203   C     0.00637   0.91214   0.94796   0.00000  Uiso   1.00
C204   C     0.02355   0.92766   0.85704   0.00000  Uiso   1.00
C205   C     0.06867   0.84710   0.08421   0.00000  Uiso   1.00
C206   C     0.09188   0.84924   0.18563   0.00000  Uiso   1.00
C207   C     0.14818   0.83600   0.20342   0.00000  Uiso   1.00
H208   H     0.09154   0.82109   0.83573   0.00000  Uiso   1.00
H209   H     0.00604   0.78118   0.80519   0.00000  Uiso   1.00
H210   H     0.09601   0.87043   0.72087   0.00000  Uiso   1.00
H211   H     0.18151   0.80754   0.95851   0.00000  Uiso   1.00
H212   H     0.89717   0.74347   0.80693   0.00000  Uiso   1.00
H213   H     0.08690   0.93167   0.62916   0.00000  Uiso   1.00
H214   H     0.26719   0.79906   0.13026   0.00000  Uiso   1.00
H215   H     0.98317   0.87151   0.11029   0.00000  Uiso   1.00
H216   H     0.89172   0.83436   0.09482   0.00000  Uiso   1.00
H217   H     0.98169   0.92361   0.01050   0.00000  Uiso   1.00
H218   H     0.06719   0.86073   0.24813   0.00000  Uiso   1.00
H219   H     0.80439   0.78664   0.04200   0.00000  Uiso   1.00
H220   H     0.99411   0.97484   0.86423   0.00000  Uiso   1.00
H221   H     0.17440   0.84222   0.36533   0.00000  Uiso   1.00
O222   O     0.79257   0.73971   0.90931   0.00000  Uiso   1.00
O223   O     0.04149   0.98662   0.67609   0.00000  Uiso   1.00
O224   O     0.27802   0.81264   0.33352   0.00000  Uiso   1.00
N225   N     0.88789   0.75873   0.86439   0.00000  Uiso   1.00
N226   N     0.06527   0.93468   0.69818   0.00000  Uiso   1.00
N227   N     0.23383   0.81071   0.16666   0.00000  Uiso   1.00
N228   N     0.83796   0.78195   0.99088   0.00000  Uiso   1.00
N229   N     0.01534   0.95791   0.82467   0.00000  Uiso   1.00
N230   N     0.18390   0.83393   0.29315   0.00000  Uiso   1.00
C231   C     0.42229   0.82897   0.09061   0.00000  Uiso   1.00
C232   C     0.48655   0.81707   0.07414   0.00000  Uiso   1.00
C233   C     0.51114   0.79091   0.12017   0.00000  Uiso   1.00
C234   C     0.57077   0.78391   0.09509   0.00000  Uiso   1.00
C235   C     0.66543   0.76262   0.08000   0.00000  Uiso   1.00
C236   C     0.42877   0.86200   0.12999   0.00000  Uiso   1.00
C237   C     0.40476   0.87361   0.22297   0.00000  Uiso   1.00
C238   C     0.41574   0.90444   0.24489   0.00000  Uiso   1.00
C239   C     0.42064   0.95291   0.31647   0.00000  Uiso   1.00
C240   C     0.39415   0.83123   0.98109   0.00000  Uiso   1.00
C241   C     0.34104   0.81698   0.94889   0.00000  Uiso   1.00
C242   C     0.32286   0.82191   0.84546   0.00000  Uiso   1.00
C243   C     0.27402   0.82260   0.68586   0.00000  Uiso   1.00
C244   C     0.48445   0.86308   0.96421   0.00000  Uiso   1.00
C245   C     0.52032   0.83559   0.00549   0.00000  Uiso   1.00
C246   C     0.57992   0.82864   0.98033   0.00000  Uiso   1.00
C247   C     0.60459   0.80247   0.02631   0.00000  Uiso   1.00
C248   C     0.46253   0.88052   0.06134   0.00000  Uiso   1.00
C249   C     0.47354   0.91135   0.08313   0.00000  Uiso   1.00
C250   C     0.44956   0.92300   0.17612   0.00000  Uiso   1.00
C251   C     0.42792   0.84975   0.91244   0.00000  Uiso   1.00
C252   C     0.40981   0.85471   0.80904   0.00000  Uiso   1.00
C253   C     0.35668   0.84047   0.77669   0.00000  Uiso   1.00
H254   H     0.39601   0.81455   0.14406   0.00000  Uiso   1.00
H255   H     0.48500   0.77658   0.17331   0.00000  Uiso   1.00
H256   H     0.37863   0.85927   0.27608   0.00000  Uiso   1.00
H257   H     0.31492   0.80264   0.00204   0.00000  Uiso   1.00
H258   H     0.59857   0.74265   0.17548   0.00000  Uiso   1.00
H259   H     0.37427   0.91701   0.39216   0.00000  Uiso   1.00
H260   H     0.23991   0.79761   0.81430   0.00000  Uiso   1.00
H261   H     0.51074   0.87750   0.91076   0.00000  Uiso   1.00
H262   H     0.60604   0.84298   0.92720   0.00000  Uiso   1.00
H263   H     0.49967   0.92567   0.02998   0.00000  Uiso   1.00
H264   H     0.43595   0.86905   0.75594   0.00000  Uiso   1.00
H265   H     0.69681   0.79655   0.97573   0.00000  Uiso   1.00
H266   H     0.47250   0.97091   0.19242   0.00000  Uiso   1.00
H267   H     0.33815   0.85151   0.61456   0.00000  Uiso   1.00
O268   O     0.70831   0.74576   0.09066   0.00000  Uiso   1.00
O269   O     0.41402   0.97452   0.37493   0.00000  Uiso   1.00
O270   O     0.23776   0.81786   0.61679   0.00000  Uiso   1.00
N271   N     0.60861   0.76007   0.12620   0.00000  Uiso   1.00
N272   N     0.39890   0.92309   0.32879   0.00000  Uiso   1.00
N273   N     0.27329   0.81146   0.78855   0.00000  Uiso   1.00
N274   N     0.66147   0.78907   0.01871   0.00000  Uiso   1.00
N275   N     0.45176   0.95209   0.22131   0.00000  Uiso   1.00
N276   N     0.32615   0.84046   0.68107   0.00000  Uiso   1.00
C277   C     0.43329   0.16736   0.39864   0.00000  Uiso   1.00
C278   C     0.49477   0.18205   0.42012   0.00000  Uiso   1.00
C279   C     0.51865   0.20735   0.36772   0.00000  Uiso   1.00
C280   C     0.57563   0.21729   0.39900   0.00000  Uiso   1.00
C281   C     0.66625   0.24236   0.42004   0.00000  Uiso   1.00
C282   C     0.44589   0.13356   0.37430   0.00000  Uiso   1.00
C283   C     0.42867   0.11808   0.28338   0.00000  Uiso   1.00
C284   C     0.44450   0.08720   0.27610   0.00000  Uiso   1.00
C285   C     0.45920   0.03698   0.22604   0.00000  Uiso   1.00
C286   C     0.39944   0.16773   0.50341   0.00000  Uiso   1.00
C287   C     0.34316   0.18098   0.52105   0.00000  Uiso   1.00
C288   C     0.31987   0.17886   0.62247   0.00000  Uiso   1.00
C289   C     0.26245   0.18170   0.77287   0.00000  Uiso   1.00
C290   C     0.49200   0.14004   0.54739   0.00000  Uiso   1.00
C291   C     0.52666   0.16722   0.50092   0.00000  Uiso   1.00
C292   C     0.58361   0.17713   0.53229   0.00000  Uiso   1.00
C293   C     0.60758   0.20243   0.47995   0.00000  Uiso   1.00
C294   C     0.47778   0.11872   0.45509   0.00000  Uiso   1.00
C295   C     0.49363   0.08786   0.44796   0.00000  Uiso   1.00
C296   C     0.47645   0.07234   0.35704   0.00000  Uiso   1.00
C297   C     0.43133   0.15290   0.58421   0.00000  Uiso   1.00
C298   C     0.40812   0.15076   0.68563   0.00000  Uiso   1.00
C299   C     0.35182   0.16400   0.70342   0.00000  Uiso   1.00
H300   H     0.40846   0.17891   0.33573   0.00000  Uiso   1.00
H301   H     0.49396   0.21882   0.30519   0.00000  Uiso   1.00
H302   H     0.40399   0.12957   0.22087   0.00000  Uiso   1.00
H303   H     0.31849   0.19246   0.45851   0.00000  Uiso   1.00
H304   H     0.60283   0.25653   0.30693   0.00000  Uiso   1.00
H305   H     0.41310   0.06833   0.12916   0.00000  Uiso   1.00
H306   H     0.23281   0.20094   0.63026   0.00000  Uiso   1.00
H307   H     0.51683   0.12849   0.61029   0.00000  Uiso   1.00
H308   H     0.60828   0.16564   0.59482   0.00000  Uiso   1.00
H309   H     0.51831   0.07639   0.51050   0.00000  Uiso   1.00
H310   H     0.43281   0.13927   0.74813   0.00000  Uiso   1.00
H311   H     0.69561   0.21336   0.54200   0.00000  Uiso   1.00
H312   H     0.50589   0.02516   0.36423   0.00000  Uiso   1.00
H313   H     0.32560   0.15778   0.86533   0.00000  Uiso   1.00
O314   O     0.70743   0.26029   0.40931   0.00000  Uiso   1.00
O315   O     0.45851   0.01338   0.17609   0.00000  Uiso   1.00
O316   O     0.22198   0.18736   0.83352   0.00000  Uiso   1.00
N317   N     0.61211   0.24127   0.36439   0.00000  Uiso   1.00
N318   N     0.43473   0.06532   0.19818   0.00000  Uiso   1.00
N319   N     0.26617   0.18929   0.66666   0.00000  Uiso   1.00
N320   N     0.66204   0.21805   0.49088   0.00000  Uiso   1.00
N321   N     0.48466   0.04209   0.32467   0.00000  Uiso   1.00
N322   N     0.31610   0.16607   0.79315   0.00000  Uiso   1.00
C323   C     0.07771   0.17103   0.59061   0.00000  Uiso   1.00
C324   C     0.01345   0.18293   0.57414   0.00000  Uiso   1.00
C325   C     0.98886   0.20909   0.62017   0.00000  Uiso   1.00
C326   C     0.92923   0.21609   0.59509   0.00000  Uiso   1.00
C327   C     0.83457   0.23738   0.58000   0.00000  Uiso   1.00
C328   C     0.07123   0.13800   0.62999   0.00000  Uiso   1.00
C329   C     0.09524   0.12639   0.72297   0.00000  Uiso   1.00
C330   C     0.08426   0.09556   0.74489   0.00000  Uiso   1.00
C331   C     0.07936   0.04709   0.81647   0.00000  Uiso   1.00
C332   C     0.10585   0.16877   0.48109   0.00000  Uiso   1.00
C333   C     0.15896   0.18302   0.44889   0.00000  Uiso   1.00
C334   C     0.17714   0.17809   0.34546   0.00000  Uiso   1.00
C335   C     0.22598   0.17740   0.18586   0.00000  Uiso   1.00
C336   C     0.01555   0.13692   0.46421   0.00000  Uiso   1.00
C337   C     0.97968   0.16441   0.50549   0.00000  Uiso   1.00
C338   C     0.92008   0.17136   0.48033   0.00000  Uiso   1.00
C339   C     0.89541   0.19753   0.52631   0.00000  Uiso   1.00
C340   C     0.03747   0.11948   0.56134   0.00000  Uiso   1.00
C341   C     0.02646   0.08865   0.58313   0.00000  Uiso   1.00
C342   C     0.05044   0.07700   0.67612   0.00000  Uiso   1.00
C343   C     0.07208   0.15025   0.41244   0.00000  Uiso   1.00
C344   C     0.09019   0.14529   0.30904   0.00000  Uiso   1.00
C345   C     0.14332   0.15953   0.27669   0.00000  Uiso   1.00
H346   H     0.10399   0.18545   0.64406   0.00000  Uiso   1.00
H347   H     0.01500   0.22342   0.67331   0.00000  Uiso   1.00
H348   H     0.12137   0.14073   0.77608   0.00000  Uiso   1.00
H349   H     0.18508   0.19736   0.50204   0.00000  Uiso   1.00
H350   H     0.90143   0.25735   0.67548   0.00000  Uiso   1.00
H351   H     0.12573   0.08299   0.89216   0.00000  Uiso   1.00
H352   H     0.26009   0.20239   0.31430   0.00000  Uiso   1.00
H353   H     0.98926   0.12250   0.41076   0.00000  Uiso   1.00
H354   H     0.89396   0.15702   0.42720   0.00000  Uiso   1.00
H355   H     0.00033   0.07433   0.52998   0.00000  Uiso   1.00
H356   H     0.06405   0.13095   0.25594   0.00000  Uiso   1.00
H357   H     0.80319   0.20345   0.47573   0.00000  Uiso   1.00
H358   H     0.02750   0.02909   0.69242   0.00000  Uiso   1.00
H359   H     0.16185   0.14849   0.11456   0.00000  Uiso   1.00
O360   O     0.79169   0.25424   0.59066   0.00000  Uiso   1.00
O361   O     0.08598   0.02548   0.87493   0.00000  Uiso   1.00
O362   O     0.26224   0.18214   0.11679   0.00000  Uiso   1.00
N363   N     0.89139   0.23993   0.62620   0.00000  Uiso   1.00
N364   N     0.10110   0.07691   0.82879   0.00000  Uiso   1.00
N365   N     0.22671   0.18854   0.28855   0.00000  Uiso   1.00
N366   N     0.83853   0.21093   0.51871   0.00000  Uiso   1.00
N367   N     0.04824   0.04791   0.72131   0.00000  Uiso   1.00
N368   N     0.17385   0.15954   0.18107   0.00000  Uiso   1.00
C369   C     0.06671   0.66736   0.39864   0.00000  Uiso   1.00
C370   C     0.00523   0.68205   0.42012   0.00000  Uiso   1.00
C371   C     0.98135   0.70735   0.36772   0.00000  Uiso   1.00
C372   C     0.92437   0.71729   0.39900   0.00000  Uiso   1.00
C373   C     0.83375   0.74236   0.42004   0.00000  Uiso   1.00
C374   C     0.05411   0.63356   0.37430   0.00000  Uiso   1.00
C375   C     0.07133   0.61808   0.28338   0.00000  Uiso   1.00
C376   C     0.05550   0.58720   0.27610   0.00000  Uiso   1.00
C377   C     0.04080   0.53698   0.22604   0.00000  Uiso   1.00
C378   C     0.10056   0.66773   0.50341   0.00000  Uiso   1.00
C379   C     0.15684   0.68098   0.52105   0.00000  Uiso   1.00
C380   C     0.18013   0.67886   0.62247   0.00000  Uiso   1.00
C381   C     0.23755   0.68170   0.77287   0.00000  Uiso   1.00
C382   C     0.00800   0.64004   0.54739   0.00000  Uiso   1.00
C383   C     0.97334   0.66722   0.50092   0.00000  Uiso   1.00
C384   C     0.91639   0.67713   0.53229   0.00000  Uiso   1.00
C385   C     0.89242   0.70243   0.47995   0.00000  Uiso   1.00
C386   C     0.02222   0.61872   0.45509   0.00000  Uiso   1.00
C387   C     0.00637   0.58786   0.44796   0.00000  Uiso   1.00
C388   C     0.02355   0.57234   0.35704   0.00000  Uiso   1.00
C389   C     0.06867   0.65290   0.58421   0.00000  Uiso   1.00
C390   C     0.09188   0.65076   0.68563   0.00000  Uiso   1.00
C391   C     0.14818   0.66400   0.70342   0.00000  Uiso   1.00
H392   H     0.09154   0.67891   0.33573   0.00000  Uiso   1.00
H393   H     0.00604   0.71882   0.30519   0.00000  Uiso   1.00
H394   H     0.09601   0.62957   0.22087   0.00000  Uiso   1.00
H395   H     0.18151   0.69246   0.45851   0.00000  Uiso   1.00
H396   H     0.89717   0.75653   0.30693   0.00000  Uiso   1.00
H397   H     0.08690   0.56833   0.12916   0.00000  Uiso   1.00
H398   H     0.26719   0.70094   0.63026   0.00000  Uiso   1.00
H399   H     0.98317   0.62849   0.61029   0.00000  Uiso   1.00
H400   H     0.89172   0.66564   0.59482   0.00000  Uiso   1.00
H401   H     0.98169   0.57639   0.51050   0.00000  Uiso   1.00
H402   H     0.06719   0.63927   0.74813   0.00000  Uiso   1.00
H403   H     0.80439   0.71336   0.54200   0.00000  Uiso   1.00
H404   H     0.99411   0.52516   0.36423   0.00000  Uiso   1.00
H405   H     0.17440   0.65778   0.86533   0.00000  Uiso   1.00
O406   O     0.79257   0.76029   0.40931   0.00000  Uiso   1.00
O407   O     0.04149   0.51338   0.17609   0.00000  Uiso   1.00
O408   O     0.27802   0.68736   0.83352   0.00000  Uiso   1.00
N409   N     0.88789   0.74127   0.36439   0.00000  Uiso   1.00
N410   N     0.06527   0.56532   0.19818   0.00000  Uiso   1.00
N411   N     0.23383   0.68929   0.66666   0.00000  Uiso   1.00
N412   N     0.83796   0.71805   0.49088   0.00000  Uiso   1.00
N413   N     0.01534   0.54209   0.32467   0.00000  Uiso   1.00
N414   N     0.18390   0.66607   0.79315   0.00000  Uiso   1.00
C415   C     0.42229   0.67103   0.59061   0.00000  Uiso   1.00
C416   C     0.48655   0.68293   0.57414   0.00000  Uiso   1.00
C417   C     0.51114   0.70909   0.62017   0.00000  Uiso   1.00
C418   C     0.57077   0.71609   0.59509   0.00000  Uiso   1.00
C419   C     0.66543   0.73738   0.58000   0.00000  Uiso   1.00
C420   C     0.42877   0.63800   0.62999   0.00000  Uiso   1.00
C421   C     0.40476   0.62639   0.72297   0.00000  Uiso   1.00
C422   C     0.41574   0.59556   0.74489   0.00000  Uiso   1.00
C423   C     0.42064   0.54709   0.81647   0.00000  Uiso   1.00
C424   C     0.39415   0.66877   0.48109   0.00000  Uiso   1.00
C425   C     0.34104   0.68302   0.44889   0.00000  Uiso   1.00
C426   C     0.32286   0.67809   0.34546   0.00000  Uiso   1.00
C427   C     0.27402   0.67740   0.18586   0.00000  Uiso   1.00
C428   C     0.48445   0.63692   0.46421   0.00000  Uiso   1.00
C429   C     0.52032   0.66441   0.50549   0.00000  Uiso   1.00
C430   C     0.57992   0.67136   0.48033   0.00000  Uiso   1.00
C431   C     0.60459   0.69753   0.52631   0.00000  Uiso   1.00
C432   C     0.46253   0.61948   0.56134   0.00000  Uiso   1.00
C433   C     0.47354   0.58865   0.58313   0.00000  Uiso   1.00
C434   C     0.44956   0.57700   0.67612   0.00000  Uiso   1.00
C435   C     0.42792   0.65025   0.41244   0.00000  Uiso   1.00
C436   C     0.40981   0.64529   0.30904   0.00000  Uiso   1.00
C437   C     0.35668   0.65953   0.27669   0.00000  Uiso   1.00
H438   H     0.39601   0.68545   0.64406   0.00000  Uiso   1.00
H439   H     0.48500   0.72342   0.67331   0.00000  Uiso   1.00
H440   H     0.37863   0.64073   0.77608   0.00000  Uiso   1.00
H441   H     0.31492   0.69736   0.50204   0.00000  Uiso   1.00
H442   H     0.59857   0.75735   0.67548   0.00000  Uiso   1.00
H443   H     0.37427   0.58299   0.89216   0.00000  Uiso   1.00
H444   H     0.23991   0.70239   0.31430   0.00000  Uiso   1.00
H445   H     0.51074   0.62250   0.41076   0.00000  Uiso   1.00
H446   H     0.60604   0.65702   0.42720   0.00000  Uiso   1.00
H447   H     0.49967   0.57433   0.52998   0.00000  Uiso   1.00
H448   H     0.43595   0.63095   0.25594   0.00000  Uiso   1.00
H449   H     0.69681   0.70345   0.47573   0.00000  Uiso   1.00
H450   H     0.47250   0.52909   0.69242   0.00000  Uiso   1.00
H451   H     0.33815   0.64849   0.11456   0.00000  Uiso   1.00
O452   O     0.70831   0.75424   0.59066   0.00000  Uiso   1.00
O453   O     0.41402   0.52548   0.87493   0.00000  Uiso   1.00
O454   O     0.23776   0.68214   0.11679   0.00000  Uiso   1.00
N455   N     0.60861   0.73993   0.62620   0.00000  Uiso   1.00
N456   N     0.39890   0.57691   0.82879   0.00000  Uiso   1.00
N457   N     0.27329   0.68854   0.28855   0.00000  Uiso   1.00
N458   N     0.66147   0.71093   0.51871   0.00000  Uiso   1.00
N459   N     0.45176   0.54791   0.72131   0.00000  Uiso   1.00
N460   N     0.32615   0.65954   0.18107   0.00000  Uiso   1.00
C461   C     0.43329   0.33264   0.89864   0.00000  Uiso   1.00
C462   C     0.49477   0.31795   0.92012   0.00000  Uiso   1.00
C463   C     0.51865   0.29265   0.86772   0.00000  Uiso   1.00
C464   C     0.57563   0.28271   0.89900   0.00000  Uiso   1.00
C465   C     0.66625   0.25764   0.92004   0.00000  Uiso   1.00
C466   C     0.44589   0.36644   0.87430   0.00000  Uiso   1.00
C467   C     0.42867   0.38192   0.78338   0.00000  Uiso   1.00
C468   C     0.44450   0.41280   0.77610   0.00000  Uiso   1.00
C469   C     0.45920   0.46302   0.72604   0.00000  Uiso   1.00
C470   C     0.39944   0.33227   0.00341   0.00000  Uiso   1.00
C471   C     0.34316   0.31902   0.02105   0.00000  Uiso   1.00
C472   C     0.31987   0.32114   0.12247   0.00000  Uiso   1.00
C473   C     0.26245   0.31830   0.27287   0.00000  Uiso   1.00
C474   C     0.49200   0.35996   0.04739   0.00000  Uiso   1.00
C475   C     0.52666   0.33278   0.00092   0.00000  Uiso   1.00
C476   C     0.58361   0.32287   0.03229   0.00000  Uiso   1.00
C477   C     0.60758   0.29757   0.97995   0.00000  Uiso   1.00
C478   C     0.47778   0.38128   0.95509   0.00000  Uiso   1.00
C479   C     0.49363   0.41214   0.94796   0.00000  Uiso   1.00
C480   C     0.47645   0.42766   0.85704   0.00000  Uiso   1.00
C481   C     0.43133   0.34710   0.08421   0.00000  Uiso   1.00
C482   C     0.40812   0.34924   0.18563   0.00000  Uiso   1.00
C483   C     0.35182   0.33600   0.20342   0.00000  Uiso   1.00
H484   H     0.40846   0.32109   0.83573   0.00000  Uiso   1.00
H485   H     0.49396   0.28118   0.80519   0.00000  Uiso   1.00
H486   H     0.40399   0.37043   0.72087   0.00000  Uiso   1.00
H487   H     0.31849   0.30754   0.95851   0.00000  Uiso   1.00
H488   H     0.60283   0.24347   0.80693   0.00000  Uiso   1.00
H489   H     0.41310   0.43167   0.62916   0.00000  Uiso   1.00
H490   H     0.23281   0.29906   0.13026   0.00000  Uiso   1.00
H491   H     0.51683   0.37151   0.11029   0.00000  Uiso   1.00
H492   H     0.60828   0.33436   0.09482   0.00000  Uiso   1.00
H493   H     0.51831   0.42361   0.01050   0.00000  Uiso   1.00
H494   H     0.43281   0.36073   0.24813   0.00000  Uiso   1.00
H495   H     0.69561   0.28664   0.04200   0.00000  Uiso   1.00
H496   H     0.50589   0.47484   0.86423   0.00000  Uiso   1.00
H497   H     0.32560   0.34222   0.36533   0.00000  Uiso   1.00
O498   O     0.70743   0.23971   0.90931   0.00000  Uiso   1.00
O499   O     0.45851   0.48662   0.67609   0.00000  Uiso   1.00
O500   O     0.22198   0.31264   0.33352   0.00000  Uiso   1.00
N501   N     0.61211   0.25873   0.86439   0.00000  Uiso   1.00
N502   N     0.43473   0.43468   0.69818   0.00000  Uiso   1.00
N503   N     0.26617   0.31071   0.16666   0.00000  Uiso   1.00
N504   N     0.66204   0.28195   0.99088   0.00000  Uiso   1.00
N505   N     0.48466   0.45791   0.82467   0.00000  Uiso   1.00
N506   N     0.31610   0.33393   0.29315   0.00000  Uiso   1.00
C507   C     0.07771   0.32897   0.09061   0.00000  Uiso   1.00
C508   C     0.01345   0.31707   0.07414   0.00000  Uiso   1.00
C509   C     0.98886   0.29091   0.12017   0.00000  Uiso   1.00
C510   C     0.92923   0.28391   0.09509   0.00000  Uiso   1.00
C511   C     0.83457   0.26262   0.08000   0.00000  Uiso   1.00
C512   C     0.07123   0.36200   0.12999   0.00000  Uiso   1.00
C513   C     0.09524   0.37361   0.22297   0.00000  Uiso   1.00
C514   C     0.08426   0.40444   0.24489   0.00000  Uiso   1.00
C515   C     0.07936   0.45291   0.31647   0.00000  Uiso   1.00
C516   C     0.10585   0.33123   0.98109   0.00000  Uiso   1.00
C517   C     0.15896   0.31698   0.94889   0.00000  Uiso   1.00
C518   C     0.17714   0.32191   0.84546   0.00000  Uiso   1.00
C519   C     0.22598   0.32260   0.68586   0.00000  Uiso   1.00
C520   C     0.01555   0.36308   0.96421   0.00000  Uiso   1.00
C521   C     0.97968   0.33559   0.00549   0.00000  Uiso   1.00
C522   C     0.92008   0.32864   0.98033   0.00000  Uiso   1.00
C523   C     0.89541   0.30247   0.02631   0.00000  Uiso   1.00
C524   C     0.03747   0.38052   0.06134   0.00000  Uiso   1.00
C525   C     0.02646   0.41135   0.08313   0.00000  Uiso   1.00
C526   C     0.05044   0.42300   0.17612   0.00000  Uiso   1.00
C527   C     0.07208   0.34975   0.91244   0.00000  Uiso   1.00
C528   C     0.09019   0.35471   0.80904   0.00000  Uiso   1.00
C529   C     0.14332   0.34047   0.77669   0.00000  Uiso   1.00
H530   H     0.10399   0.31455   0.14406   0.00000  Uiso   1.00
H531   H     0.01500   0.27658   0.17331   0.00000  Uiso   1.00
H532   H     0.12137   0.35927   0.27608   0.00000  Uiso   1.00
H533   H     0.18508   0.30264   0.00204   0.00000  Uiso   1.00
H534   H     0.90143   0.24265   0.17548   0.00000  Uiso   1.00
H535   H     0.12573   0.41701   0.39216   0.00000  Uiso   1.00
H536   H     0.26009   0.29761   0.81430   0.00000  Uiso   1.00
H537   H     0.98926   0.37750   0.91076   0.00000  Uiso   1.00
H538   H     0.89396   0.34298   0.92720   0.00000  Uiso   1.00
H539   H     0.00033   0.42567   0.02998   0.00000  Uiso   1.00
H540   H     0.06405   0.36905   0.75594   0.00000  Uiso   1.00
H541   H     0.80319   0.29655   0.97573   0.00000  Uiso   1.00
H542   H     0.02750   0.47091   0.19242   0.00000  Uiso   1.00
H543   H     0.16185   0.35151   0.61456   0.00000  Uiso   1.00
O544   O     0.79169   0.24576   0.09066   0.00000  Uiso   1.00
O545   O     0.08598   0.47452   0.37493   0.00000  Uiso   1.00
O546   O     0.26224   0.31786   0.61679   0.00000  Uiso   1.00
N547   N     0.89139   0.26007   0.12620   0.00000  Uiso   1.00
N548   N     0.10110   0.42309   0.32879   0.00000  Uiso   1.00
N549   N     0.22671   0.31146   0.78855   0.00000  Uiso   1.00
N550   N     0.83853   0.28907   0.01871   0.00000  Uiso   1.00
N551   N     0.04824   0.45209   0.22131   0.00000  Uiso   1.00
N552   N     0.17385   0.34046   0.68107   0.00000  Uiso   1.00
C553   C     0.93329   0.16736   0.10136   0.00000  Uiso   1.00
C554   C     0.99477   0.18205   0.07988   0.00000  Uiso   1.00
C555   C     0.01865   0.20735   0.13228   0.00000  Uiso   1.00
C556   C     0.07563   0.21729   0.10100   0.00000  Uiso   1.00
C557   C     0.16625   0.24236   0.07996   0.00000  Uiso   1.00
C558   C     0.94589   0.13356   0.12570   0.00000  Uiso   1.00
C559   C     0.92867   0.11808   0.21662   0.00000  Uiso   1.00
C560   C     0.94450   0.08720   0.22390   0.00000  Uiso   1.00
C561   C     0.95920   0.03698   0.27396   0.00000  Uiso   1.00
C562   C     0.89944   0.16773   0.99659   0.00000  Uiso   1.00
C563   C     0.84316   0.18098   0.97895   0.00000  Uiso   1.00
C564   C     0.81987   0.17886   0.87753   0.00000  Uiso   1.00
C565   C     0.76245   0.18170   0.72713   0.00000  Uiso   1.00
C566   C     0.99200   0.14004   0.95261   0.00000  Uiso   1.00
C567   C     0.02666   0.16722   0.99908   0.00000  Uiso   1.00
C568   C     0.08361   0.17713   0.96771   0.00000  Uiso   1.00
C569   C     0.10758   0.20243   0.02005   0.00000  Uiso   1.00
C570   C     0.97778   0.11872   0.04491   0.00000  Uiso   1.00
C571   C     0.99363   0.08786   0.05204   0.00000  Uiso   1.00
C572   C     0.97645   0.07234   0.14296   0.00000  Uiso   1.00
C573   C     0.93133   0.15290   0.91579   0.00000  Uiso   1.00
C574   C     0.90812   0.15076   0.81437   0.00000  Uiso   1.00
C575   C     0.85182   0.16400   0.79658   0.00000  Uiso   1.00
H576   H     0.90846   0.17891   0.16427   0.00000  Uiso   1.00
H577   H     0.99396   0.21882   0.19481   0.00000  Uiso   1.00
H578   H     0.90399   0.12957   0.27913   0.00000  Uiso   1.00
H579   H     0.81849   0.19246   0.04149   0.00000  Uiso   1.00
H580   H     0.10283   0.25653   0.19307   0.00000  Uiso   1.00
H581   H     0.91310   0.06833   0.37084   0.00000  Uiso   1.00
H582   H     0.73281   0.20094   0.86974   0.00000  Uiso   1.00
H583   H     0.01683   0.12849   0.88971   0.00000  Uiso   1.00
H584   H     0.10828   0.16564   0.90518   0.00000  Uiso   1.00
H585   H     0.01831   0.07639   0.98950   0.00000  Uiso   1.00
H586   H     0.93281   0.13927   0.75187   0.00000  Uiso   1.00
H587   H     0.19561   0.21336   0.95800   0.00000  Uiso   1.00
H588   H     0.00589   0.02516   0.13577   0.00000  Uiso   1.00
H589   H     0.82560   0.15778   0.63467   0.00000  Uiso   1.00
O590   O     0.20743   0.26029   0.09069   0.00000  Uiso   1.00
O591   O     0.95851   0.01338   0.32391   0.00000  Uiso   1.00
O592   O     0.72198   0.18736   0.66648   0.00000  Uiso   1.00
N593   N     0.11211   0.24127   0.13561   0.00000  Uiso   1.00
N594   N     0.93473   0.06532   0.30182   0.00000  Uiso   1.00
N595   N     0.76617   0.18929   0.83334   0.00000  Uiso   1.00
N596   N     0.16204   0.21805   0.00912   0.00000  Uiso   1.00
N597   N     0.98466   0.04209   0.17533   0.00000  Uiso   1.00
N598   N     0.81610   0.16607   0.70685   0.00000  Uiso   1.00
C599   C     0.57771   0.17103   0.90939   0.00000  Uiso   1.00
C600   C     0.51345   0.18293   0.92586   0.00000  Uiso   1.00
C601   C     0.48886   0.20909   0.87983   0.00000  Uiso   1.00
C602   C     0.42923   0.21609   0.90491   0.00000  Uiso   1.00
C603   C     0.33457   0.23738   0.92000   0.00000  Uiso   1.00
C604   C     0.57123   0.13800   0.87001   0.00000  Uiso   1.00
C605   C     0.59524   0.12639   0.77703   0.00000  Uiso   1.00
C606   C     0.58426   0.09556   0.75511   0.00000  Uiso   1.00
C607   C     0.57936   0.04709   0.68353   0.00000  Uiso   1.00
C608   C     0.60585   0.16877   0.01891   0.00000  Uiso   1.00
C609   C     0.65896   0.18302   0.05111   0.00000  Uiso   1.00
C610   C     0.67714   0.17809   0.15454   0.00000  Uiso   1.00
C611   C     0.72598   0.17740   0.31414   0.00000  Uiso   1.00
C612   C     0.51555   0.13692   0.03579   0.00000  Uiso   1.00
C613   C     0.47968   0.16441   0.99451   0.00000  Uiso   1.00
C614   C     0.42008   0.17136   0.01967   0.00000  Uiso   1.00
C615   C     0.39541   0.19753   0.97369   0.00000  Uiso   1.00
C616   C     0.53747   0.11948   0.93866   0.00000  Uiso   1.00
C617   C     0.52646   0.08865   0.91687   0.00000  Uiso   1.00
C618   C     0.55044   0.07700   0.82388   0.00000  Uiso   1.00
C619   C     0.57208   0.15025   0.08756   0.00000  Uiso   1.00
C620   C     0.59019   0.14529   0.19096   0.00000  Uiso   1.00
C621   C     0.64332   0.15953   0.22331   0.00000  Uiso   1.00
H622   H     0.60399   0.18545   0.85594   0.00000  Uiso   1.00
H623   H     0.51500   0.22342   0.82669   0.00000  Uiso   1.00
H624   H     0.62137   0.14073   0.72392   0.00000  Uiso   1.00
H625   H     0.68508   0.19736   0.99796   0.00000  Uiso   1.00
H626   H     0.40143   0.25735   0.82452   0.00000  Uiso   1.00
H627   H     0.62573   0.08299   0.60784   0.00000  Uiso   1.00
H628   H     0.76009   0.20239   0.18570   0.00000  Uiso   1.00
H629   H     0.48926   0.12250   0.08924   0.00000  Uiso   1.00
H630   H     0.39396   0.15702   0.07280   0.00000  Uiso   1.00
H631   H     0.50033   0.07433   0.97002   0.00000  Uiso   1.00
H632   H     0.56405   0.13095   0.24406   0.00000  Uiso   1.00
H633   H     0.30319   0.20345   0.02427   0.00000  Uiso   1.00
H634   H     0.52750   0.02909   0.80758   0.00000  Uiso   1.00
H635   H     0.66185   0.14849   0.38544   0.00000  Uiso   1.00
O636   O     0.29169   0.25424   0.90934   0.00000  Uiso   1.00
O637   O     0.58598   0.02548   0.62507   0.00000  Uiso   1.00
O638   O     0.76224   0.18214   0.38321   0.00000  Uiso   1.00
N639   N     0.39139   0.23993   0.87380   0.00000  Uiso   1.00
N640   N     0.60110   0.07691   0.67121   0.00000  Uiso   1.00
N641   N     0.72671   0.18854   0.21145   0.00000  Uiso   1.00
N642   N     0.33853   0.21093   0.98129   0.00000  Uiso   1.00
N643   N     0.54824   0.04791   0.77869   0.00000  Uiso   1.00
N644   N     0.67385   0.15954   0.31893   0.00000  Uiso   1.00
C645   C     0.56671   0.83264   0.60136   0.00000  Uiso   1.00
C646   C     0.50523   0.81795   0.57988   0.00000  Uiso   1.00
C647   C     0.48135   0.79265   0.63228   0.00000  Uiso   1.00
C648   C     0.42437   0.78271   0.60100   0.00000  Uiso   1.00
C649   C     0.33375   0.75764   0.57996   0.00000  Uiso   1.00
C650   C     0.55411   0.86644   0.62570   0.00000  Uiso   1.00
C651   C     0.57133   0.88192   0.71662   0.00000  Uiso   1.00
C652   C     0.55550   0.91280   0.72390   0.00000  Uiso   1.00
C653   C     0.54080   0.96302   0.77396   0.00000  Uiso   1.00
C654   C     0.60056   0.83227   0.49659   0.00000  Uiso   1.00
C655   C     0.65684   0.81902   0.47895   0.00000  Uiso   1.00
C656   C     0.68013   0.82114   0.37753   0.00000  Uiso   1.00
C657   C     0.73755   0.81830   0.22713   0.00000  Uiso   1.00
C658   C     0.50800   0.85996   0.45261   0.00000  Uiso   1.00
C659   C     0.47334   0.83278   0.49908   0.00000  Uiso   1.00
C660   C     0.41639   0.82287   0.46771   0.00000  Uiso   1.00
C661   C     0.39242   0.79757   0.52005   0.00000  Uiso   1.00
C662   C     0.52222   0.88128   0.54491   0.00000  Uiso   1.00
C663   C     0.50637   0.91214   0.55204   0.00000  Uiso   1.00
C664   C     0.52355   0.92766   0.64296   0.00000  Uiso   1.00
C665   C     0.56867   0.84710   0.41579   0.00000  Uiso   1.00
C666   C     0.59188   0.84924   0.31437   0.00000  Uiso   1.00
C667   C     0.64818   0.83600   0.29658   0.00000  Uiso   1.00
H668   H     0.59154   0.82109   0.66427   0.00000  Uiso   1.00
H669   H     0.50604   0.78118   0.69481   0.00000  Uiso   1.00
H670   H     0.59601   0.87043   0.77913   0.00000  Uiso   1.00
H671   H     0.68151   0.80754   0.54149   0.00000  Uiso   1.00
H672   H     0.39717   0.74347   0.69307   0.00000  Uiso   1.00
H673   H     0.58690   0.93167   0.87084   0.00000  Uiso   1.00
H674   H     0.76719   0.79906   0.36974   0.00000  Uiso   1.00
H675   H     0.48317   0.87151   0.38971   0.00000  Uiso   1.00
H676   H     0.39172   0.83436   0.40518   0.00000  Uiso   1.00
H677   H     0.48169   0.92361   0.48950   0.00000  Uiso   1.00
H678   H     0.56719   0.86073   0.25187   0.00000  Uiso   1.00
H679   H     0.30439   0.78664   0.45800   0.00000  Uiso   1.00
H680   H     0.49411   0.97484   0.63577   0.00000  Uiso   1.00
H681   H     0.67440   0.84222   0.13467   0.00000  Uiso   1.00
O682   O     0.29257   0.73971   0.59069   0.00000  Uiso   1.00
O683   O     0.54149   0.98662   0.82391   0.00000  Uiso   1.00
O684   O     0.77802   0.81264   0.16648   0.00000  Uiso   1.00
N685   N     0.38789   0.75873   0.63561   0.00000  Uiso   1.00
N686   N     0.56527   0.93468   0.80182   0.00000  Uiso   1.00
N687   N     0.73383   0.81071   0.33334   0.00000  Uiso   1.00
N688   N     0.33796   0.78195   0.50912   0.00000  Uiso   1.00
N689   N     0.51534   0.95791   0.67533   0.00000  Uiso   1.00
N690   N     0.68390   0.83393   0.20685   0.00000  Uiso   1.00
C691   C     0.92229   0.82897   0.40939   0.00000  Uiso   1.00
C692   C     0.98655   0.81707   0.42586   0.00000  Uiso   1.00
C693   C     0.01114   0.79091   0.37983   0.00000  Uiso   1.00
C694   C     0.07077   0.78391   0.40491   0.00000  Uiso   1.00
C695   C     0.16543   0.76262   0.42000   0.00000  Uiso   1.00
C696   C     0.92877   0.86200   0.37001   0.00000  Uiso   1.00
C697   C     0.90476   0.87361   0.27703   0.00000  Uiso   1.00
C698   C     0.91574   0.90444   0.25511   0.00000  Uiso   1.00
C699   C     0.92064   0.95291   0.18353   0.00000  Uiso   1.00
C700   C     0.89415   0.83123   0.51891   0.00000  Uiso   1.00
C701   C     0.84104   0.81698   0.55111   0.00000  Uiso   1.00
C702   C     0.82286   0.82191   0.65454   0.00000  Uiso   1.00
C703   C     0.77402   0.82260   0.81414   0.00000  Uiso   1.00
C704   C     0.98445   0.86308   0.53579   0.00000  Uiso   1.00
C705   C     0.02032   0.83559   0.49451   0.00000  Uiso   1.00
C706   C     0.07992   0.82864   0.51967   0.00000  Uiso   1.00
C707   C     0.10459   0.80247   0.47369   0.00000  Uiso   1.00
C708   C     0.96253   0.88052   0.43866   0.00000  Uiso   1.00
C709   C     0.97354   0.91135   0.41687   0.00000  Uiso   1.00
C710   C     0.94956   0.92300   0.32388   0.00000  Uiso   1.00
C711   C     0.92792   0.84975   0.58756   0.00000  Uiso   1.00
C712   C     0.90981   0.85471   0.69096   0.00000  Uiso   1.00
C713   C     0.85668   0.84047   0.72331   0.00000  Uiso   1.00
H714   H     0.89601   0.81455   0.35594   0.00000  Uiso   1.00
H715   H     0.98500   0.77658   0.32669   0.00000  Uiso   1.00
H716   H     0.87863   0.85927   0.22392   0.00000  Uiso   1.00
H717   H     0.81492   0.80264   0.49796   0.00000  Uiso   1.00
H718   H     0.09857   0.74265   0.32452   0.00000  Uiso   1.00
H719   H     0.87427   0.91701   0.10784   0.00000  Uiso   1.00
H720   H     0.73991   0.79761   0.68570   0.00000  Uiso   1.00
H721   H     0.01074   0.87750   0.58924   0.00000  Uiso   1.00
H722   H     0.10604   0.84298   0.57280   0.00000  Uiso   1.00
H723   H     0.99967   0.92567   0.47002   0.00000  Uiso   1.00
H724   H     0.93595   0.86905   0.74406   0.00000  Uiso   1.00
H725   H     0.19681   0.79655   0.52427   0.00000  Uiso   1.00
H726   H     0.97250   0.97091   0.30758   0.00000  Uiso   1.00
H727   H     0.83815   0.85151   0.88544   0.00000  Uiso   1.00
O728   O     0.20831   0.74576   0.40934   0.00000  Uiso   1.00
O729   O     0.91402   0.97452   0.12507   0.00000  Uiso   1.00
O730   O     0.73776   0.81786   0.88321   0.00000  Uiso   1.00
N731   N     0.10861   0.76007   0.37380   0.00000  Uiso   1.00
N732   N     0.89890   0.92309   0.17121   0.00000  Uiso   1.00
N733   N     0.77329   0.81146   0.71145   0.00000  Uiso   1.00
N734   N     0.16147   0.78907   0.48129   0.00000  Uiso   1.00
N735   N     0.95176   0.95209   0.27869   0.00000  Uiso   1.00
N736   N     0.82615   0.84046   0.81893   0.00000  Uiso   1.00
