data_job_06687
_audit_creation_date              2018-12-19
_audit_creation_method            'Materials Studio'
_symmetry_space_group_name_H-M    'P1'
_symmetry_Int_Tables_number       1
_symmetry_cell_setting            triclinic
loop_
_symmetry_equiv_pos_as_xyz
  x,y,z
_cell_length_a                    31.4668
_cell_length_b                    31.4668
_cell_length_c                    29.7426
_cell_angle_alpha                 90.0000
_cell_angle_beta                  90.0000
_cell_angle_gamma                 120.0000
loop_
_atom_site_label
_atom_site_type_symbol
_atom_site_fract_x
_atom_site_fract_y
_atom_site_fract_z
_atom_site_U_iso_or_equiv
_atom_site_adp_type
_atom_site_occupancy
C1     C     0.97392   0.22331   0.12858   0.00000  Uiso   1.00
C2     C     0.98378   0.22695   0.07813   0.00000  Uiso   1.00
C3     C     0.97540   0.25575   0.04812   0.00000  Uiso   1.00
C4     C     0.98682   0.25399   0.00332   0.00000  Uiso   1.00
C5     C     0.99919   0.26412   0.92714   0.00000  Uiso   1.00
C6     C     0.93958   0.16902   0.13840   0.00000  Uiso   1.00
C7     C     0.89404   0.14911   0.15907   0.00000  Uiso   1.00
C8     C     0.86825   0.09857   0.16500   0.00000  Uiso   1.00
C9     C     0.81201   0.01876   0.18242   0.00000  Uiso   1.00
C10    C     0.02251   0.23672   0.15126   0.00000  Uiso   1.00
C11    C     0.04669   0.27372   0.18275   0.00000  Uiso   1.00
C12    C     0.09072   0.28017   0.19952   0.00000  Uiso   1.00
C13    C     0.16325   0.30547   0.23691   0.00000  Uiso   1.00
C14    C     0.00909   0.16898   0.10238   0.00000  Uiso   1.00
C15    C     0.00288   0.19744   0.06390   0.00000  Uiso   1.00
C16    C     0.01431   0.19563   0.01913   0.00000  Uiso   1.00
C17    C     0.00596   0.22442   0.98906   0.00000  Uiso   1.00
C18    C     0.95868   0.13951   0.12416   0.00000  Uiso   1.00
C19    C     0.93295   0.08899   0.13007   0.00000  Uiso   1.00
C20    C     0.88738   0.06901   0.15074   0.00000  Uiso   1.00
C21    C     0.04161   0.20721   0.13702   0.00000  Uiso   1.00
C22    C     0.08561   0.21360   0.15375   0.00000  Uiso   1.00
C23    C     0.10986   0.25061   0.18526   0.00000  Uiso   1.00
H24    H     0.95905   0.24628   0.13966   0.00000  Uiso   1.00
H25    H     0.96061   0.27858   0.05915   0.00000  Uiso   1.00
H26    H     0.87927   0.17196   0.17008   0.00000  Uiso   1.00
H27    H     0.03190   0.29655   0.19376   0.00000  Uiso   1.00
H28    H     0.97076   0.30136   0.96361   0.00000  Uiso   1.00
H29    H     0.79924   0.07654   0.19752   0.00000  Uiso   1.00
H30    H     0.12110   0.33926   0.24745   0.00000  Uiso   1.00
H31    H     0.02397   0.14600   0.09129   0.00000  Uiso   1.00
H32    H     0.02910   0.17279   0.00812   0.00000  Uiso   1.00
H33    H     0.94775   0.06617   0.11906   0.00000  Uiso   1.00
H34    H     0.10038   0.19076   0.14273   0.00000  Uiso   1.00
H35    H     0.02634   0.21549   0.92219   0.00000  Uiso   1.00
H36    H     0.85482   0.99067   0.15611   0.00000  Uiso   1.00
H37    H     0.17668   0.25340   0.20604   0.00000  Uiso   1.00
O38    O     0.00074   0.27785   0.88906   0.00000  Uiso   1.00
O39    O     0.77571   0.98290   0.19596   0.00000  Uiso   1.00
O40    O     0.19798   0.32758   0.26146   0.00000  Uiso   1.00
N41    N     0.98314   0.27748   0.96528   0.00000  Uiso   1.00
N42    N     0.82278   0.06728   0.18397   0.00000  Uiso   1.00
N43    N     0.12368   0.31290   0.23066   0.00000  Uiso   1.00
N44    N     0.01305   0.23128   0.94299   0.00000  Uiso   1.00
N45    N     0.85269   0.02108   0.16168   0.00000  Uiso   1.00
N46    N     0.15359   0.26670   0.20837   0.00000  Uiso   1.00
C47    C     0.64059   0.55664   0.46191   0.00000  Uiso   1.00
C48    C     0.65045   0.56029   0.41146   0.00000  Uiso   1.00
C49    C     0.64207   0.58908   0.38146   0.00000  Uiso   1.00
C50    C     0.65348   0.58732   0.33665   0.00000  Uiso   1.00
C51    C     0.66586   0.59745   0.26048   0.00000  Uiso   1.00
C52    C     0.60624   0.50235   0.47173   0.00000  Uiso   1.00
C53    C     0.56070   0.48244   0.49240   0.00000  Uiso   1.00
C54    C     0.53491   0.43191   0.49834   0.00000  Uiso   1.00
C55    C     0.47868   0.35210   0.51576   0.00000  Uiso   1.00
C56    C     0.68918   0.57005   0.48459   0.00000  Uiso   1.00
C57    C     0.71336   0.60705   0.51608   0.00000  Uiso   1.00
C58    C     0.75739   0.61351   0.53286   0.00000  Uiso   1.00
C59    C     0.82992   0.63881   0.57024   0.00000  Uiso   1.00
C60    C     0.67576   0.50231   0.43571   0.00000  Uiso   1.00
C61    C     0.66955   0.53077   0.39723   0.00000  Uiso   1.00
C62    C     0.68098   0.52897   0.35246   0.00000  Uiso   1.00
C63    C     0.67262   0.55776   0.32239   0.00000  Uiso   1.00
C64    C     0.62535   0.47284   0.45750   0.00000  Uiso   1.00
C65    C     0.59962   0.42233   0.46341   0.00000  Uiso   1.00
C66    C     0.55405   0.40234   0.48408   0.00000  Uiso   1.00
C67    C     0.70828   0.54054   0.47036   0.00000  Uiso   1.00
C68    C     0.75227   0.54694   0.48709   0.00000  Uiso   1.00
C69    C     0.77652   0.58394   0.51860   0.00000  Uiso   1.00
H70    H     0.62572   0.57962   0.47300   0.00000  Uiso   1.00
H71    H     0.62728   0.61191   0.39248   0.00000  Uiso   1.00
H72    H     0.54593   0.50529   0.50341   0.00000  Uiso   1.00
H73    H     0.69857   0.62988   0.52709   0.00000  Uiso   1.00
H74    H     0.63742   0.63469   0.29694   0.00000  Uiso   1.00
H75    H     0.46591   0.40987   0.53086   0.00000  Uiso   1.00
H76    H     0.78776   0.67259   0.58079   0.00000  Uiso   1.00
H77    H     0.69063   0.47933   0.42463   0.00000  Uiso   1.00
H78    H     0.69576   0.50613   0.34146   0.00000  Uiso   1.00
H79    H     0.61441   0.39950   0.45239   0.00000  Uiso   1.00
H80    H     0.76705   0.52409   0.47607   0.00000  Uiso   1.00
H81    H     0.69300   0.54883   0.25553   0.00000  Uiso   1.00
H82    H     0.52148   0.32401   0.48945   0.00000  Uiso   1.00
H83    H     0.84334   0.58673   0.53937   0.00000  Uiso   1.00
O84    O     0.66740   0.61118   0.22239   0.00000  Uiso   1.00
O85    O     0.44238   0.31623   0.52929   0.00000  Uiso   1.00
O86    O     0.86465   0.66092   0.59479   0.00000  Uiso   1.00
N87    N     0.64981   0.61081   0.29861   0.00000  Uiso   1.00
N88    N     0.48945   0.40062   0.51730   0.00000  Uiso   1.00
N89    N     0.79035   0.64623   0.56399   0.00000  Uiso   1.00
N90    N     0.67972   0.56461   0.27632   0.00000  Uiso   1.00
N91    N     0.51935   0.35442   0.49502   0.00000  Uiso   1.00
N92    N     0.82026   0.60003   0.54170   0.00000  Uiso   1.00
C93    C     0.30726   0.88998   0.79525   0.00000  Uiso   1.00
C94    C     0.31711   0.89362   0.74480   0.00000  Uiso   1.00
C95    C     0.30874   0.92242   0.71479   0.00000  Uiso   1.00
C96    C     0.32015   0.92065   0.66999   0.00000  Uiso   1.00
C97    C     0.33253   0.93078   0.59381   0.00000  Uiso   1.00
C98    C     0.27291   0.83569   0.80506   0.00000  Uiso   1.00
C99    C     0.22737   0.81577   0.82573   0.00000  Uiso   1.00
C100   C     0.20158   0.76524   0.83167   0.00000  Uiso   1.00
C101   C     0.14535   0.68543   0.84909   0.00000  Uiso   1.00
C102   C     0.35584   0.90338   0.81792   0.00000  Uiso   1.00
C103   C     0.38003   0.94038   0.84942   0.00000  Uiso   1.00
C104   C     0.42405   0.94684   0.86619   0.00000  Uiso   1.00
C105   C     0.49658   0.97214   0.90358   0.00000  Uiso   1.00
C106   C     0.34243   0.83564   0.76904   0.00000  Uiso   1.00
C107   C     0.33622   0.86411   0.73056   0.00000  Uiso   1.00
C108   C     0.34765   0.86230   0.68580   0.00000  Uiso   1.00
C109   C     0.33929   0.89109   0.65573   0.00000  Uiso   1.00
C110   C     0.29201   0.80617   0.79083   0.00000  Uiso   1.00
C111   C     0.26628   0.75566   0.79674   0.00000  Uiso   1.00
C112   C     0.22072   0.73568   0.81741   0.00000  Uiso   1.00
C113   C     0.37495   0.87387   0.80369   0.00000  Uiso   1.00
C114   C     0.41894   0.88027   0.82042   0.00000  Uiso   1.00
C115   C     0.44319   0.91727   0.85193   0.00000  Uiso   1.00
H116   H     0.29238   0.91295   0.80633   0.00000  Uiso   1.00
H117   H     0.29395   0.94525   0.72582   0.00000  Uiso   1.00
H118   H     0.21260   0.83862   0.83675   0.00000  Uiso   1.00
H119   H     0.36523   0.96321   0.86042   0.00000  Uiso   1.00
H120   H     0.30409   0.96802   0.63027   0.00000  Uiso   1.00
H121   H     0.13257   0.74320   0.86419   0.00000  Uiso   1.00
H122   H     0.45443   0.00593   0.91412   0.00000  Uiso   1.00
H123   H     0.35730   0.81266   0.75796   0.00000  Uiso   1.00
H124   H     0.36243   0.83946   0.67479   0.00000  Uiso   1.00
H125   H     0.28108   0.73283   0.78572   0.00000  Uiso   1.00
H126   H     0.43371   0.85742   0.80940   0.00000  Uiso   1.00
H127   H     0.35967   0.88216   0.58886   0.00000  Uiso   1.00
H128   H     0.18815   0.65734   0.82278   0.00000  Uiso   1.00
H129   H     0.51001   0.92006   0.87271   0.00000  Uiso   1.00
O130   O     0.33407   0.94452   0.55573   0.00000  Uiso   1.00
O131   O     0.10905   0.64956   0.86262   0.00000  Uiso   1.00
O132   O     0.53132   0.99425   0.92813   0.00000  Uiso   1.00
N133   N     0.31648   0.94415   0.63194   0.00000  Uiso   1.00
N134   N     0.15611   0.73395   0.85064   0.00000  Uiso   1.00
N135   N     0.45702   0.97957   0.89732   0.00000  Uiso   1.00
N136   N     0.34638   0.89795   0.60966   0.00000  Uiso   1.00
N137   N     0.18602   0.68775   0.82835   0.00000  Uiso   1.00
N138   N     0.48692   0.93337   0.87504   0.00000  Uiso   1.00
C139   C     0.77669   0.75061   0.12858   0.00000  Uiso   1.00
C140   C     0.77305   0.75683   0.07813   0.00000  Uiso   1.00
C141   C     0.74425   0.71965   0.04812   0.00000  Uiso   1.00
C142   C     0.74601   0.73283   0.00332   0.00000  Uiso   1.00
C143   C     0.73588   0.73508   0.92714   0.00000  Uiso   1.00
C144   C     0.83098   0.77056   0.13840   0.00000  Uiso   1.00
C145   C     0.85089   0.74493   0.15907   0.00000  Uiso   1.00
C146   C     0.90143   0.76967   0.16500   0.00000  Uiso   1.00
C147   C     0.98124   0.79325   0.18242   0.00000  Uiso   1.00
C148   C     0.76328   0.78579   0.15126   0.00000  Uiso   1.00
C149   C     0.72628   0.77298   0.18275   0.00000  Uiso   1.00
C150   C     0.71983   0.81055   0.19952   0.00000  Uiso   1.00
C151   C     0.69453   0.85778   0.23691   0.00000  Uiso   1.00
C152   C     0.83102   0.84012   0.10238   0.00000  Uiso   1.00
C153   C     0.80256   0.80544   0.06390   0.00000  Uiso   1.00
C154   C     0.80437   0.81868   0.01913   0.00000  Uiso   1.00
C155   C     0.77558   0.78153   0.98906   0.00000  Uiso   1.00
C156   C     0.86049   0.81917   0.12416   0.00000  Uiso   1.00
C157   C     0.91101   0.84396   0.13007   0.00000  Uiso   1.00
C158   C     0.93099   0.81837   0.15074   0.00000  Uiso   1.00
C159   C     0.79279   0.83441   0.13702   0.00000  Uiso   1.00
C160   C     0.78640   0.87200   0.15375   0.00000  Uiso   1.00
C161   C     0.74939   0.85925   0.18526   0.00000  Uiso   1.00
H162   H     0.75372   0.71276   0.13966   0.00000  Uiso   1.00
H163   H     0.72142   0.68203   0.05915   0.00000  Uiso   1.00
H164   H     0.82804   0.70731   0.17008   0.00000  Uiso   1.00
H165   H     0.70345   0.73535   0.19376   0.00000  Uiso   1.00
H166   H     0.69864   0.66940   0.96361   0.00000  Uiso   1.00
H167   H     0.92346   0.72270   0.19752   0.00000  Uiso   1.00
H168   H     0.66074   0.78184   0.24745   0.00000  Uiso   1.00
H169   H     0.85400   0.87797   0.09129   0.00000  Uiso   1.00
H170   H     0.82721   0.85630   0.00812   0.00000  Uiso   1.00
H171   H     0.93383   0.88158   0.11906   0.00000  Uiso   1.00
H172   H     0.80924   0.90962   0.14273   0.00000  Uiso   1.00
H173   H     0.78451   0.81084   0.92219   0.00000  Uiso   1.00
H174   H     0.00933   0.86415   0.15611   0.00000  Uiso   1.00
H175   H     0.74660   0.92328   0.20604   0.00000  Uiso   1.00
O176   O     0.72215   0.72289   0.88906   0.00000  Uiso   1.00
O177   O     0.01710   0.79282   0.19596   0.00000  Uiso   1.00
O178   O     0.67242   0.87040   0.26146   0.00000  Uiso   1.00
N179   N     0.72252   0.70566   0.96528   0.00000  Uiso   1.00
N180   N     0.93272   0.75550   0.18397   0.00000  Uiso   1.00
N181   N     0.68710   0.81078   0.23066   0.00000  Uiso   1.00
N182   N     0.76872   0.78177   0.94299   0.00000  Uiso   1.00
N183   N     0.97892   0.83160   0.16168   0.00000  Uiso   1.00
N184   N     0.73330   0.88689   0.20837   0.00000  Uiso   1.00
C185   C     0.44336   0.08395   0.46191   0.00000  Uiso   1.00
C186   C     0.43971   0.09016   0.41146   0.00000  Uiso   1.00
C187   C     0.41092   0.05299   0.38146   0.00000  Uiso   1.00
C188   C     0.41268   0.06616   0.33665   0.00000  Uiso   1.00
C189   C     0.40255   0.06841   0.26048   0.00000  Uiso   1.00
C190   C     0.49765   0.10389   0.47173   0.00000  Uiso   1.00
C191   C     0.51756   0.07826   0.49240   0.00000  Uiso   1.00
C192   C     0.56809   0.10300   0.49834   0.00000  Uiso   1.00
C193   C     0.64790   0.12658   0.51576   0.00000  Uiso   1.00
C194   C     0.42995   0.11912   0.48459   0.00000  Uiso   1.00
C195   C     0.39295   0.10631   0.51608   0.00000  Uiso   1.00
C196   C     0.38649   0.14388   0.53286   0.00000  Uiso   1.00
C197   C     0.36119   0.19111   0.57024   0.00000  Uiso   1.00
C198   C     0.49769   0.17345   0.43571   0.00000  Uiso   1.00
C199   C     0.46923   0.13878   0.39723   0.00000  Uiso   1.00
C200   C     0.47103   0.15201   0.35246   0.00000  Uiso   1.00
C201   C     0.44224   0.11487   0.32239   0.00000  Uiso   1.00
C202   C     0.52716   0.15250   0.45750   0.00000  Uiso   1.00
C203   C     0.57767   0.17729   0.46341   0.00000  Uiso   1.00
C204   C     0.59766   0.15171   0.48408   0.00000  Uiso   1.00
C205   C     0.45946   0.16774   0.47036   0.00000  Uiso   1.00
C206   C     0.45306   0.20534   0.48709   0.00000  Uiso   1.00
C207   C     0.41606   0.19258   0.51860   0.00000  Uiso   1.00
H208   H     0.42038   0.04610   0.47300   0.00000  Uiso   1.00
H209   H     0.38809   0.01537   0.39248   0.00000  Uiso   1.00
H210   H     0.49471   0.04064   0.50341   0.00000  Uiso   1.00
H211   H     0.37012   0.06869   0.52709   0.00000  Uiso   1.00
H212   H     0.36531   0.00273   0.29694   0.00000  Uiso   1.00
H213   H     0.59013   0.05604   0.53086   0.00000  Uiso   1.00
H214   H     0.32741   0.11517   0.58079   0.00000  Uiso   1.00
H215   H     0.52067   0.21130   0.42463   0.00000  Uiso   1.00
H216   H     0.49387   0.18964   0.34146   0.00000  Uiso   1.00
H217   H     0.60050   0.21491   0.45239   0.00000  Uiso   1.00
H218   H     0.47591   0.24295   0.47607   0.00000  Uiso   1.00
H219   H     0.45117   0.14418   0.25553   0.00000  Uiso   1.00
H220   H     0.67599   0.19748   0.48945   0.00000  Uiso   1.00
H221   H     0.41327   0.25661   0.53937   0.00000  Uiso   1.00
O222   O     0.38882   0.05622   0.22239   0.00000  Uiso   1.00
O223   O     0.68377   0.12615   0.52929   0.00000  Uiso   1.00
O224   O     0.33908   0.20373   0.59479   0.00000  Uiso   1.00
N225   N     0.38919   0.03900   0.29861   0.00000  Uiso   1.00
N226   N     0.59938   0.08883   0.51730   0.00000  Uiso   1.00
N227   N     0.35377   0.14411   0.56399   0.00000  Uiso   1.00
N228   N     0.43539   0.11511   0.27632   0.00000  Uiso   1.00
N229   N     0.64558   0.16494   0.49502   0.00000  Uiso   1.00
N230   N     0.39997   0.22022   0.54170   0.00000  Uiso   1.00
C231   C     0.11002   0.41728   0.79525   0.00000  Uiso   1.00
C232   C     0.10638   0.42349   0.74480   0.00000  Uiso   1.00
C233   C     0.07758   0.38632   0.71479   0.00000  Uiso   1.00
C234   C     0.07935   0.39950   0.66999   0.00000  Uiso   1.00
C235   C     0.06922   0.40174   0.59381   0.00000  Uiso   1.00
C236   C     0.16431   0.43722   0.80506   0.00000  Uiso   1.00
C237   C     0.18423   0.41160   0.82573   0.00000  Uiso   1.00
C238   C     0.23476   0.43634   0.83167   0.00000  Uiso   1.00
C239   C     0.31457   0.45991   0.84909   0.00000  Uiso   1.00
C240   C     0.09662   0.45246   0.81792   0.00000  Uiso   1.00
C241   C     0.05962   0.43964   0.84942   0.00000  Uiso   1.00
C242   C     0.05316   0.47721   0.86619   0.00000  Uiso   1.00
C243   C     0.02786   0.52444   0.90358   0.00000  Uiso   1.00
C244   C     0.16436   0.50678   0.76904   0.00000  Uiso   1.00
C245   C     0.13589   0.47211   0.73056   0.00000  Uiso   1.00
C246   C     0.13770   0.48535   0.68580   0.00000  Uiso   1.00
C247   C     0.10891   0.44820   0.65573   0.00000  Uiso   1.00
C248   C     0.19383   0.48584   0.79083   0.00000  Uiso   1.00
C249   C     0.24434   0.51062   0.79674   0.00000  Uiso   1.00
C250   C     0.26432   0.48504   0.81741   0.00000  Uiso   1.00
C251   C     0.12613   0.50107   0.80369   0.00000  Uiso   1.00
C252   C     0.11973   0.53867   0.82042   0.00000  Uiso   1.00
C253   C     0.08273   0.52592   0.85193   0.00000  Uiso   1.00
H254   H     0.08705   0.37943   0.80633   0.00000  Uiso   1.00
H255   H     0.05475   0.34870   0.72582   0.00000  Uiso   1.00
H256   H     0.16138   0.37398   0.83675   0.00000  Uiso   1.00
H257   H     0.03679   0.40202   0.86042   0.00000  Uiso   1.00
H258   H     0.03198   0.33607   0.63027   0.00000  Uiso   1.00
H259   H     0.25680   0.38937   0.86419   0.00000  Uiso   1.00
H260   H     0.99407   0.44850   0.91412   0.00000  Uiso   1.00
H261   H     0.18734   0.54464   0.75796   0.00000  Uiso   1.00
H262   H     0.16054   0.52297   0.67479   0.00000  Uiso   1.00
H263   H     0.26717   0.54825   0.78572   0.00000  Uiso   1.00
H264   H     0.14258   0.57629   0.80940   0.00000  Uiso   1.00
H265   H     0.11784   0.47751   0.58886   0.00000  Uiso   1.00
H266   H     0.34266   0.53081   0.82278   0.00000  Uiso   1.00
H267   H     0.07994   0.58995   0.87271   0.00000  Uiso   1.00
O268   O     0.05548   0.38955   0.55573   0.00000  Uiso   1.00
O269   O     0.35044   0.45949   0.86262   0.00000  Uiso   1.00
O270   O     0.00575   0.53707   0.92813   0.00000  Uiso   1.00
N271   N     0.05585   0.37233   0.63194   0.00000  Uiso   1.00
N272   N     0.26605   0.42216   0.85064   0.00000  Uiso   1.00
N273   N     0.02043   0.47745   0.89732   0.00000  Uiso   1.00
N274   N     0.10205   0.44844   0.60966   0.00000  Uiso   1.00
N275   N     0.31225   0.49827   0.82835   0.00000  Uiso   1.00
N276   N     0.06663   0.55356   0.87504   0.00000  Uiso   1.00
C277   C     0.24939   0.02608   0.12858   0.00000  Uiso   1.00
C278   C     0.24317   0.01622   0.07813   0.00000  Uiso   1.00
C279   C     0.28035   0.02460   0.04812   0.00000  Uiso   1.00
C280   C     0.26717   0.01318   0.00332   0.00000  Uiso   1.00
C281   C     0.26492   0.00081   0.92714   0.00000  Uiso   1.00
C282   C     0.22944   0.06042   0.13840   0.00000  Uiso   1.00
C283   C     0.25507   0.10596   0.15907   0.00000  Uiso   1.00
C284   C     0.23033   0.13175   0.16500   0.00000  Uiso   1.00
C285   C     0.20675   0.18799   0.18242   0.00000  Uiso   1.00
C286   C     0.21421   0.97749   0.15126   0.00000  Uiso   1.00
C287   C     0.22702   0.95331   0.18275   0.00000  Uiso   1.00
C288   C     0.18945   0.90928   0.19952   0.00000  Uiso   1.00
C289   C     0.14222   0.83675   0.23691   0.00000  Uiso   1.00
C290   C     0.15988   0.99091   0.10238   0.00000  Uiso   1.00
C291   C     0.19456   0.99712   0.06390   0.00000  Uiso   1.00
C292   C     0.18132   0.98569   0.01913   0.00000  Uiso   1.00
C293   C     0.21847   0.99404   0.98906   0.00000  Uiso   1.00
C294   C     0.18083   0.04132   0.12416   0.00000  Uiso   1.00
C295   C     0.15604   0.06705   0.13007   0.00000  Uiso   1.00
C296   C     0.18163   0.11262   0.15074   0.00000  Uiso   1.00
C297   C     0.16559   0.95839   0.13702   0.00000  Uiso   1.00
C298   C     0.12800   0.91439   0.15375   0.00000  Uiso   1.00
C299   C     0.14075   0.89014   0.18526   0.00000  Uiso   1.00
H300   H     0.28724   0.04095   0.13966   0.00000  Uiso   1.00
H301   H     0.31797   0.03939   0.05915   0.00000  Uiso   1.00
H302   H     0.29269   0.12073   0.17008   0.00000  Uiso   1.00
H303   H     0.26465   0.96810   0.19376   0.00000  Uiso   1.00
H304   H     0.33060   0.02924   0.96361   0.00000  Uiso   1.00
H305   H     0.27730   0.20076   0.19752   0.00000  Uiso   1.00
H306   H     0.21816   0.87890   0.24745   0.00000  Uiso   1.00
H307   H     0.12203   0.97603   0.09129   0.00000  Uiso   1.00
H308   H     0.14370   0.97090   0.00812   0.00000  Uiso   1.00
H309   H     0.11842   0.05225   0.11906   0.00000  Uiso   1.00
H310   H     0.09038   0.89962   0.14273   0.00000  Uiso   1.00
H311   H     0.18916   0.97366   0.92219   0.00000  Uiso   1.00
H312   H     0.13585   0.14518   0.15611   0.00000  Uiso   1.00
H313   H     0.07672   0.82332   0.20604   0.00000  Uiso   1.00
O314   O     0.27711   0.99926   0.88906   0.00000  Uiso   1.00
O315   O     0.20718   0.22429   0.19596   0.00000  Uiso   1.00
O316   O     0.12960   0.80202   0.26146   0.00000  Uiso   1.00
N317   N     0.29434   0.01686   0.96528   0.00000  Uiso   1.00
N318   N     0.24450   0.17722   0.18397   0.00000  Uiso   1.00
N319   N     0.18922   0.87632   0.23066   0.00000  Uiso   1.00
N320   N     0.21823   0.98695   0.94299   0.00000  Uiso   1.00
N321   N     0.16840   0.14731   0.16168   0.00000  Uiso   1.00
N322   N     0.11311   0.84641   0.20837   0.00000  Uiso   1.00
C323   C     0.91605   0.35941   0.46191   0.00000  Uiso   1.00
C324   C     0.90984   0.34955   0.41146   0.00000  Uiso   1.00
C325   C     0.94701   0.35793   0.38146   0.00000  Uiso   1.00
C326   C     0.93384   0.34652   0.33665   0.00000  Uiso   1.00
C327   C     0.93159   0.33414   0.26048   0.00000  Uiso   1.00
C328   C     0.89611   0.39376   0.47173   0.00000  Uiso   1.00
C329   C     0.92174   0.43930   0.49240   0.00000  Uiso   1.00
C330   C     0.89700   0.46509   0.49834   0.00000  Uiso   1.00
C331   C     0.87342   0.52132   0.51576   0.00000  Uiso   1.00
C332   C     0.88088   0.31082   0.48459   0.00000  Uiso   1.00
C333   C     0.89369   0.28664   0.51608   0.00000  Uiso   1.00
C334   C     0.85612   0.24261   0.53286   0.00000  Uiso   1.00
C335   C     0.80889   0.17008   0.57024   0.00000  Uiso   1.00
C336   C     0.82655   0.32424   0.43571   0.00000  Uiso   1.00
C337   C     0.86122   0.33045   0.39723   0.00000  Uiso   1.00
C338   C     0.84799   0.31902   0.35246   0.00000  Uiso   1.00
C339   C     0.88513   0.32738   0.32239   0.00000  Uiso   1.00
C340   C     0.84750   0.37465   0.45750   0.00000  Uiso   1.00
C341   C     0.82271   0.40038   0.46341   0.00000  Uiso   1.00
C342   C     0.84829   0.44595   0.48408   0.00000  Uiso   1.00
C343   C     0.83226   0.29172   0.47036   0.00000  Uiso   1.00
C344   C     0.79466   0.24773   0.48709   0.00000  Uiso   1.00
C345   C     0.80742   0.22348   0.51860   0.00000  Uiso   1.00
H346   H     0.95390   0.37428   0.47300   0.00000  Uiso   1.00
H347   H     0.98463   0.37272   0.39248   0.00000  Uiso   1.00
H348   H     0.95936   0.45407   0.50341   0.00000  Uiso   1.00
H349   H     0.93131   0.30143   0.52709   0.00000  Uiso   1.00
H350   H     0.99727   0.36258   0.29694   0.00000  Uiso   1.00
H351   H     0.94396   0.53409   0.53086   0.00000  Uiso   1.00
H352   H     0.88483   0.21224   0.58079   0.00000  Uiso   1.00
H353   H     0.78870   0.30937   0.42463   0.00000  Uiso   1.00
H354   H     0.81036   0.30424   0.34146   0.00000  Uiso   1.00
H355   H     0.78509   0.38559   0.45239   0.00000  Uiso   1.00
H356   H     0.75705   0.23295   0.47607   0.00000  Uiso   1.00
H357   H     0.85582   0.30700   0.25553   0.00000  Uiso   1.00
H358   H     0.80252   0.47852   0.48945   0.00000  Uiso   1.00
H359   H     0.74339   0.15666   0.53937   0.00000  Uiso   1.00
O360   O     0.94378   0.33260   0.22239   0.00000  Uiso   1.00
O361   O     0.87385   0.55762   0.52929   0.00000  Uiso   1.00
O362   O     0.79627   0.13535   0.59479   0.00000  Uiso   1.00
N363   N     0.96100   0.35019   0.29861   0.00000  Uiso   1.00
N364   N     0.91117   0.51055   0.51730   0.00000  Uiso   1.00
N365   N     0.85589   0.20965   0.56399   0.00000  Uiso   1.00
N366   N     0.88489   0.32028   0.27632   0.00000  Uiso   1.00
N367   N     0.83506   0.48065   0.49502   0.00000  Uiso   1.00
N368   N     0.77978   0.17974   0.54170   0.00000  Uiso   1.00
C369   C     0.58272   0.69274   0.79525   0.00000  Uiso   1.00
C370   C     0.57651   0.68289   0.74480   0.00000  Uiso   1.00
C371   C     0.61368   0.69126   0.71479   0.00000  Uiso   1.00
C372   C     0.60050   0.67985   0.66999   0.00000  Uiso   1.00
C373   C     0.59826   0.66747   0.59381   0.00000  Uiso   1.00
C374   C     0.56278   0.72709   0.80506   0.00000  Uiso   1.00
C375   C     0.58840   0.77263   0.82573   0.00000  Uiso   1.00
C376   C     0.56366   0.79842   0.83167   0.00000  Uiso   1.00
C377   C     0.54009   0.85465   0.84909   0.00000  Uiso   1.00
C378   C     0.54754   0.64416   0.81792   0.00000  Uiso   1.00
C379   C     0.56036   0.61997   0.84942   0.00000  Uiso   1.00
C380   C     0.52279   0.57595   0.86619   0.00000  Uiso   1.00
C381   C     0.47556   0.50342   0.90358   0.00000  Uiso   1.00
C382   C     0.49322   0.65757   0.76904   0.00000  Uiso   1.00
C383   C     0.52789   0.66378   0.73056   0.00000  Uiso   1.00
C384   C     0.51465   0.65235   0.68580   0.00000  Uiso   1.00
C385   C     0.55180   0.66071   0.65573   0.00000  Uiso   1.00
C386   C     0.51416   0.70799   0.79083   0.00000  Uiso   1.00
C387   C     0.48938   0.73372   0.79674   0.00000  Uiso   1.00
C388   C     0.51496   0.77928   0.81741   0.00000  Uiso   1.00
C389   C     0.49893   0.62505   0.80369   0.00000  Uiso   1.00
C390   C     0.46133   0.58106   0.82042   0.00000  Uiso   1.00
C391   C     0.47408   0.55681   0.85193   0.00000  Uiso   1.00
H392   H     0.62057   0.70762   0.80633   0.00000  Uiso   1.00
H393   H     0.65130   0.70605   0.72582   0.00000  Uiso   1.00
H394   H     0.62602   0.78740   0.83675   0.00000  Uiso   1.00
H395   H     0.59798   0.63477   0.86042   0.00000  Uiso   1.00
H396   H     0.66393   0.69591   0.63027   0.00000  Uiso   1.00
H397   H     0.61063   0.86743   0.86419   0.00000  Uiso   1.00
H398   H     0.55150   0.54557   0.91412   0.00000  Uiso   1.00
H399   H     0.45536   0.64270   0.75796   0.00000  Uiso   1.00
H400   H     0.47703   0.63757   0.67479   0.00000  Uiso   1.00
H401   H     0.45175   0.71892   0.78572   0.00000  Uiso   1.00
H402   H     0.42371   0.56629   0.80940   0.00000  Uiso   1.00
H403   H     0.52249   0.64033   0.58886   0.00000  Uiso   1.00
H404   H     0.46919   0.81185   0.82278   0.00000  Uiso   1.00
H405   H     0.41005   0.48999   0.87271   0.00000  Uiso   1.00
O406   O     0.61045   0.66593   0.55573   0.00000  Uiso   1.00
O407   O     0.54051   0.89095   0.86262   0.00000  Uiso   1.00
O408   O     0.46293   0.46868   0.92813   0.00000  Uiso   1.00
N409   N     0.62767   0.68352   0.63194   0.00000  Uiso   1.00
N410   N     0.57784   0.84389   0.85064   0.00000  Uiso   1.00
N411   N     0.52255   0.54298   0.89732   0.00000  Uiso   1.00
N412   N     0.55156   0.65362   0.60966   0.00000  Uiso   1.00
N413   N     0.50173   0.81398   0.82835   0.00000  Uiso   1.00
N414   N     0.44644   0.51308   0.87504   0.00000  Uiso   1.00
C415   C     0.22331   0.97392   0.37142   0.00000  Uiso   1.00
C416   C     0.22695   0.98378   0.42187   0.00000  Uiso   1.00
C417   C     0.25575   0.97540   0.45188   0.00000  Uiso   1.00
C418   C     0.25399   0.98682   0.49668   0.00000  Uiso   1.00
C419   C     0.26412   0.99919   0.57286   0.00000  Uiso   1.00
C420   C     0.16902   0.93958   0.36160   0.00000  Uiso   1.00
C421   C     0.14911   0.89404   0.34093   0.00000  Uiso   1.00
C422   C     0.09857   0.86825   0.33500   0.00000  Uiso   1.00
C423   C     0.01876   0.81201   0.31758   0.00000  Uiso   1.00
C424   C     0.23672   0.02251   0.34874   0.00000  Uiso   1.00
C425   C     0.27372   0.04669   0.31725   0.00000  Uiso   1.00
C426   C     0.28017   0.09072   0.30048   0.00000  Uiso   1.00
C427   C     0.30547   0.16325   0.26309   0.00000  Uiso   1.00
C428   C     0.16898   0.00909   0.39762   0.00000  Uiso   1.00
C429   C     0.19744   0.00288   0.43610   0.00000  Uiso   1.00
C430   C     0.19563   0.01431   0.48087   0.00000  Uiso   1.00
C431   C     0.22442   0.00596   0.51094   0.00000  Uiso   1.00
C432   C     0.13951   0.95868   0.37584   0.00000  Uiso   1.00
C433   C     0.08899   0.93295   0.36993   0.00000  Uiso   1.00
C434   C     0.06901   0.88738   0.34926   0.00000  Uiso   1.00
C435   C     0.20721   0.04161   0.36298   0.00000  Uiso   1.00
C436   C     0.21360   0.08561   0.34625   0.00000  Uiso   1.00
C437   C     0.25061   0.10986   0.31474   0.00000  Uiso   1.00
H438   H     0.24628   0.95905   0.36034   0.00000  Uiso   1.00
H439   H     0.27858   0.96061   0.44085   0.00000  Uiso   1.00
H440   H     0.17196   0.87927   0.32992   0.00000  Uiso   1.00
H441   H     0.29655   0.03190   0.30624   0.00000  Uiso   1.00
H442   H     0.30136   0.97076   0.53639   0.00000  Uiso   1.00
H443   H     0.07654   0.79924   0.30248   0.00000  Uiso   1.00
H444   H     0.33926   0.12110   0.25255   0.00000  Uiso   1.00
H445   H     0.14600   0.02397   0.40871   0.00000  Uiso   1.00
H446   H     0.17279   0.02910   0.49188   0.00000  Uiso   1.00
H447   H     0.06617   0.94775   0.38094   0.00000  Uiso   1.00
H448   H     0.19076   0.10038   0.35727   0.00000  Uiso   1.00
H449   H     0.21549   0.02634   0.57781   0.00000  Uiso   1.00
H450   H     0.99067   0.85482   0.34389   0.00000  Uiso   1.00
H451   H     0.25340   0.17668   0.29396   0.00000  Uiso   1.00
O452   O     0.27785   0.00074   0.61094   0.00000  Uiso   1.00
O453   O     0.98290   0.77571   0.30404   0.00000  Uiso   1.00
O454   O     0.32758   0.19798   0.23854   0.00000  Uiso   1.00
N455   N     0.27748   0.98314   0.53472   0.00000  Uiso   1.00
N456   N     0.06728   0.82278   0.31603   0.00000  Uiso   1.00
N457   N     0.31290   0.12368   0.26934   0.00000  Uiso   1.00
N458   N     0.23128   0.01305   0.55701   0.00000  Uiso   1.00
N459   N     0.02108   0.85269   0.33832   0.00000  Uiso   1.00
N460   N     0.26670   0.15359   0.29163   0.00000  Uiso   1.00
C461   C     0.88998   0.30726   0.70475   0.00000  Uiso   1.00
C462   C     0.89362   0.31711   0.75520   0.00000  Uiso   1.00
C463   C     0.92242   0.30874   0.78521   0.00000  Uiso   1.00
C464   C     0.92065   0.32015   0.83001   0.00000  Uiso   1.00
C465   C     0.93078   0.33253   0.90619   0.00000  Uiso   1.00
C466   C     0.83569   0.27291   0.69494   0.00000  Uiso   1.00
C467   C     0.81577   0.22737   0.67427   0.00000  Uiso   1.00
C468   C     0.76524   0.20158   0.66833   0.00000  Uiso   1.00
C469   C     0.68543   0.14535   0.65091   0.00000  Uiso   1.00
C470   C     0.90338   0.35584   0.68208   0.00000  Uiso   1.00
C471   C     0.94038   0.38003   0.65058   0.00000  Uiso   1.00
C472   C     0.94684   0.42405   0.63381   0.00000  Uiso   1.00
C473   C     0.97214   0.49658   0.59642   0.00000  Uiso   1.00
C474   C     0.83564   0.34243   0.73096   0.00000  Uiso   1.00
C475   C     0.86411   0.33622   0.76944   0.00000  Uiso   1.00
C476   C     0.86230   0.34765   0.81420   0.00000  Uiso   1.00
C477   C     0.89109   0.33929   0.84427   0.00000  Uiso   1.00
C478   C     0.80617   0.29201   0.70917   0.00000  Uiso   1.00
C479   C     0.75566   0.26628   0.70326   0.00000  Uiso   1.00
C480   C     0.73568   0.22072   0.68259   0.00000  Uiso   1.00
C481   C     0.87387   0.37495   0.69631   0.00000  Uiso   1.00
C482   C     0.88027   0.41894   0.67958   0.00000  Uiso   1.00
C483   C     0.91727   0.44319   0.64807   0.00000  Uiso   1.00
H484   H     0.91295   0.29238   0.69367   0.00000  Uiso   1.00
H485   H     0.94525   0.29395   0.77418   0.00000  Uiso   1.00
H486   H     0.83862   0.21260   0.66325   0.00000  Uiso   1.00
H487   H     0.96321   0.36523   0.63958   0.00000  Uiso   1.00
H488   H     0.96802   0.30409   0.86973   0.00000  Uiso   1.00
H489   H     0.74320   0.13257   0.63581   0.00000  Uiso   1.00
H490   H     0.00593   0.45443   0.58588   0.00000  Uiso   1.00
H491   H     0.81266   0.35730   0.74204   0.00000  Uiso   1.00
H492   H     0.83946   0.36243   0.82521   0.00000  Uiso   1.00
H493   H     0.73283   0.28108   0.71428   0.00000  Uiso   1.00
H494   H     0.85742   0.43371   0.69060   0.00000  Uiso   1.00
H495   H     0.88216   0.35967   0.91114   0.00000  Uiso   1.00
H496   H     0.65734   0.18815   0.67722   0.00000  Uiso   1.00
H497   H     0.92006   0.51001   0.62729   0.00000  Uiso   1.00
O498   O     0.94452   0.33407   0.94427   0.00000  Uiso   1.00
O499   O     0.64956   0.10905   0.63738   0.00000  Uiso   1.00
O500   O     0.99425   0.53132   0.57187   0.00000  Uiso   1.00
N501   N     0.94415   0.31648   0.86806   0.00000  Uiso   1.00
N502   N     0.73395   0.15611   0.64936   0.00000  Uiso   1.00
N503   N     0.97957   0.45702   0.60268   0.00000  Uiso   1.00
N504   N     0.89795   0.34638   0.89034   0.00000  Uiso   1.00
N505   N     0.68775   0.18602   0.67165   0.00000  Uiso   1.00
N506   N     0.93337   0.48692   0.62496   0.00000  Uiso   1.00
C507   C     0.55664   0.64059   0.03809   0.00000  Uiso   1.00
C508   C     0.56029   0.65045   0.08854   0.00000  Uiso   1.00
C509   C     0.58908   0.64207   0.11854   0.00000  Uiso   1.00
C510   C     0.58732   0.65348   0.16335   0.00000  Uiso   1.00
C511   C     0.59745   0.66586   0.23952   0.00000  Uiso   1.00
C512   C     0.50235   0.60624   0.02827   0.00000  Uiso   1.00
C513   C     0.48244   0.56070   0.00760   0.00000  Uiso   1.00
C514   C     0.43191   0.53491   0.00166   0.00000  Uiso   1.00
C515   C     0.35210   0.47868   0.98424   0.00000  Uiso   1.00
C516   C     0.57005   0.68918   0.01541   0.00000  Uiso   1.00
C517   C     0.60705   0.71336   0.98392   0.00000  Uiso   1.00
C518   C     0.61351   0.75739   0.96714   0.00000  Uiso   1.00
C519   C     0.63881   0.82992   0.92976   0.00000  Uiso   1.00
C520   C     0.50231   0.67576   0.06429   0.00000  Uiso   1.00
C521   C     0.53077   0.66955   0.10277   0.00000  Uiso   1.00
C522   C     0.52897   0.68098   0.14754   0.00000  Uiso   1.00
C523   C     0.55776   0.67262   0.17761   0.00000  Uiso   1.00
C524   C     0.47284   0.62535   0.04250   0.00000  Uiso   1.00
C525   C     0.42233   0.59962   0.03659   0.00000  Uiso   1.00
C526   C     0.40234   0.55405   0.01592   0.00000  Uiso   1.00
C527   C     0.54054   0.70828   0.02964   0.00000  Uiso   1.00
C528   C     0.54694   0.75227   0.01291   0.00000  Uiso   1.00
C529   C     0.58394   0.77652   0.98140   0.00000  Uiso   1.00
H530   H     0.57962   0.62572   0.02700   0.00000  Uiso   1.00
H531   H     0.61191   0.62728   0.10752   0.00000  Uiso   1.00
H532   H     0.50529   0.54593   0.99659   0.00000  Uiso   1.00
H533   H     0.62988   0.69857   0.97291   0.00000  Uiso   1.00
H534   H     0.63469   0.63742   0.20306   0.00000  Uiso   1.00
H535   H     0.40987   0.46591   0.96914   0.00000  Uiso   1.00
H536   H     0.67259   0.78776   0.91921   0.00000  Uiso   1.00
H537   H     0.47933   0.69063   0.07537   0.00000  Uiso   1.00
H538   H     0.50613   0.69576   0.15854   0.00000  Uiso   1.00
H539   H     0.39950   0.61441   0.04761   0.00000  Uiso   1.00
H540   H     0.52409   0.76705   0.02393   0.00000  Uiso   1.00
H541   H     0.54883   0.69300   0.24447   0.00000  Uiso   1.00
H542   H     0.32401   0.52148   0.01055   0.00000  Uiso   1.00
H543   H     0.58673   0.84334   0.96063   0.00000  Uiso   1.00
O544   O     0.61118   0.66740   0.27761   0.00000  Uiso   1.00
O545   O     0.31623   0.44238   0.97071   0.00000  Uiso   1.00
O546   O     0.66092   0.86465   0.90521   0.00000  Uiso   1.00
N547   N     0.61081   0.64981   0.20139   0.00000  Uiso   1.00
N548   N     0.40062   0.48945   0.98270   0.00000  Uiso   1.00
N549   N     0.64623   0.79035   0.93601   0.00000  Uiso   1.00
N550   N     0.56461   0.67972   0.22368   0.00000  Uiso   1.00
N551   N     0.35442   0.51935   0.00498   0.00000  Uiso   1.00
N552   N     0.60003   0.82026   0.95830   0.00000  Uiso   1.00
C553   C     0.75061   0.77669   0.37142   0.00000  Uiso   1.00
C554   C     0.75683   0.77305   0.42187   0.00000  Uiso   1.00
C555   C     0.71965   0.74425   0.45188   0.00000  Uiso   1.00
C556   C     0.73283   0.74601   0.49668   0.00000  Uiso   1.00
C557   C     0.73508   0.73588   0.57286   0.00000  Uiso   1.00
C558   C     0.77056   0.83098   0.36160   0.00000  Uiso   1.00
C559   C     0.74493   0.85089   0.34093   0.00000  Uiso   1.00
C560   C     0.76967   0.90143   0.33500   0.00000  Uiso   1.00
C561   C     0.79325   0.98124   0.31758   0.00000  Uiso   1.00
C562   C     0.78579   0.76328   0.34874   0.00000  Uiso   1.00
C563   C     0.77298   0.72628   0.31725   0.00000  Uiso   1.00
C564   C     0.81055   0.71983   0.30048   0.00000  Uiso   1.00
C565   C     0.85778   0.69453   0.26309   0.00000  Uiso   1.00
C566   C     0.84012   0.83102   0.39762   0.00000  Uiso   1.00
C567   C     0.80544   0.80256   0.43610   0.00000  Uiso   1.00
C568   C     0.81868   0.80437   0.48087   0.00000  Uiso   1.00
C569   C     0.78153   0.77558   0.51094   0.00000  Uiso   1.00
C570   C     0.81917   0.86049   0.37584   0.00000  Uiso   1.00
C571   C     0.84396   0.91101   0.36993   0.00000  Uiso   1.00
C572   C     0.81837   0.93099   0.34926   0.00000  Uiso   1.00
C573   C     0.83441   0.79279   0.36298   0.00000  Uiso   1.00
C574   C     0.87200   0.78640   0.34625   0.00000  Uiso   1.00
C575   C     0.85925   0.74939   0.31474   0.00000  Uiso   1.00
H576   H     0.71276   0.75372   0.36034   0.00000  Uiso   1.00
H577   H     0.68203   0.72142   0.44085   0.00000  Uiso   1.00
H578   H     0.70731   0.82804   0.32992   0.00000  Uiso   1.00
H579   H     0.73535   0.70345   0.30624   0.00000  Uiso   1.00
H580   H     0.66940   0.69864   0.53639   0.00000  Uiso   1.00
H581   H     0.72270   0.92346   0.30248   0.00000  Uiso   1.00
H582   H     0.78184   0.66074   0.25255   0.00000  Uiso   1.00
H583   H     0.87797   0.85400   0.40871   0.00000  Uiso   1.00
H584   H     0.85630   0.82721   0.49188   0.00000  Uiso   1.00
H585   H     0.88158   0.93383   0.38094   0.00000  Uiso   1.00
H586   H     0.90962   0.80924   0.35727   0.00000  Uiso   1.00
H587   H     0.81084   0.78451   0.57781   0.00000  Uiso   1.00
H588   H     0.86415   0.00933   0.34389   0.00000  Uiso   1.00
H589   H     0.92328   0.74660   0.29396   0.00000  Uiso   1.00
O590   O     0.72289   0.72215   0.61094   0.00000  Uiso   1.00
O591   O     0.79282   0.01710   0.30404   0.00000  Uiso   1.00
O592   O     0.87040   0.67242   0.23854   0.00000  Uiso   1.00
N593   N     0.70566   0.72252   0.53472   0.00000  Uiso   1.00
N594   N     0.75550   0.93272   0.31603   0.00000  Uiso   1.00
N595   N     0.81078   0.68710   0.26934   0.00000  Uiso   1.00
N596   N     0.78177   0.76872   0.55701   0.00000  Uiso   1.00
N597   N     0.83160   0.97892   0.33832   0.00000  Uiso   1.00
N598   N     0.88689   0.73330   0.29163   0.00000  Uiso   1.00
C599   C     0.41728   0.11002   0.70475   0.00000  Uiso   1.00
C600   C     0.42349   0.10638   0.75520   0.00000  Uiso   1.00
C601   C     0.38632   0.07758   0.78521   0.00000  Uiso   1.00
C602   C     0.39950   0.07935   0.83001   0.00000  Uiso   1.00
C603   C     0.40174   0.06922   0.90619   0.00000  Uiso   1.00
C604   C     0.43722   0.16431   0.69494   0.00000  Uiso   1.00
C605   C     0.41160   0.18423   0.67427   0.00000  Uiso   1.00
C606   C     0.43634   0.23476   0.66833   0.00000  Uiso   1.00
C607   C     0.45991   0.31457   0.65091   0.00000  Uiso   1.00
C608   C     0.45246   0.09662   0.68208   0.00000  Uiso   1.00
C609   C     0.43964   0.05962   0.65058   0.00000  Uiso   1.00
C610   C     0.47721   0.05316   0.63381   0.00000  Uiso   1.00
C611   C     0.52444   0.02786   0.59642   0.00000  Uiso   1.00
C612   C     0.50678   0.16436   0.73096   0.00000  Uiso   1.00
C613   C     0.47211   0.13589   0.76944   0.00000  Uiso   1.00
C614   C     0.48535   0.13770   0.81420   0.00000  Uiso   1.00
C615   C     0.44820   0.10891   0.84427   0.00000  Uiso   1.00
C616   C     0.48584   0.19383   0.70917   0.00000  Uiso   1.00
C617   C     0.51062   0.24434   0.70326   0.00000  Uiso   1.00
C618   C     0.48504   0.26432   0.68259   0.00000  Uiso   1.00
C619   C     0.50107   0.12613   0.69631   0.00000  Uiso   1.00
C620   C     0.53867   0.11973   0.67958   0.00000  Uiso   1.00
C621   C     0.52592   0.08273   0.64807   0.00000  Uiso   1.00
H622   H     0.37943   0.08705   0.69367   0.00000  Uiso   1.00
H623   H     0.34870   0.05475   0.77418   0.00000  Uiso   1.00
H624   H     0.37398   0.16138   0.66325   0.00000  Uiso   1.00
H625   H     0.40202   0.03679   0.63958   0.00000  Uiso   1.00
H626   H     0.33607   0.03198   0.86973   0.00000  Uiso   1.00
H627   H     0.38937   0.25680   0.63581   0.00000  Uiso   1.00
H628   H     0.44850   0.99407   0.58588   0.00000  Uiso   1.00
H629   H     0.54464   0.18734   0.74204   0.00000  Uiso   1.00
H630   H     0.52297   0.16054   0.82521   0.00000  Uiso   1.00
H631   H     0.54825   0.26717   0.71428   0.00000  Uiso   1.00
H632   H     0.57629   0.14258   0.69060   0.00000  Uiso   1.00
H633   H     0.47751   0.11784   0.91114   0.00000  Uiso   1.00
H634   H     0.53081   0.34266   0.67722   0.00000  Uiso   1.00
H635   H     0.58995   0.07994   0.62729   0.00000  Uiso   1.00
O636   O     0.38955   0.05548   0.94427   0.00000  Uiso   1.00
O637   O     0.45949   0.35044   0.63738   0.00000  Uiso   1.00
O638   O     0.53707   0.00575   0.57187   0.00000  Uiso   1.00
N639   N     0.37233   0.05585   0.86806   0.00000  Uiso   1.00
N640   N     0.42216   0.26605   0.64936   0.00000  Uiso   1.00
N641   N     0.47745   0.02043   0.60268   0.00000  Uiso   1.00
N642   N     0.44844   0.10205   0.89034   0.00000  Uiso   1.00
N643   N     0.49827   0.31225   0.67165   0.00000  Uiso   1.00
N644   N     0.55356   0.06663   0.62496   0.00000  Uiso   1.00
C645   C     0.08395   0.44336   0.03809   0.00000  Uiso   1.00
C646   C     0.09016   0.43971   0.08854   0.00000  Uiso   1.00
C647   C     0.05299   0.41092   0.11854   0.00000  Uiso   1.00
C648   C     0.06616   0.41268   0.16335   0.00000  Uiso   1.00
C649   C     0.06841   0.40255   0.23952   0.00000  Uiso   1.00
C650   C     0.10389   0.49765   0.02827   0.00000  Uiso   1.00
C651   C     0.07826   0.51756   0.00760   0.00000  Uiso   1.00
C652   C     0.10300   0.56809   0.00166   0.00000  Uiso   1.00
C653   C     0.12658   0.64790   0.98424   0.00000  Uiso   1.00
C654   C     0.11912   0.42995   0.01541   0.00000  Uiso   1.00
C655   C     0.10631   0.39295   0.98392   0.00000  Uiso   1.00
C656   C     0.14388   0.38649   0.96714   0.00000  Uiso   1.00
C657   C     0.19111   0.36119   0.92976   0.00000  Uiso   1.00
C658   C     0.17345   0.49769   0.06429   0.00000  Uiso   1.00
C659   C     0.13878   0.46923   0.10277   0.00000  Uiso   1.00
C660   C     0.15201   0.47103   0.14754   0.00000  Uiso   1.00
C661   C     0.11487   0.44224   0.17761   0.00000  Uiso   1.00
C662   C     0.15250   0.52716   0.04250   0.00000  Uiso   1.00
C663   C     0.17729   0.57767   0.03659   0.00000  Uiso   1.00
C664   C     0.15171   0.59766   0.01592   0.00000  Uiso   1.00
C665   C     0.16774   0.45946   0.02964   0.00000  Uiso   1.00
C666   C     0.20534   0.45306   0.01291   0.00000  Uiso   1.00
C667   C     0.19258   0.41606   0.98140   0.00000  Uiso   1.00
H668   H     0.04610   0.42038   0.02700   0.00000  Uiso   1.00
H669   H     0.01537   0.38809   0.10752   0.00000  Uiso   1.00
H670   H     0.04064   0.49471   0.99659   0.00000  Uiso   1.00
H671   H     0.06869   0.37012   0.97291   0.00000  Uiso   1.00
H672   H     0.00273   0.36531   0.20306   0.00000  Uiso   1.00
H673   H     0.05604   0.59013   0.96914   0.00000  Uiso   1.00
H674   H     0.11517   0.32741   0.91921   0.00000  Uiso   1.00
H675   H     0.21130   0.52067   0.07537   0.00000  Uiso   1.00
H676   H     0.18964   0.49387   0.15854   0.00000  Uiso   1.00
H677   H     0.21491   0.60050   0.04761   0.00000  Uiso   1.00
H678   H     0.24295   0.47591   0.02393   0.00000  Uiso   1.00
H679   H     0.14418   0.45117   0.24447   0.00000  Uiso   1.00
H680   H     0.19748   0.67599   0.01055   0.00000  Uiso   1.00
H681   H     0.25661   0.41327   0.96063   0.00000  Uiso   1.00
O682   O     0.05622   0.38882   0.27761   0.00000  Uiso   1.00
O683   O     0.12615   0.68377   0.97071   0.00000  Uiso   1.00
O684   O     0.20373   0.33908   0.90521   0.00000  Uiso   1.00
N685   N     0.03900   0.38919   0.20139   0.00000  Uiso   1.00
N686   N     0.08883   0.59938   0.98270   0.00000  Uiso   1.00
N687   N     0.14411   0.35377   0.93601   0.00000  Uiso   1.00
N688   N     0.11511   0.43539   0.22368   0.00000  Uiso   1.00
N689   N     0.16494   0.64558   0.00498   0.00000  Uiso   1.00
N690   N     0.22022   0.39997   0.95830   0.00000  Uiso   1.00
C691   C     0.02608   0.24939   0.37142   0.00000  Uiso   1.00
C692   C     0.01622   0.24317   0.42187   0.00000  Uiso   1.00
C693   C     0.02460   0.28035   0.45188   0.00000  Uiso   1.00
C694   C     0.01318   0.26717   0.49668   0.00000  Uiso   1.00
C695   C     0.00081   0.26492   0.57286   0.00000  Uiso   1.00
C696   C     0.06042   0.22944   0.36160   0.00000  Uiso   1.00
C697   C     0.10596   0.25507   0.34093   0.00000  Uiso   1.00
C698   C     0.13175   0.23033   0.33500   0.00000  Uiso   1.00
C699   C     0.18799   0.20675   0.31758   0.00000  Uiso   1.00
C700   C     0.97749   0.21421   0.34874   0.00000  Uiso   1.00
C701   C     0.95331   0.22702   0.31725   0.00000  Uiso   1.00
C702   C     0.90928   0.18945   0.30048   0.00000  Uiso   1.00
C703   C     0.83675   0.14222   0.26309   0.00000  Uiso   1.00
C704   C     0.99091   0.15988   0.39762   0.00000  Uiso   1.00
C705   C     0.99712   0.19456   0.43610   0.00000  Uiso   1.00
C706   C     0.98569   0.18132   0.48087   0.00000  Uiso   1.00
C707   C     0.99404   0.21847   0.51094   0.00000  Uiso   1.00
C708   C     0.04132   0.18083   0.37584   0.00000  Uiso   1.00
C709   C     0.06705   0.15604   0.36993   0.00000  Uiso   1.00
C710   C     0.11262   0.18163   0.34926   0.00000  Uiso   1.00
C711   C     0.95839   0.16559   0.36298   0.00000  Uiso   1.00
C712   C     0.91439   0.12800   0.34625   0.00000  Uiso   1.00
C713   C     0.89014   0.14075   0.31474   0.00000  Uiso   1.00
H714   H     0.04095   0.28724   0.36034   0.00000  Uiso   1.00
H715   H     0.03939   0.31797   0.44085   0.00000  Uiso   1.00
H716   H     0.12073   0.29269   0.32992   0.00000  Uiso   1.00
H717   H     0.96810   0.26465   0.30624   0.00000  Uiso   1.00
H718   H     0.02924   0.33060   0.53639   0.00000  Uiso   1.00
H719   H     0.20076   0.27730   0.30248   0.00000  Uiso   1.00
H720   H     0.87890   0.21816   0.25255   0.00000  Uiso   1.00
H721   H     0.97603   0.12203   0.40871   0.00000  Uiso   1.00
H722   H     0.97090   0.14370   0.49188   0.00000  Uiso   1.00
H723   H     0.05225   0.11842   0.38094   0.00000  Uiso   1.00
H724   H     0.89962   0.09038   0.35727   0.00000  Uiso   1.00
H725   H     0.97366   0.18916   0.57781   0.00000  Uiso   1.00
H726   H     0.14518   0.13585   0.34389   0.00000  Uiso   1.00
H727   H     0.82332   0.07672   0.29396   0.00000  Uiso   1.00
O728   O     0.99926   0.27711   0.61094   0.00000  Uiso   1.00
O729   O     0.22429   0.20718   0.30404   0.00000  Uiso   1.00
O730   O     0.80202   0.12960   0.23854   0.00000  Uiso   1.00
N731   N     0.01686   0.29434   0.53472   0.00000  Uiso   1.00
N732   N     0.17722   0.24450   0.31603   0.00000  Uiso   1.00
N733   N     0.87632   0.18922   0.26934   0.00000  Uiso   1.00
N734   N     0.98695   0.21823   0.55701   0.00000  Uiso   1.00
N735   N     0.14731   0.16840   0.33832   0.00000  Uiso   1.00
N736   N     0.84641   0.11311   0.29163   0.00000  Uiso   1.00
C737   C     0.69274   0.58272   0.70475   0.00000  Uiso   1.00
C738   C     0.68289   0.57651   0.75520   0.00000  Uiso   1.00
C739   C     0.69126   0.61368   0.78521   0.00000  Uiso   1.00
C740   C     0.67985   0.60050   0.83001   0.00000  Uiso   1.00
C741   C     0.66747   0.59826   0.90619   0.00000  Uiso   1.00
C742   C     0.72709   0.56278   0.69494   0.00000  Uiso   1.00
C743   C     0.77263   0.58840   0.67427   0.00000  Uiso   1.00
C744   C     0.79842   0.56366   0.66833   0.00000  Uiso   1.00
C745   C     0.85465   0.54009   0.65091   0.00000  Uiso   1.00
C746   C     0.64416   0.54754   0.68208   0.00000  Uiso   1.00
C747   C     0.61997   0.56036   0.65058   0.00000  Uiso   1.00
C748   C     0.57595   0.52279   0.63381   0.00000  Uiso   1.00
C749   C     0.50342   0.47556   0.59642   0.00000  Uiso   1.00
C750   C     0.65757   0.49322   0.73096   0.00000  Uiso   1.00
C751   C     0.66378   0.52789   0.76944   0.00000  Uiso   1.00
C752   C     0.65235   0.51465   0.81420   0.00000  Uiso   1.00
C753   C     0.66071   0.55180   0.84427   0.00000  Uiso   1.00
C754   C     0.70799   0.51416   0.70917   0.00000  Uiso   1.00
C755   C     0.73372   0.48938   0.70326   0.00000  Uiso   1.00
C756   C     0.77928   0.51496   0.68259   0.00000  Uiso   1.00
C757   C     0.62505   0.49893   0.69631   0.00000  Uiso   1.00
C758   C     0.58106   0.46133   0.67958   0.00000  Uiso   1.00
C759   C     0.55681   0.47408   0.64807   0.00000  Uiso   1.00
H760   H     0.70762   0.62057   0.69367   0.00000  Uiso   1.00
H761   H     0.70605   0.65130   0.77418   0.00000  Uiso   1.00
H762   H     0.78740   0.62602   0.66325   0.00000  Uiso   1.00
H763   H     0.63477   0.59798   0.63958   0.00000  Uiso   1.00
H764   H     0.69591   0.66393   0.86973   0.00000  Uiso   1.00
H765   H     0.86743   0.61063   0.63581   0.00000  Uiso   1.00
H766   H     0.54557   0.55150   0.58588   0.00000  Uiso   1.00
H767   H     0.64270   0.45536   0.74204   0.00000  Uiso   1.00
H768   H     0.63757   0.47703   0.82521   0.00000  Uiso   1.00
H769   H     0.71892   0.45175   0.71428   0.00000  Uiso   1.00
H770   H     0.56629   0.42371   0.69060   0.00000  Uiso   1.00
H771   H     0.64033   0.52249   0.91114   0.00000  Uiso   1.00
H772   H     0.81185   0.46919   0.67722   0.00000  Uiso   1.00
H773   H     0.48999   0.41005   0.62729   0.00000  Uiso   1.00
O774   O     0.66593   0.61045   0.94427   0.00000  Uiso   1.00
O775   O     0.89095   0.54051   0.63738   0.00000  Uiso   1.00
O776   O     0.46868   0.46293   0.57187   0.00000  Uiso   1.00
N777   N     0.68352   0.62767   0.86806   0.00000  Uiso   1.00
N778   N     0.84389   0.57784   0.64936   0.00000  Uiso   1.00
N779   N     0.54298   0.52255   0.60268   0.00000  Uiso   1.00
N780   N     0.65362   0.55156   0.89034   0.00000  Uiso   1.00
N781   N     0.81398   0.50173   0.67165   0.00000  Uiso   1.00
N782   N     0.51308   0.44644   0.62496   0.00000  Uiso   1.00
C783   C     0.35941   0.91605   0.03809   0.00000  Uiso   1.00
C784   C     0.34955   0.90984   0.08854   0.00000  Uiso   1.00
C785   C     0.35793   0.94701   0.11854   0.00000  Uiso   1.00
C786   C     0.34652   0.93384   0.16335   0.00000  Uiso   1.00
C787   C     0.33414   0.93159   0.23952   0.00000  Uiso   1.00
C788   C     0.39376   0.89611   0.02827   0.00000  Uiso   1.00
C789   C     0.43930   0.92174   0.00760   0.00000  Uiso   1.00
C790   C     0.46509   0.89700   0.00166   0.00000  Uiso   1.00
C791   C     0.52132   0.87342   0.98424   0.00000  Uiso   1.00
C792   C     0.31082   0.88088   0.01541   0.00000  Uiso   1.00
C793   C     0.28664   0.89369   0.98392   0.00000  Uiso   1.00
C794   C     0.24261   0.85612   0.96714   0.00000  Uiso   1.00
C795   C     0.17008   0.80889   0.92976   0.00000  Uiso   1.00
C796   C     0.32424   0.82655   0.06429   0.00000  Uiso   1.00
C797   C     0.33045   0.86122   0.10277   0.00000  Uiso   1.00
C798   C     0.31902   0.84799   0.14754   0.00000  Uiso   1.00
C799   C     0.32738   0.88513   0.17761   0.00000  Uiso   1.00
C800   C     0.37465   0.84750   0.04250   0.00000  Uiso   1.00
C801   C     0.40038   0.82271   0.03659   0.00000  Uiso   1.00
C802   C     0.44595   0.84829   0.01592   0.00000  Uiso   1.00
C803   C     0.29172   0.83226   0.02964   0.00000  Uiso   1.00
C804   C     0.24773   0.79466   0.01291   0.00000  Uiso   1.00
C805   C     0.22348   0.80742   0.98140   0.00000  Uiso   1.00
H806   H     0.37428   0.95390   0.02700   0.00000  Uiso   1.00
H807   H     0.37272   0.98463   0.10752   0.00000  Uiso   1.00
H808   H     0.45407   0.95936   0.99659   0.00000  Uiso   1.00
H809   H     0.30143   0.93131   0.97291   0.00000  Uiso   1.00
H810   H     0.36258   0.99727   0.20306   0.00000  Uiso   1.00
H811   H     0.53409   0.94396   0.96914   0.00000  Uiso   1.00
H812   H     0.21224   0.88483   0.91921   0.00000  Uiso   1.00
H813   H     0.30937   0.78870   0.07537   0.00000  Uiso   1.00
H814   H     0.30424   0.81036   0.15854   0.00000  Uiso   1.00
H815   H     0.38559   0.78509   0.04761   0.00000  Uiso   1.00
H816   H     0.23295   0.75705   0.02393   0.00000  Uiso   1.00
H817   H     0.30700   0.85582   0.24447   0.00000  Uiso   1.00
H818   H     0.47852   0.80252   0.01055   0.00000  Uiso   1.00
H819   H     0.15666   0.74339   0.96063   0.00000  Uiso   1.00
O820   O     0.33260   0.94378   0.27761   0.00000  Uiso   1.00
O821   O     0.55762   0.87385   0.97071   0.00000  Uiso   1.00
O822   O     0.13535   0.79627   0.90521   0.00000  Uiso   1.00
N823   N     0.35019   0.96100   0.20139   0.00000  Uiso   1.00
N824   N     0.51055   0.91117   0.98270   0.00000  Uiso   1.00
N825   N     0.20965   0.85589   0.93601   0.00000  Uiso   1.00
N826   N     0.32028   0.88489   0.22368   0.00000  Uiso   1.00
N827   N     0.48065   0.83506   0.00498   0.00000  Uiso   1.00
N828   N     0.17974   0.77978   0.95830   0.00000  Uiso   1.00
C829   C     0.02608   0.77669   0.87142   0.00000  Uiso   1.00
C830   C     0.01622   0.77305   0.92187   0.00000  Uiso   1.00
C831   C     0.02460   0.74425   0.95188   0.00000  Uiso   1.00
C832   C     0.01318   0.74601   0.99668   0.00000  Uiso   1.00
C833   C     0.00081   0.73588   0.07286   0.00000  Uiso   1.00
C834   C     0.06042   0.83098   0.86160   0.00000  Uiso   1.00
C835   C     0.10596   0.85089   0.84093   0.00000  Uiso   1.00
C836   C     0.13175   0.90143   0.83500   0.00000  Uiso   1.00
C837   C     0.18799   0.98124   0.81758   0.00000  Uiso   1.00
C838   C     0.97749   0.76328   0.84874   0.00000  Uiso   1.00
C839   C     0.95331   0.72628   0.81725   0.00000  Uiso   1.00
C840   C     0.90928   0.71983   0.80048   0.00000  Uiso   1.00
C841   C     0.83675   0.69453   0.76309   0.00000  Uiso   1.00
C842   C     0.99091   0.83102   0.89762   0.00000  Uiso   1.00
C843   C     0.99712   0.80256   0.93610   0.00000  Uiso   1.00
C844   C     0.98569   0.80437   0.98087   0.00000  Uiso   1.00
C845   C     0.99404   0.77558   0.01094   0.00000  Uiso   1.00
C846   C     0.04132   0.86049   0.87584   0.00000  Uiso   1.00
C847   C     0.06705   0.91101   0.86993   0.00000  Uiso   1.00
C848   C     0.11262   0.93099   0.84926   0.00000  Uiso   1.00
C849   C     0.95839   0.79279   0.86298   0.00000  Uiso   1.00
C850   C     0.91439   0.78640   0.84625   0.00000  Uiso   1.00
C851   C     0.89014   0.74939   0.81474   0.00000  Uiso   1.00
H852   H     0.04095   0.75372   0.86034   0.00000  Uiso   1.00
H853   H     0.03939   0.72142   0.94085   0.00000  Uiso   1.00
H854   H     0.12073   0.82804   0.82992   0.00000  Uiso   1.00
H855   H     0.96810   0.70345   0.80624   0.00000  Uiso   1.00
H856   H     0.02924   0.69864   0.03639   0.00000  Uiso   1.00
H857   H     0.20076   0.92346   0.80248   0.00000  Uiso   1.00
H858   H     0.87890   0.66074   0.75255   0.00000  Uiso   1.00
H859   H     0.97603   0.85400   0.90871   0.00000  Uiso   1.00
H860   H     0.97090   0.82721   0.99188   0.00000  Uiso   1.00
H861   H     0.05225   0.93383   0.88094   0.00000  Uiso   1.00
H862   H     0.89962   0.80924   0.85727   0.00000  Uiso   1.00
H863   H     0.97366   0.78451   0.07781   0.00000  Uiso   1.00
H864   H     0.14518   0.00933   0.84389   0.00000  Uiso   1.00
H865   H     0.82332   0.74660   0.79396   0.00000  Uiso   1.00
O866   O     0.99926   0.72215   0.11094   0.00000  Uiso   1.00
O867   O     0.22429   0.01710   0.80404   0.00000  Uiso   1.00
O868   O     0.80202   0.67242   0.73854   0.00000  Uiso   1.00
N869   N     0.01686   0.72252   0.03472   0.00000  Uiso   1.00
N870   N     0.17722   0.93272   0.81603   0.00000  Uiso   1.00
N871   N     0.87632   0.68710   0.76934   0.00000  Uiso   1.00
N872   N     0.98695   0.76872   0.05701   0.00000  Uiso   1.00
N873   N     0.14731   0.97892   0.83832   0.00000  Uiso   1.00
N874   N     0.84641   0.73330   0.79163   0.00000  Uiso   1.00
C875   C     0.69274   0.11002   0.20475   0.00000  Uiso   1.00
C876   C     0.68289   0.10638   0.25520   0.00000  Uiso   1.00
C877   C     0.69126   0.07758   0.28521   0.00000  Uiso   1.00
C878   C     0.67985   0.07935   0.33001   0.00000  Uiso   1.00
C879   C     0.66747   0.06922   0.40619   0.00000  Uiso   1.00
C880   C     0.72709   0.16431   0.19494   0.00000  Uiso   1.00
C881   C     0.77263   0.18423   0.17427   0.00000  Uiso   1.00
C882   C     0.79842   0.23476   0.16833   0.00000  Uiso   1.00
C883   C     0.85465   0.31457   0.15091   0.00000  Uiso   1.00
C884   C     0.64416   0.09662   0.18208   0.00000  Uiso   1.00
C885   C     0.61997   0.05962   0.15058   0.00000  Uiso   1.00
C886   C     0.57595   0.05316   0.13381   0.00000  Uiso   1.00
C887   C     0.50342   0.02786   0.09642   0.00000  Uiso   1.00
C888   C     0.65757   0.16436   0.23096   0.00000  Uiso   1.00
C889   C     0.66378   0.13589   0.26944   0.00000  Uiso   1.00
C890   C     0.65235   0.13770   0.31420   0.00000  Uiso   1.00
C891   C     0.66071   0.10891   0.34427   0.00000  Uiso   1.00
C892   C     0.70799   0.19383   0.20917   0.00000  Uiso   1.00
C893   C     0.73372   0.24434   0.20326   0.00000  Uiso   1.00
C894   C     0.77928   0.26432   0.18259   0.00000  Uiso   1.00
C895   C     0.62505   0.12613   0.19631   0.00000  Uiso   1.00
C896   C     0.58106   0.11973   0.17958   0.00000  Uiso   1.00
C897   C     0.55681   0.08273   0.14807   0.00000  Uiso   1.00
H898   H     0.70762   0.08705   0.19367   0.00000  Uiso   1.00
H899   H     0.70605   0.05475   0.27418   0.00000  Uiso   1.00
H900   H     0.78740   0.16138   0.16325   0.00000  Uiso   1.00
H901   H     0.63477   0.03679   0.13958   0.00000  Uiso   1.00
H902   H     0.69591   0.03198   0.36973   0.00000  Uiso   1.00
H903   H     0.86743   0.25680   0.13581   0.00000  Uiso   1.00
H904   H     0.54557   0.99407   0.08588   0.00000  Uiso   1.00
H905   H     0.64270   0.18734   0.24204   0.00000  Uiso   1.00
H906   H     0.63757   0.16054   0.32521   0.00000  Uiso   1.00
H907   H     0.71892   0.26717   0.21428   0.00000  Uiso   1.00
H908   H     0.56629   0.14258   0.19060   0.00000  Uiso   1.00
H909   H     0.64033   0.11784   0.41114   0.00000  Uiso   1.00
H910   H     0.81185   0.34266   0.17722   0.00000  Uiso   1.00
H911   H     0.48999   0.07994   0.12729   0.00000  Uiso   1.00
O912   O     0.66593   0.05548   0.44427   0.00000  Uiso   1.00
O913   O     0.89095   0.35044   0.13738   0.00000  Uiso   1.00
O914   O     0.46868   0.00575   0.07187   0.00000  Uiso   1.00
N915   N     0.68352   0.05585   0.36806   0.00000  Uiso   1.00
N916   N     0.84389   0.26605   0.14936   0.00000  Uiso   1.00
N917   N     0.54298   0.02043   0.10268   0.00000  Uiso   1.00
N918   N     0.65362   0.10205   0.39034   0.00000  Uiso   1.00
N919   N     0.81398   0.31225   0.17165   0.00000  Uiso   1.00
N920   N     0.51308   0.06663   0.12496   0.00000  Uiso   1.00
C921   C     0.35941   0.44336   0.53809   0.00000  Uiso   1.00
C922   C     0.34955   0.43971   0.58854   0.00000  Uiso   1.00
C923   C     0.35793   0.41092   0.61854   0.00000  Uiso   1.00
C924   C     0.34652   0.41268   0.66335   0.00000  Uiso   1.00
C925   C     0.33414   0.40255   0.73952   0.00000  Uiso   1.00
C926   C     0.39376   0.49765   0.52827   0.00000  Uiso   1.00
C927   C     0.43930   0.51756   0.50760   0.00000  Uiso   1.00
C928   C     0.46509   0.56809   0.50166   0.00000  Uiso   1.00
C929   C     0.52132   0.64790   0.48424   0.00000  Uiso   1.00
C930   C     0.31082   0.42995   0.51541   0.00000  Uiso   1.00
C931   C     0.28664   0.39295   0.48392   0.00000  Uiso   1.00
C932   C     0.24261   0.38649   0.46714   0.00000  Uiso   1.00
C933   C     0.17008   0.36119   0.42976   0.00000  Uiso   1.00
C934   C     0.32424   0.49769   0.56429   0.00000  Uiso   1.00
C935   C     0.33045   0.46923   0.60277   0.00000  Uiso   1.00
C936   C     0.31902   0.47103   0.64754   0.00000  Uiso   1.00
C937   C     0.32738   0.44224   0.67761   0.00000  Uiso   1.00
C938   C     0.37465   0.52716   0.54250   0.00000  Uiso   1.00
C939   C     0.40038   0.57767   0.53659   0.00000  Uiso   1.00
C940   C     0.44595   0.59766   0.51592   0.00000  Uiso   1.00
C941   C     0.29172   0.45946   0.52964   0.00000  Uiso   1.00
C942   C     0.24773   0.45306   0.51291   0.00000  Uiso   1.00
C943   C     0.22348   0.41606   0.48140   0.00000  Uiso   1.00
H944   H     0.37428   0.42038   0.52700   0.00000  Uiso   1.00
H945   H     0.37272   0.38809   0.60752   0.00000  Uiso   1.00
H946   H     0.45407   0.49471   0.49659   0.00000  Uiso   1.00
H947   H     0.30143   0.37012   0.47291   0.00000  Uiso   1.00
H948   H     0.36258   0.36531   0.70306   0.00000  Uiso   1.00
H949   H     0.53409   0.59013   0.46914   0.00000  Uiso   1.00
H950   H     0.21224   0.32741   0.41921   0.00000  Uiso   1.00
H951   H     0.30937   0.52067   0.57537   0.00000  Uiso   1.00
H952   H     0.30424   0.49387   0.65854   0.00000  Uiso   1.00
H953   H     0.38559   0.60050   0.54761   0.00000  Uiso   1.00
H954   H     0.23295   0.47591   0.52393   0.00000  Uiso   1.00
H955   H     0.30700   0.45117   0.74447   0.00000  Uiso   1.00
H956   H     0.47852   0.67599   0.51055   0.00000  Uiso   1.00
H957   H     0.15666   0.41327   0.46063   0.00000  Uiso   1.00
O958   O     0.33260   0.38882   0.77761   0.00000  Uiso   1.00
O959   O     0.55762   0.68377   0.47071   0.00000  Uiso   1.00
O960   O     0.13535   0.33908   0.40521   0.00000  Uiso   1.00
N961   N     0.35019   0.38919   0.70139   0.00000  Uiso   1.00
N962   N     0.51055   0.59938   0.48270   0.00000  Uiso   1.00
N963   N     0.20965   0.35377   0.43601   0.00000  Uiso   1.00
N964   N     0.32028   0.43539   0.72368   0.00000  Uiso   1.00
N965   N     0.48065   0.64558   0.50498   0.00000  Uiso   1.00
N966   N     0.17974   0.39997   0.45830   0.00000  Uiso   1.00
C967   C     0.22331   0.24939   0.87142   0.00000  Uiso   1.00
C968   C     0.22695   0.24317   0.92187   0.00000  Uiso   1.00
C969   C     0.25575   0.28035   0.95188   0.00000  Uiso   1.00
C970   C     0.25399   0.26717   0.99668   0.00000  Uiso   1.00
C971   C     0.26412   0.26492   0.07286   0.00000  Uiso   1.00
C972   C     0.16902   0.22944   0.86160   0.00000  Uiso   1.00
C973   C     0.14911   0.25507   0.84093   0.00000  Uiso   1.00
C974   C     0.09857   0.23033   0.83500   0.00000  Uiso   1.00
C975   C     0.01876   0.20675   0.81758   0.00000  Uiso   1.00
C976   C     0.23672   0.21421   0.84874   0.00000  Uiso   1.00
C977   C     0.27372   0.22702   0.81725   0.00000  Uiso   1.00
C978   C     0.28017   0.18945   0.80048   0.00000  Uiso   1.00
C979   C     0.30547   0.14222   0.76309   0.00000  Uiso   1.00
C980   C     0.16898   0.15988   0.89762   0.00000  Uiso   1.00
C981   C     0.19744   0.19456   0.93610   0.00000  Uiso   1.00
C982   C     0.19563   0.18132   0.98087   0.00000  Uiso   1.00
C983   C     0.22442   0.21847   0.01094   0.00000  Uiso   1.00
C984   C     0.13951   0.18083   0.87584   0.00000  Uiso   1.00
C985   C     0.08899   0.15604   0.86993   0.00000  Uiso   1.00
C986   C     0.06901   0.18163   0.84926   0.00000  Uiso   1.00
C987   C     0.20721   0.16559   0.86298   0.00000  Uiso   1.00
C988   C     0.21360   0.12800   0.84625   0.00000  Uiso   1.00
C989   C     0.25061   0.14075   0.81474   0.00000  Uiso   1.00
H990   H     0.24628   0.28724   0.86034   0.00000  Uiso   1.00
H991   H     0.27858   0.31797   0.94085   0.00000  Uiso   1.00
H992   H     0.17196   0.29269   0.82992   0.00000  Uiso   1.00
H993   H     0.29655   0.26465   0.80624   0.00000  Uiso   1.00
H994   H     0.30136   0.33060   0.03639   0.00000  Uiso   1.00
H995   H     0.07654   0.27730   0.80248   0.00000  Uiso   1.00
H996   H     0.33926   0.21816   0.75255   0.00000  Uiso   1.00
H997   H     0.14600   0.12203   0.90871   0.00000  Uiso   1.00
H998   H     0.17279   0.14370   0.99188   0.00000  Uiso   1.00
H999   H     0.06617   0.11842   0.88094   0.00000  Uiso   1.00
H1000  H     0.19076   0.09038   0.85727   0.00000  Uiso   1.00
H1001  H     0.21549   0.18916   0.07781   0.00000  Uiso   1.00
H1002  H     0.99067   0.13585   0.84389   0.00000  Uiso   1.00
H1003  H     0.25340   0.07672   0.79396   0.00000  Uiso   1.00
O1004  O     0.27785   0.27711   0.11094   0.00000  Uiso   1.00
O1005  O     0.98290   0.20718   0.80404   0.00000  Uiso   1.00
O1006  O     0.32758   0.12960   0.73854   0.00000  Uiso   1.00
N1007  N     0.27748   0.29434   0.03472   0.00000  Uiso   1.00
N1008  N     0.06728   0.24450   0.81603   0.00000  Uiso   1.00
N1009  N     0.31290   0.18922   0.76934   0.00000  Uiso   1.00
N1010  N     0.23128   0.21823   0.05701   0.00000  Uiso   1.00
N1011  N     0.02108   0.16840   0.83832   0.00000  Uiso   1.00
N1012  N     0.26670   0.11311   0.79163   0.00000  Uiso   1.00
C1013  C     0.88998   0.58272   0.20475   0.00000  Uiso   1.00
C1014  C     0.89362   0.57651   0.25520   0.00000  Uiso   1.00
C1015  C     0.92242   0.61368   0.28521   0.00000  Uiso   1.00
C1016  C     0.92065   0.60050   0.33001   0.00000  Uiso   1.00
C1017  C     0.93078   0.59826   0.40619   0.00000  Uiso   1.00
C1018  C     0.83569   0.56278   0.19494   0.00000  Uiso   1.00
C1019  C     0.81577   0.58840   0.17427   0.00000  Uiso   1.00
C1020  C     0.76524   0.56366   0.16833   0.00000  Uiso   1.00
C1021  C     0.68543   0.54009   0.15091   0.00000  Uiso   1.00
C1022  C     0.90338   0.54754   0.18208   0.00000  Uiso   1.00
C1023  C     0.94038   0.56036   0.15058   0.00000  Uiso   1.00
C1024  C     0.94684   0.52279   0.13381   0.00000  Uiso   1.00
C1025  C     0.97214   0.47556   0.09642   0.00000  Uiso   1.00
C1026  C     0.83564   0.49322   0.23096   0.00000  Uiso   1.00
C1027  C     0.86411   0.52789   0.26944   0.00000  Uiso   1.00
C1028  C     0.86230   0.51465   0.31420   0.00000  Uiso   1.00
C1029  C     0.89109   0.55180   0.34427   0.00000  Uiso   1.00
C1030  C     0.80617   0.51416   0.20917   0.00000  Uiso   1.00
C1031  C     0.75566   0.48938   0.20326   0.00000  Uiso   1.00
C1032  C     0.73568   0.51496   0.18259   0.00000  Uiso   1.00
C1033  C     0.87387   0.49893   0.19631   0.00000  Uiso   1.00
C1034  C     0.88027   0.46133   0.17958   0.00000  Uiso   1.00
C1035  C     0.91727   0.47408   0.14807   0.00000  Uiso   1.00
H1036  H     0.91295   0.62057   0.19367   0.00000  Uiso   1.00
H1037  H     0.94525   0.65130   0.27418   0.00000  Uiso   1.00
H1038  H     0.83862   0.62602   0.16325   0.00000  Uiso   1.00
H1039  H     0.96321   0.59798   0.13958   0.00000  Uiso   1.00
H1040  H     0.96802   0.66393   0.36973   0.00000  Uiso   1.00
H1041  H     0.74320   0.61063   0.13581   0.00000  Uiso   1.00
H1042  H     0.00593   0.55150   0.08588   0.00000  Uiso   1.00
H1043  H     0.81266   0.45536   0.24204   0.00000  Uiso   1.00
H1044  H     0.83946   0.47703   0.32521   0.00000  Uiso   1.00
H1045  H     0.73283   0.45175   0.21428   0.00000  Uiso   1.00
H1046  H     0.85742   0.42371   0.19060   0.00000  Uiso   1.00
H1047  H     0.88216   0.52249   0.41114   0.00000  Uiso   1.00
H1048  H     0.65734   0.46919   0.17722   0.00000  Uiso   1.00
H1049  H     0.92006   0.41005   0.12729   0.00000  Uiso   1.00
O1050  O     0.94452   0.61045   0.44427   0.00000  Uiso   1.00
O1051  O     0.64956   0.54051   0.13738   0.00000  Uiso   1.00
O1052  O     0.99425   0.46293   0.07187   0.00000  Uiso   1.00
N1053  N     0.94415   0.62767   0.36806   0.00000  Uiso   1.00
N1054  N     0.73395   0.57784   0.14936   0.00000  Uiso   1.00
N1055  N     0.97957   0.52255   0.10268   0.00000  Uiso   1.00
N1056  N     0.89795   0.55156   0.39034   0.00000  Uiso   1.00
N1057  N     0.68775   0.50173   0.17165   0.00000  Uiso   1.00
N1058  N     0.93337   0.44644   0.12496   0.00000  Uiso   1.00
C1059  C     0.55664   0.91605   0.53809   0.00000  Uiso   1.00
C1060  C     0.56029   0.90984   0.58854   0.00000  Uiso   1.00
C1061  C     0.58908   0.94701   0.61854   0.00000  Uiso   1.00
C1062  C     0.58732   0.93384   0.66335   0.00000  Uiso   1.00
C1063  C     0.59745   0.93159   0.73952   0.00000  Uiso   1.00
C1064  C     0.50235   0.89611   0.52827   0.00000  Uiso   1.00
C1065  C     0.48244   0.92174   0.50760   0.00000  Uiso   1.00
C1066  C     0.43191   0.89700   0.50166   0.00000  Uiso   1.00
C1067  C     0.35210   0.87342   0.48424   0.00000  Uiso   1.00
C1068  C     0.57005   0.88088   0.51541   0.00000  Uiso   1.00
C1069  C     0.60705   0.89369   0.48392   0.00000  Uiso   1.00
C1070  C     0.61351   0.85612   0.46714   0.00000  Uiso   1.00
C1071  C     0.63881   0.80889   0.42976   0.00000  Uiso   1.00
C1072  C     0.50231   0.82655   0.56429   0.00000  Uiso   1.00
C1073  C     0.53077   0.86122   0.60277   0.00000  Uiso   1.00
C1074  C     0.52897   0.84799   0.64754   0.00000  Uiso   1.00
C1075  C     0.55776   0.88513   0.67761   0.00000  Uiso   1.00
C1076  C     0.47284   0.84750   0.54250   0.00000  Uiso   1.00
C1077  C     0.42233   0.82271   0.53659   0.00000  Uiso   1.00
C1078  C     0.40234   0.84829   0.51592   0.00000  Uiso   1.00
C1079  C     0.54054   0.83226   0.52964   0.00000  Uiso   1.00
C1080  C     0.54694   0.79466   0.51291   0.00000  Uiso   1.00
C1081  C     0.58394   0.80742   0.48140   0.00000  Uiso   1.00
H1082  H     0.57962   0.95390   0.52700   0.00000  Uiso   1.00
H1083  H     0.61191   0.98463   0.60752   0.00000  Uiso   1.00
H1084  H     0.50529   0.95936   0.49659   0.00000  Uiso   1.00
H1085  H     0.62988   0.93131   0.47291   0.00000  Uiso   1.00
H1086  H     0.63469   0.99727   0.70306   0.00000  Uiso   1.00
H1087  H     0.40987   0.94396   0.46914   0.00000  Uiso   1.00
H1088  H     0.67259   0.88483   0.41921   0.00000  Uiso   1.00
H1089  H     0.47933   0.78870   0.57537   0.00000  Uiso   1.00
H1090  H     0.50613   0.81036   0.65854   0.00000  Uiso   1.00
H1091  H     0.39950   0.78509   0.54761   0.00000  Uiso   1.00
H1092  H     0.52409   0.75705   0.52393   0.00000  Uiso   1.00
H1093  H     0.54883   0.85582   0.74447   0.00000  Uiso   1.00
H1094  H     0.32401   0.80252   0.51055   0.00000  Uiso   1.00
H1095  H     0.58673   0.74339   0.46063   0.00000  Uiso   1.00
O1096  O     0.61118   0.94378   0.77761   0.00000  Uiso   1.00
O1097  O     0.31623   0.87385   0.47071   0.00000  Uiso   1.00
O1098  O     0.66092   0.79627   0.40521   0.00000  Uiso   1.00
N1099  N     0.61081   0.96100   0.70139   0.00000  Uiso   1.00
N1100  N     0.40062   0.91117   0.48270   0.00000  Uiso   1.00
N1101  N     0.64623   0.85589   0.43601   0.00000  Uiso   1.00
N1102  N     0.56461   0.88489   0.72368   0.00000  Uiso   1.00
N1103  N     0.35442   0.83506   0.50498   0.00000  Uiso   1.00
N1104  N     0.60003   0.77978   0.45830   0.00000  Uiso   1.00
C1105  C     0.75061   0.97392   0.87142   0.00000  Uiso   1.00
C1106  C     0.75683   0.98378   0.92187   0.00000  Uiso   1.00
C1107  C     0.71965   0.97540   0.95188   0.00000  Uiso   1.00
C1108  C     0.73283   0.98682   0.99668   0.00000  Uiso   1.00
C1109  C     0.73508   0.99919   0.07286   0.00000  Uiso   1.00
C1110  C     0.77056   0.93958   0.86160   0.00000  Uiso   1.00
C1111  C     0.74493   0.89404   0.84093   0.00000  Uiso   1.00
C1112  C     0.76967   0.86825   0.83500   0.00000  Uiso   1.00
C1113  C     0.79325   0.81201   0.81758   0.00000  Uiso   1.00
C1114  C     0.78579   0.02251   0.84874   0.00000  Uiso   1.00
C1115  C     0.77298   0.04669   0.81725   0.00000  Uiso   1.00
C1116  C     0.81055   0.09072   0.80048   0.00000  Uiso   1.00
C1117  C     0.85778   0.16325   0.76309   0.00000  Uiso   1.00
C1118  C     0.84012   0.00909   0.89762   0.00000  Uiso   1.00
C1119  C     0.80544   0.00288   0.93610   0.00000  Uiso   1.00
C1120  C     0.81868   0.01431   0.98087   0.00000  Uiso   1.00
C1121  C     0.78153   0.00596   0.01094   0.00000  Uiso   1.00
C1122  C     0.81917   0.95868   0.87584   0.00000  Uiso   1.00
C1123  C     0.84396   0.93295   0.86993   0.00000  Uiso   1.00
C1124  C     0.81837   0.88738   0.84926   0.00000  Uiso   1.00
C1125  C     0.83441   0.04161   0.86298   0.00000  Uiso   1.00
C1126  C     0.87200   0.08561   0.84625   0.00000  Uiso   1.00
C1127  C     0.85925   0.10986   0.81474   0.00000  Uiso   1.00
H1128  H     0.71276   0.95905   0.86034   0.00000  Uiso   1.00
H1129  H     0.68203   0.96061   0.94085   0.00000  Uiso   1.00
H1130  H     0.70731   0.87927   0.82992   0.00000  Uiso   1.00
H1131  H     0.73535   0.03190   0.80624   0.00000  Uiso   1.00
H1132  H     0.66940   0.97076   0.03639   0.00000  Uiso   1.00
H1133  H     0.72270   0.79924   0.80248   0.00000  Uiso   1.00
H1134  H     0.78184   0.12110   0.75255   0.00000  Uiso   1.00
H1135  H     0.87797   0.02397   0.90871   0.00000  Uiso   1.00
H1136  H     0.85630   0.02910   0.99188   0.00000  Uiso   1.00
H1137  H     0.88158   0.94775   0.88094   0.00000  Uiso   1.00
H1138  H     0.90962   0.10038   0.85727   0.00000  Uiso   1.00
H1139  H     0.81084   0.02634   0.07781   0.00000  Uiso   1.00
H1140  H     0.86415   0.85482   0.84389   0.00000  Uiso   1.00
H1141  H     0.92328   0.17668   0.79396   0.00000  Uiso   1.00
O1142  O     0.72289   0.00074   0.11094   0.00000  Uiso   1.00
O1143  O     0.79282   0.77571   0.80404   0.00000  Uiso   1.00
O1144  O     0.87040   0.19798   0.73854   0.00000  Uiso   1.00
N1145  N     0.70566   0.98314   0.03472   0.00000  Uiso   1.00
N1146  N     0.75550   0.82278   0.81603   0.00000  Uiso   1.00
N1147  N     0.81078   0.12368   0.76934   0.00000  Uiso   1.00
N1148  N     0.78177   0.01305   0.05701   0.00000  Uiso   1.00
N1149  N     0.83160   0.85269   0.83832   0.00000  Uiso   1.00
N1150  N     0.88689   0.15359   0.79163   0.00000  Uiso   1.00
C1151  C     0.41728   0.30726   0.20475   0.00000  Uiso   1.00
C1152  C     0.42349   0.31711   0.25520   0.00000  Uiso   1.00
C1153  C     0.38632   0.30874   0.28521   0.00000  Uiso   1.00
C1154  C     0.39950   0.32015   0.33001   0.00000  Uiso   1.00
C1155  C     0.40174   0.33253   0.40619   0.00000  Uiso   1.00
C1156  C     0.43722   0.27291   0.19494   0.00000  Uiso   1.00
C1157  C     0.41160   0.22737   0.17427   0.00000  Uiso   1.00
C1158  C     0.43634   0.20158   0.16833   0.00000  Uiso   1.00
C1159  C     0.45991   0.14535   0.15091   0.00000  Uiso   1.00
C1160  C     0.45246   0.35584   0.18208   0.00000  Uiso   1.00
C1161  C     0.43964   0.38003   0.15058   0.00000  Uiso   1.00
C1162  C     0.47721   0.42405   0.13381   0.00000  Uiso   1.00
C1163  C     0.52444   0.49658   0.09642   0.00000  Uiso   1.00
C1164  C     0.50678   0.34243   0.23096   0.00000  Uiso   1.00
C1165  C     0.47211   0.33622   0.26944   0.00000  Uiso   1.00
C1166  C     0.48535   0.34765   0.31420   0.00000  Uiso   1.00
C1167  C     0.44820   0.33929   0.34427   0.00000  Uiso   1.00
C1168  C     0.48584   0.29201   0.20917   0.00000  Uiso   1.00
C1169  C     0.51062   0.26628   0.20326   0.00000  Uiso   1.00
C1170  C     0.48504   0.22072   0.18259   0.00000  Uiso   1.00
C1171  C     0.50107   0.37495   0.19631   0.00000  Uiso   1.00
C1172  C     0.53867   0.41894   0.17958   0.00000  Uiso   1.00
C1173  C     0.52592   0.44319   0.14807   0.00000  Uiso   1.00
H1174  H     0.37943   0.29238   0.19367   0.00000  Uiso   1.00
H1175  H     0.34870   0.29395   0.27418   0.00000  Uiso   1.00
H1176  H     0.37398   0.21260   0.16325   0.00000  Uiso   1.00
H1177  H     0.40202   0.36523   0.13958   0.00000  Uiso   1.00
H1178  H     0.33607   0.30409   0.36973   0.00000  Uiso   1.00
H1179  H     0.38937   0.13257   0.13581   0.00000  Uiso   1.00
H1180  H     0.44850   0.45443   0.08588   0.00000  Uiso   1.00
H1181  H     0.54464   0.35730   0.24204   0.00000  Uiso   1.00
H1182  H     0.52297   0.36243   0.32521   0.00000  Uiso   1.00
H1183  H     0.54825   0.28108   0.21428   0.00000  Uiso   1.00
H1184  H     0.57629   0.43371   0.19060   0.00000  Uiso   1.00
H1185  H     0.47751   0.35967   0.41114   0.00000  Uiso   1.00
H1186  H     0.53081   0.18815   0.17722   0.00000  Uiso   1.00
H1187  H     0.58995   0.51001   0.12729   0.00000  Uiso   1.00
O1188  O     0.38955   0.33407   0.44427   0.00000  Uiso   1.00
O1189  O     0.45949   0.10905   0.13738   0.00000  Uiso   1.00
O1190  O     0.53707   0.53132   0.07187   0.00000  Uiso   1.00
N1191  N     0.37233   0.31648   0.36806   0.00000  Uiso   1.00
N1192  N     0.42216   0.15611   0.14936   0.00000  Uiso   1.00
N1193  N     0.47745   0.45702   0.10268   0.00000  Uiso   1.00
N1194  N     0.44844   0.34638   0.39034   0.00000  Uiso   1.00
N1195  N     0.49827   0.18602   0.17165   0.00000  Uiso   1.00
N1196  N     0.55356   0.48692   0.12496   0.00000  Uiso   1.00
C1197  C     0.08395   0.64059   0.53809   0.00000  Uiso   1.00
C1198  C     0.09016   0.65045   0.58854   0.00000  Uiso   1.00
C1199  C     0.05299   0.64207   0.61854   0.00000  Uiso   1.00
C1200  C     0.06616   0.65348   0.66335   0.00000  Uiso   1.00
C1201  C     0.06841   0.66586   0.73952   0.00000  Uiso   1.00
C1202  C     0.10389   0.60624   0.52827   0.00000  Uiso   1.00
C1203  C     0.07826   0.56070   0.50760   0.00000  Uiso   1.00
C1204  C     0.10300   0.53491   0.50166   0.00000  Uiso   1.00
C1205  C     0.12658   0.47868   0.48424   0.00000  Uiso   1.00
C1206  C     0.11912   0.68918   0.51541   0.00000  Uiso   1.00
C1207  C     0.10631   0.71336   0.48392   0.00000  Uiso   1.00
C1208  C     0.14388   0.75739   0.46714   0.00000  Uiso   1.00
C1209  C     0.19111   0.82992   0.42976   0.00000  Uiso   1.00
C1210  C     0.17345   0.67576   0.56429   0.00000  Uiso   1.00
C1211  C     0.13878   0.66955   0.60277   0.00000  Uiso   1.00
C1212  C     0.15201   0.68098   0.64754   0.00000  Uiso   1.00
C1213  C     0.11487   0.67262   0.67761   0.00000  Uiso   1.00
C1214  C     0.15250   0.62535   0.54250   0.00000  Uiso   1.00
C1215  C     0.17729   0.59962   0.53659   0.00000  Uiso   1.00
C1216  C     0.15171   0.55405   0.51592   0.00000  Uiso   1.00
C1217  C     0.16774   0.70828   0.52964   0.00000  Uiso   1.00
C1218  C     0.20534   0.75227   0.51291   0.00000  Uiso   1.00
C1219  C     0.19258   0.77652   0.48140   0.00000  Uiso   1.00
H1220  H     0.04610   0.62572   0.52700   0.00000  Uiso   1.00
H1221  H     0.01537   0.62728   0.60752   0.00000  Uiso   1.00
H1222  H     0.04064   0.54593   0.49659   0.00000  Uiso   1.00
H1223  H     0.06869   0.69857   0.47291   0.00000  Uiso   1.00
H1224  H     0.00273   0.63742   0.70306   0.00000  Uiso   1.00
H1225  H     0.05604   0.46591   0.46914   0.00000  Uiso   1.00
H1226  H     0.11517   0.78776   0.41921   0.00000  Uiso   1.00
H1227  H     0.21130   0.69063   0.57537   0.00000  Uiso   1.00
H1228  H     0.18964   0.69576   0.65854   0.00000  Uiso   1.00
H1229  H     0.21491   0.61441   0.54761   0.00000  Uiso   1.00
H1230  H     0.24295   0.76705   0.52393   0.00000  Uiso   1.00
H1231  H     0.14418   0.69300   0.74447   0.00000  Uiso   1.00
H1232  H     0.19748   0.52148   0.51055   0.00000  Uiso   1.00
H1233  H     0.25661   0.84334   0.46063   0.00000  Uiso   1.00
O1234  O     0.05622   0.66740   0.77761   0.00000  Uiso   1.00
O1235  O     0.12615   0.44238   0.47071   0.00000  Uiso   1.00
O1236  O     0.20373   0.86465   0.40521   0.00000  Uiso   1.00
N1237  N     0.03900   0.64981   0.70139   0.00000  Uiso   1.00
N1238  N     0.08883   0.48945   0.48270   0.00000  Uiso   1.00
N1239  N     0.14411   0.79035   0.43601   0.00000  Uiso   1.00
N1240  N     0.11511   0.67972   0.72368   0.00000  Uiso   1.00
N1241  N     0.16494   0.51935   0.50498   0.00000  Uiso   1.00
N1242  N     0.22022   0.82026   0.45830   0.00000  Uiso   1.00
C1243  C     0.77669   0.02608   0.62858   0.00000  Uiso   1.00
C1244  C     0.77305   0.01622   0.57813   0.00000  Uiso   1.00
C1245  C     0.74425   0.02460   0.54812   0.00000  Uiso   1.00
C1246  C     0.74601   0.01318   0.50332   0.00000  Uiso   1.00
C1247  C     0.73588   0.00081   0.42714   0.00000  Uiso   1.00
C1248  C     0.83098   0.06042   0.63840   0.00000  Uiso   1.00
C1249  C     0.85089   0.10596   0.65907   0.00000  Uiso   1.00
C1250  C     0.90143   0.13175   0.66500   0.00000  Uiso   1.00
C1251  C     0.98124   0.18799   0.68242   0.00000  Uiso   1.00
C1252  C     0.76328   0.97749   0.65126   0.00000  Uiso   1.00
C1253  C     0.72628   0.95331   0.68275   0.00000  Uiso   1.00
C1254  C     0.71983   0.90928   0.69952   0.00000  Uiso   1.00
C1255  C     0.69453   0.83675   0.73691   0.00000  Uiso   1.00
C1256  C     0.83102   0.99091   0.60238   0.00000  Uiso   1.00
C1257  C     0.80256   0.99712   0.56390   0.00000  Uiso   1.00
C1258  C     0.80437   0.98569   0.51913   0.00000  Uiso   1.00
C1259  C     0.77558   0.99404   0.48906   0.00000  Uiso   1.00
C1260  C     0.86049   0.04132   0.62416   0.00000  Uiso   1.00
C1261  C     0.91101   0.06705   0.63007   0.00000  Uiso   1.00
C1262  C     0.93099   0.11262   0.65074   0.00000  Uiso   1.00
C1263  C     0.79279   0.95839   0.63702   0.00000  Uiso   1.00
C1264  C     0.78640   0.91439   0.65375   0.00000  Uiso   1.00
C1265  C     0.74939   0.89014   0.68526   0.00000  Uiso   1.00
H1266  H     0.75372   0.04095   0.63966   0.00000  Uiso   1.00
H1267  H     0.72142   0.03939   0.55915   0.00000  Uiso   1.00
H1268  H     0.82804   0.12073   0.67008   0.00000  Uiso   1.00
H1269  H     0.70345   0.96810   0.69376   0.00000  Uiso   1.00
H1270  H     0.69864   0.02924   0.46361   0.00000  Uiso   1.00
H1271  H     0.92346   0.20076   0.69752   0.00000  Uiso   1.00
H1272  H     0.66074   0.87890   0.74745   0.00000  Uiso   1.00
H1273  H     0.85400   0.97603   0.59129   0.00000  Uiso   1.00
H1274  H     0.82721   0.97090   0.50812   0.00000  Uiso   1.00
H1275  H     0.93383   0.05225   0.61906   0.00000  Uiso   1.00
H1276  H     0.80924   0.89962   0.64273   0.00000  Uiso   1.00
H1277  H     0.78451   0.97366   0.42219   0.00000  Uiso   1.00
H1278  H     0.00933   0.14518   0.65611   0.00000  Uiso   1.00
H1279  H     0.74660   0.82332   0.70604   0.00000  Uiso   1.00
O1280  O     0.72215   0.99926   0.38906   0.00000  Uiso   1.00
O1281  O     0.01710   0.22429   0.69596   0.00000  Uiso   1.00
O1282  O     0.67242   0.80202   0.76146   0.00000  Uiso   1.00
N1283  N     0.72252   0.01686   0.46528   0.00000  Uiso   1.00
N1284  N     0.93272   0.17722   0.68397   0.00000  Uiso   1.00
N1285  N     0.68710   0.87632   0.73066   0.00000  Uiso   1.00
N1286  N     0.76872   0.98695   0.44299   0.00000  Uiso   1.00
N1287  N     0.97892   0.14731   0.66168   0.00000  Uiso   1.00
N1288  N     0.73330   0.84641   0.70837   0.00000  Uiso   1.00
C1289  C     0.44336   0.35941   0.96191   0.00000  Uiso   1.00
C1290  C     0.43971   0.34955   0.91146   0.00000  Uiso   1.00
C1291  C     0.41092   0.35793   0.88146   0.00000  Uiso   1.00
C1292  C     0.41268   0.34652   0.83665   0.00000  Uiso   1.00
C1293  C     0.40255   0.33414   0.76048   0.00000  Uiso   1.00
C1294  C     0.49765   0.39376   0.97173   0.00000  Uiso   1.00
C1295  C     0.51756   0.43930   0.99240   0.00000  Uiso   1.00
C1296  C     0.56809   0.46509   0.99834   0.00000  Uiso   1.00
C1297  C     0.64790   0.52132   0.01576   0.00000  Uiso   1.00
C1298  C     0.42995   0.31082   0.98459   0.00000  Uiso   1.00
C1299  C     0.39295   0.28664   0.01608   0.00000  Uiso   1.00
C1300  C     0.38649   0.24261   0.03286   0.00000  Uiso   1.00
C1301  C     0.36119   0.17008   0.07024   0.00000  Uiso   1.00
C1302  C     0.49769   0.32424   0.93571   0.00000  Uiso   1.00
C1303  C     0.46923   0.33045   0.89723   0.00000  Uiso   1.00
C1304  C     0.47103   0.31902   0.85246   0.00000  Uiso   1.00
C1305  C     0.44224   0.32738   0.82239   0.00000  Uiso   1.00
C1306  C     0.52716   0.37465   0.95750   0.00000  Uiso   1.00
C1307  C     0.57767   0.40038   0.96341   0.00000  Uiso   1.00
C1308  C     0.59766   0.44595   0.98408   0.00000  Uiso   1.00
C1309  C     0.45946   0.29172   0.97036   0.00000  Uiso   1.00
C1310  C     0.45306   0.24773   0.98709   0.00000  Uiso   1.00
C1311  C     0.41606   0.22348   0.01860   0.00000  Uiso   1.00
H1312  H     0.42038   0.37428   0.97300   0.00000  Uiso   1.00
H1313  H     0.38809   0.37272   0.89248   0.00000  Uiso   1.00
H1314  H     0.49471   0.45407   0.00341   0.00000  Uiso   1.00
H1315  H     0.37012   0.30143   0.02709   0.00000  Uiso   1.00
H1316  H     0.36531   0.36258   0.79694   0.00000  Uiso   1.00
H1317  H     0.59013   0.53409   0.03086   0.00000  Uiso   1.00
H1318  H     0.32741   0.21224   0.08079   0.00000  Uiso   1.00
H1319  H     0.52067   0.30937   0.92463   0.00000  Uiso   1.00
H1320  H     0.49387   0.30424   0.84146   0.00000  Uiso   1.00
H1321  H     0.60050   0.38559   0.95239   0.00000  Uiso   1.00
H1322  H     0.47591   0.23295   0.97607   0.00000  Uiso   1.00
H1323  H     0.45117   0.30700   0.75553   0.00000  Uiso   1.00
H1324  H     0.67599   0.47852   0.98945   0.00000  Uiso   1.00
H1325  H     0.41327   0.15666   0.03937   0.00000  Uiso   1.00
O1326  O     0.38882   0.33260   0.72239   0.00000  Uiso   1.00
O1327  O     0.68377   0.55762   0.02929   0.00000  Uiso   1.00
O1328  O     0.33908   0.13535   0.09479   0.00000  Uiso   1.00
N1329  N     0.38919   0.35019   0.79861   0.00000  Uiso   1.00
N1330  N     0.59938   0.51055   0.01730   0.00000  Uiso   1.00
N1331  N     0.35377   0.20965   0.06399   0.00000  Uiso   1.00
N1332  N     0.43539   0.32028   0.77632   0.00000  Uiso   1.00
N1333  N     0.64558   0.48065   0.99502   0.00000  Uiso   1.00
N1334  N     0.39997   0.17974   0.04170   0.00000  Uiso   1.00
C1335  C     0.11002   0.69274   0.29525   0.00000  Uiso   1.00
C1336  C     0.10638   0.68289   0.24480   0.00000  Uiso   1.00
C1337  C     0.07758   0.69126   0.21479   0.00000  Uiso   1.00
C1338  C     0.07935   0.67985   0.16999   0.00000  Uiso   1.00
C1339  C     0.06922   0.66747   0.09381   0.00000  Uiso   1.00
C1340  C     0.16431   0.72709   0.30506   0.00000  Uiso   1.00
C1341  C     0.18423   0.77263   0.32573   0.00000  Uiso   1.00
C1342  C     0.23476   0.79842   0.33167   0.00000  Uiso   1.00
C1343  C     0.31457   0.85465   0.34909   0.00000  Uiso   1.00
C1344  C     0.09662   0.64416   0.31792   0.00000  Uiso   1.00
C1345  C     0.05962   0.61997   0.34942   0.00000  Uiso   1.00
C1346  C     0.05316   0.57595   0.36619   0.00000  Uiso   1.00
C1347  C     0.02786   0.50342   0.40358   0.00000  Uiso   1.00
C1348  C     0.16436   0.65757   0.26904   0.00000  Uiso   1.00
C1349  C     0.13589   0.66378   0.23056   0.00000  Uiso   1.00
C1350  C     0.13770   0.65235   0.18580   0.00000  Uiso   1.00
C1351  C     0.10891   0.66071   0.15573   0.00000  Uiso   1.00
C1352  C     0.19383   0.70799   0.29083   0.00000  Uiso   1.00
C1353  C     0.24434   0.73372   0.29674   0.00000  Uiso   1.00
C1354  C     0.26432   0.77928   0.31741   0.00000  Uiso   1.00
C1355  C     0.12613   0.62505   0.30369   0.00000  Uiso   1.00
C1356  C     0.11973   0.58106   0.32042   0.00000  Uiso   1.00
C1357  C     0.08273   0.55681   0.35193   0.00000  Uiso   1.00
H1358  H     0.08705   0.70762   0.30633   0.00000  Uiso   1.00
H1359  H     0.05475   0.70605   0.22582   0.00000  Uiso   1.00
H1360  H     0.16138   0.78740   0.33675   0.00000  Uiso   1.00
H1361  H     0.03679   0.63477   0.36042   0.00000  Uiso   1.00
H1362  H     0.03198   0.69591   0.13027   0.00000  Uiso   1.00
H1363  H     0.25680   0.86743   0.36419   0.00000  Uiso   1.00
H1364  H     0.99407   0.54557   0.41412   0.00000  Uiso   1.00
H1365  H     0.18734   0.64270   0.25796   0.00000  Uiso   1.00
H1366  H     0.16054   0.63757   0.17479   0.00000  Uiso   1.00
H1367  H     0.26717   0.71892   0.28572   0.00000  Uiso   1.00
H1368  H     0.14258   0.56629   0.30940   0.00000  Uiso   1.00
H1369  H     0.11784   0.64033   0.08886   0.00000  Uiso   1.00
H1370  H     0.34266   0.81185   0.32278   0.00000  Uiso   1.00
H1371  H     0.07994   0.48999   0.37271   0.00000  Uiso   1.00
O1372  O     0.05548   0.66593   0.05573   0.00000  Uiso   1.00
O1373  O     0.35044   0.89095   0.36262   0.00000  Uiso   1.00
O1374  O     0.00575   0.46868   0.42813   0.00000  Uiso   1.00
N1375  N     0.05585   0.68352   0.13194   0.00000  Uiso   1.00
N1376  N     0.26605   0.84389   0.35064   0.00000  Uiso   1.00
N1377  N     0.02043   0.54298   0.39732   0.00000  Uiso   1.00
N1378  N     0.10205   0.65362   0.10966   0.00000  Uiso   1.00
N1379  N     0.31225   0.81398   0.32835   0.00000  Uiso   1.00
N1380  N     0.06663   0.51308   0.37504   0.00000  Uiso   1.00
C1381  C     0.24939   0.22331   0.62858   0.00000  Uiso   1.00
C1382  C     0.24317   0.22695   0.57813   0.00000  Uiso   1.00
C1383  C     0.28035   0.25575   0.54812   0.00000  Uiso   1.00
C1384  C     0.26717   0.25399   0.50332   0.00000  Uiso   1.00
C1385  C     0.26492   0.26412   0.42714   0.00000  Uiso   1.00
C1386  C     0.22944   0.16902   0.63840   0.00000  Uiso   1.00
C1387  C     0.25507   0.14911   0.65907   0.00000  Uiso   1.00
C1388  C     0.23033   0.09857   0.66500   0.00000  Uiso   1.00
C1389  C     0.20675   0.01876   0.68242   0.00000  Uiso   1.00
C1390  C     0.21421   0.23672   0.65126   0.00000  Uiso   1.00
C1391  C     0.22702   0.27372   0.68275   0.00000  Uiso   1.00
C1392  C     0.18945   0.28017   0.69952   0.00000  Uiso   1.00
C1393  C     0.14222   0.30547   0.73691   0.00000  Uiso   1.00
C1394  C     0.15988   0.16898   0.60238   0.00000  Uiso   1.00
C1395  C     0.19456   0.19744   0.56390   0.00000  Uiso   1.00
C1396  C     0.18132   0.19563   0.51913   0.00000  Uiso   1.00
C1397  C     0.21847   0.22442   0.48906   0.00000  Uiso   1.00
C1398  C     0.18083   0.13951   0.62416   0.00000  Uiso   1.00
C1399  C     0.15604   0.08899   0.63007   0.00000  Uiso   1.00
C1400  C     0.18163   0.06901   0.65074   0.00000  Uiso   1.00
C1401  C     0.16559   0.20721   0.63702   0.00000  Uiso   1.00
C1402  C     0.12800   0.21360   0.65375   0.00000  Uiso   1.00
C1403  C     0.14075   0.25061   0.68526   0.00000  Uiso   1.00
H1404  H     0.28724   0.24628   0.63966   0.00000  Uiso   1.00
H1405  H     0.31797   0.27858   0.55915   0.00000  Uiso   1.00
H1406  H     0.29269   0.17196   0.67008   0.00000  Uiso   1.00
H1407  H     0.26465   0.29655   0.69376   0.00000  Uiso   1.00
H1408  H     0.33060   0.30136   0.46361   0.00000  Uiso   1.00
H1409  H     0.27730   0.07654   0.69752   0.00000  Uiso   1.00
H1410  H     0.21816   0.33926   0.74745   0.00000  Uiso   1.00
H1411  H     0.12203   0.14600   0.59129   0.00000  Uiso   1.00
H1412  H     0.14370   0.17279   0.50812   0.00000  Uiso   1.00
H1413  H     0.11842   0.06617   0.61906   0.00000  Uiso   1.00
H1414  H     0.09038   0.19076   0.64273   0.00000  Uiso   1.00
H1415  H     0.18916   0.21549   0.42219   0.00000  Uiso   1.00
H1416  H     0.13585   0.99067   0.65611   0.00000  Uiso   1.00
H1417  H     0.07672   0.25340   0.70604   0.00000  Uiso   1.00
O1418  O     0.27711   0.27785   0.38906   0.00000  Uiso   1.00
O1419  O     0.20718   0.98290   0.69596   0.00000  Uiso   1.00
O1420  O     0.12960   0.32758   0.76146   0.00000  Uiso   1.00
N1421  N     0.29434   0.27748   0.46528   0.00000  Uiso   1.00
N1422  N     0.24450   0.06728   0.68397   0.00000  Uiso   1.00
N1423  N     0.18922   0.31290   0.73066   0.00000  Uiso   1.00
N1424  N     0.21823   0.23128   0.44299   0.00000  Uiso   1.00
N1425  N     0.16840   0.02108   0.66168   0.00000  Uiso   1.00
N1426  N     0.11311   0.26670   0.70837   0.00000  Uiso   1.00
C1427  C     0.91605   0.55664   0.96191   0.00000  Uiso   1.00
C1428  C     0.90984   0.56029   0.91146   0.00000  Uiso   1.00
C1429  C     0.94701   0.58908   0.88146   0.00000  Uiso   1.00
C1430  C     0.93384   0.58732   0.83665   0.00000  Uiso   1.00
C1431  C     0.93159   0.59745   0.76048   0.00000  Uiso   1.00
C1432  C     0.89611   0.50235   0.97173   0.00000  Uiso   1.00
C1433  C     0.92174   0.48244   0.99240   0.00000  Uiso   1.00
C1434  C     0.89700   0.43191   0.99834   0.00000  Uiso   1.00
C1435  C     0.87342   0.35210   0.01576   0.00000  Uiso   1.00
C1436  C     0.88088   0.57005   0.98459   0.00000  Uiso   1.00
C1437  C     0.89369   0.60705   0.01608   0.00000  Uiso   1.00
C1438  C     0.85612   0.61351   0.03286   0.00000  Uiso   1.00
C1439  C     0.80889   0.63881   0.07024   0.00000  Uiso   1.00
C1440  C     0.82655   0.50231   0.93571   0.00000  Uiso   1.00
C1441  C     0.86122   0.53077   0.89723   0.00000  Uiso   1.00
C1442  C     0.84799   0.52897   0.85246   0.00000  Uiso   1.00
C1443  C     0.88513   0.55776   0.82239   0.00000  Uiso   1.00
C1444  C     0.84750   0.47284   0.95750   0.00000  Uiso   1.00
C1445  C     0.82271   0.42233   0.96341   0.00000  Uiso   1.00
C1446  C     0.84829   0.40234   0.98408   0.00000  Uiso   1.00
C1447  C     0.83226   0.54054   0.97036   0.00000  Uiso   1.00
C1448  C     0.79466   0.54694   0.98709   0.00000  Uiso   1.00
C1449  C     0.80742   0.58394   0.01860   0.00000  Uiso   1.00
H1450  H     0.95390   0.57962   0.97300   0.00000  Uiso   1.00
H1451  H     0.98463   0.61191   0.89248   0.00000  Uiso   1.00
H1452  H     0.95936   0.50529   0.00341   0.00000  Uiso   1.00
H1453  H     0.93131   0.62988   0.02709   0.00000  Uiso   1.00
H1454  H     0.99727   0.63469   0.79694   0.00000  Uiso   1.00
H1455  H     0.94396   0.40987   0.03086   0.00000  Uiso   1.00
H1456  H     0.88483   0.67259   0.08079   0.00000  Uiso   1.00
H1457  H     0.78870   0.47933   0.92463   0.00000  Uiso   1.00
H1458  H     0.81036   0.50613   0.84146   0.00000  Uiso   1.00
H1459  H     0.78509   0.39950   0.95239   0.00000  Uiso   1.00
H1460  H     0.75705   0.52409   0.97607   0.00000  Uiso   1.00
H1461  H     0.85582   0.54883   0.75553   0.00000  Uiso   1.00
H1462  H     0.80252   0.32401   0.98945   0.00000  Uiso   1.00
H1463  H     0.74339   0.58673   0.03937   0.00000  Uiso   1.00
O1464  O     0.94378   0.61118   0.72239   0.00000  Uiso   1.00
O1465  O     0.87385   0.31623   0.02929   0.00000  Uiso   1.00
O1466  O     0.79627   0.66092   0.09479   0.00000  Uiso   1.00
N1467  N     0.96100   0.61081   0.79861   0.00000  Uiso   1.00
N1468  N     0.91117   0.40062   0.01730   0.00000  Uiso   1.00
N1469  N     0.85589   0.64623   0.06399   0.00000  Uiso   1.00
N1470  N     0.88489   0.56461   0.77632   0.00000  Uiso   1.00
N1471  N     0.83506   0.35442   0.99502   0.00000  Uiso   1.00
N1472  N     0.77978   0.60003   0.04170   0.00000  Uiso   1.00
C1473  C     0.58272   0.88998   0.29525   0.00000  Uiso   1.00
C1474  C     0.57651   0.89362   0.24480   0.00000  Uiso   1.00
C1475  C     0.61368   0.92242   0.21479   0.00000  Uiso   1.00
C1476  C     0.60050   0.92065   0.16999   0.00000  Uiso   1.00
C1477  C     0.59826   0.93078   0.09381   0.00000  Uiso   1.00
C1478  C     0.56278   0.83569   0.30506   0.00000  Uiso   1.00
C1479  C     0.58840   0.81577   0.32573   0.00000  Uiso   1.00
C1480  C     0.56366   0.76524   0.33167   0.00000  Uiso   1.00
C1481  C     0.54009   0.68543   0.34909   0.00000  Uiso   1.00
C1482  C     0.54754   0.90338   0.31792   0.00000  Uiso   1.00
C1483  C     0.56036   0.94038   0.34942   0.00000  Uiso   1.00
C1484  C     0.52279   0.94684   0.36619   0.00000  Uiso   1.00
C1485  C     0.47556   0.97214   0.40358   0.00000  Uiso   1.00
C1486  C     0.49322   0.83564   0.26904   0.00000  Uiso   1.00
C1487  C     0.52789   0.86411   0.23056   0.00000  Uiso   1.00
C1488  C     0.51465   0.86230   0.18580   0.00000  Uiso   1.00
C1489  C     0.55180   0.89109   0.15573   0.00000  Uiso   1.00
C1490  C     0.51416   0.80617   0.29083   0.00000  Uiso   1.00
C1491  C     0.48938   0.75566   0.29674   0.00000  Uiso   1.00
C1492  C     0.51496   0.73568   0.31741   0.00000  Uiso   1.00
C1493  C     0.49893   0.87387   0.30369   0.00000  Uiso   1.00
C1494  C     0.46133   0.88027   0.32042   0.00000  Uiso   1.00
C1495  C     0.47408   0.91727   0.35193   0.00000  Uiso   1.00
H1496  H     0.62057   0.91295   0.30633   0.00000  Uiso   1.00
H1497  H     0.65130   0.94525   0.22582   0.00000  Uiso   1.00
H1498  H     0.62602   0.83862   0.33675   0.00000  Uiso   1.00
H1499  H     0.59798   0.96321   0.36042   0.00000  Uiso   1.00
H1500  H     0.66393   0.96802   0.13027   0.00000  Uiso   1.00
H1501  H     0.61063   0.74320   0.36419   0.00000  Uiso   1.00
H1502  H     0.55150   0.00593   0.41412   0.00000  Uiso   1.00
H1503  H     0.45536   0.81266   0.25796   0.00000  Uiso   1.00
H1504  H     0.47703   0.83946   0.17479   0.00000  Uiso   1.00
H1505  H     0.45175   0.73283   0.28572   0.00000  Uiso   1.00
H1506  H     0.42371   0.85742   0.30940   0.00000  Uiso   1.00
H1507  H     0.52249   0.88216   0.08886   0.00000  Uiso   1.00
H1508  H     0.46919   0.65734   0.32278   0.00000  Uiso   1.00
H1509  H     0.41005   0.92006   0.37271   0.00000  Uiso   1.00
O1510  O     0.61045   0.94452   0.05573   0.00000  Uiso   1.00
O1511  O     0.54051   0.64956   0.36262   0.00000  Uiso   1.00
O1512  O     0.46293   0.99425   0.42813   0.00000  Uiso   1.00
N1513  N     0.62767   0.94415   0.13194   0.00000  Uiso   1.00
N1514  N     0.57784   0.73395   0.35064   0.00000  Uiso   1.00
N1515  N     0.52255   0.97957   0.39732   0.00000  Uiso   1.00
N1516  N     0.55156   0.89795   0.10966   0.00000  Uiso   1.00
N1517  N     0.50173   0.68775   0.32835   0.00000  Uiso   1.00
N1518  N     0.44644   0.93337   0.37504   0.00000  Uiso   1.00
C1519  C     0.97392   0.75061   0.62858   0.00000  Uiso   1.00
C1520  C     0.98378   0.75683   0.57813   0.00000  Uiso   1.00
C1521  C     0.97540   0.71965   0.54812   0.00000  Uiso   1.00
C1522  C     0.98682   0.73283   0.50332   0.00000  Uiso   1.00
C1523  C     0.99919   0.73508   0.42714   0.00000  Uiso   1.00
C1524  C     0.93958   0.77056   0.63840   0.00000  Uiso   1.00
C1525  C     0.89404   0.74493   0.65907   0.00000  Uiso   1.00
C1526  C     0.86825   0.76967   0.66500   0.00000  Uiso   1.00
C1527  C     0.81201   0.79325   0.68242   0.00000  Uiso   1.00
C1528  C     0.02251   0.78579   0.65126   0.00000  Uiso   1.00
C1529  C     0.04669   0.77298   0.68275   0.00000  Uiso   1.00
C1530  C     0.09072   0.81055   0.69952   0.00000  Uiso   1.00
C1531  C     0.16325   0.85778   0.73691   0.00000  Uiso   1.00
C1532  C     0.00909   0.84012   0.60238   0.00000  Uiso   1.00
C1533  C     0.00288   0.80544   0.56390   0.00000  Uiso   1.00
C1534  C     0.01431   0.81868   0.51913   0.00000  Uiso   1.00
C1535  C     0.00596   0.78153   0.48906   0.00000  Uiso   1.00
C1536  C     0.95868   0.81917   0.62416   0.00000  Uiso   1.00
C1537  C     0.93295   0.84396   0.63007   0.00000  Uiso   1.00
C1538  C     0.88738   0.81837   0.65074   0.00000  Uiso   1.00
C1539  C     0.04161   0.83441   0.63702   0.00000  Uiso   1.00
C1540  C     0.08561   0.87200   0.65375   0.00000  Uiso   1.00
C1541  C     0.10986   0.85925   0.68526   0.00000  Uiso   1.00
H1542  H     0.95905   0.71276   0.63966   0.00000  Uiso   1.00
H1543  H     0.96061   0.68203   0.55915   0.00000  Uiso   1.00
H1544  H     0.87927   0.70731   0.67008   0.00000  Uiso   1.00
H1545  H     0.03190   0.73535   0.69376   0.00000  Uiso   1.00
H1546  H     0.97076   0.66940   0.46361   0.00000  Uiso   1.00
H1547  H     0.79924   0.72270   0.69752   0.00000  Uiso   1.00
H1548  H     0.12110   0.78184   0.74745   0.00000  Uiso   1.00
H1549  H     0.02397   0.87797   0.59129   0.00000  Uiso   1.00
H1550  H     0.02910   0.85630   0.50812   0.00000  Uiso   1.00
H1551  H     0.94775   0.88158   0.61906   0.00000  Uiso   1.00
H1552  H     0.10038   0.90962   0.64273   0.00000  Uiso   1.00
H1553  H     0.02634   0.81084   0.42219   0.00000  Uiso   1.00
H1554  H     0.85482   0.86415   0.65611   0.00000  Uiso   1.00
H1555  H     0.17668   0.92328   0.70604   0.00000  Uiso   1.00
O1556  O     0.00074   0.72289   0.38906   0.00000  Uiso   1.00
O1557  O     0.77571   0.79282   0.69596   0.00000  Uiso   1.00
O1558  O     0.19798   0.87040   0.76146   0.00000  Uiso   1.00
N1559  N     0.98314   0.70566   0.46528   0.00000  Uiso   1.00
N1560  N     0.82278   0.75550   0.68397   0.00000  Uiso   1.00
N1561  N     0.12368   0.81078   0.73066   0.00000  Uiso   1.00
N1562  N     0.01305   0.78177   0.44299   0.00000  Uiso   1.00
N1563  N     0.85269   0.83160   0.66168   0.00000  Uiso   1.00
N1564  N     0.15359   0.88689   0.70837   0.00000  Uiso   1.00
C1565  C     0.64059   0.08395   0.96191   0.00000  Uiso   1.00
C1566  C     0.65045   0.09016   0.91146   0.00000  Uiso   1.00
C1567  C     0.64207   0.05299   0.88146   0.00000  Uiso   1.00
C1568  C     0.65348   0.06616   0.83665   0.00000  Uiso   1.00
C1569  C     0.66586   0.06841   0.76048   0.00000  Uiso   1.00
C1570  C     0.60624   0.10389   0.97173   0.00000  Uiso   1.00
C1571  C     0.56070   0.07826   0.99240   0.00000  Uiso   1.00
C1572  C     0.53491   0.10300   0.99834   0.00000  Uiso   1.00
C1573  C     0.47868   0.12658   0.01576   0.00000  Uiso   1.00
C1574  C     0.68918   0.11912   0.98459   0.00000  Uiso   1.00
C1575  C     0.71336   0.10631   0.01608   0.00000  Uiso   1.00
C1576  C     0.75739   0.14388   0.03286   0.00000  Uiso   1.00
C1577  C     0.82992   0.19111   0.07024   0.00000  Uiso   1.00
C1578  C     0.67576   0.17345   0.93571   0.00000  Uiso   1.00
C1579  C     0.66955   0.13878   0.89723   0.00000  Uiso   1.00
C1580  C     0.68098   0.15201   0.85246   0.00000  Uiso   1.00
C1581  C     0.67262   0.11487   0.82239   0.00000  Uiso   1.00
C1582  C     0.62535   0.15250   0.95750   0.00000  Uiso   1.00
C1583  C     0.59962   0.17729   0.96341   0.00000  Uiso   1.00
C1584  C     0.55405   0.15171   0.98408   0.00000  Uiso   1.00
C1585  C     0.70828   0.16774   0.97036   0.00000  Uiso   1.00
C1586  C     0.75227   0.20534   0.98709   0.00000  Uiso   1.00
C1587  C     0.77652   0.19258   0.01860   0.00000  Uiso   1.00
H1588  H     0.62572   0.04610   0.97300   0.00000  Uiso   1.00
H1589  H     0.62728   0.01537   0.89248   0.00000  Uiso   1.00
H1590  H     0.54593   0.04064   0.00341   0.00000  Uiso   1.00
H1591  H     0.69857   0.06869   0.02709   0.00000  Uiso   1.00
H1592  H     0.63742   0.00273   0.79694   0.00000  Uiso   1.00
H1593  H     0.46591   0.05604   0.03086   0.00000  Uiso   1.00
H1594  H     0.78776   0.11517   0.08079   0.00000  Uiso   1.00
H1595  H     0.69063   0.21130   0.92463   0.00000  Uiso   1.00
H1596  H     0.69576   0.18964   0.84146   0.00000  Uiso   1.00
H1597  H     0.61441   0.21491   0.95239   0.00000  Uiso   1.00
H1598  H     0.76705   0.24295   0.97607   0.00000  Uiso   1.00
H1599  H     0.69300   0.14418   0.75553   0.00000  Uiso   1.00
H1600  H     0.52148   0.19748   0.98945   0.00000  Uiso   1.00
H1601  H     0.84334   0.25661   0.03937   0.00000  Uiso   1.00
O1602  O     0.66740   0.05622   0.72239   0.00000  Uiso   1.00
O1603  O     0.44238   0.12615   0.02929   0.00000  Uiso   1.00
O1604  O     0.86465   0.20373   0.09479   0.00000  Uiso   1.00
N1605  N     0.64981   0.03900   0.79861   0.00000  Uiso   1.00
N1606  N     0.48945   0.08883   0.01730   0.00000  Uiso   1.00
N1607  N     0.79035   0.14411   0.06399   0.00000  Uiso   1.00
N1608  N     0.67972   0.11511   0.77632   0.00000  Uiso   1.00
N1609  N     0.51935   0.16494   0.99502   0.00000  Uiso   1.00
N1610  N     0.82026   0.22022   0.04170   0.00000  Uiso   1.00
C1611  C     0.30726   0.41728   0.29525   0.00000  Uiso   1.00
C1612  C     0.31711   0.42349   0.24480   0.00000  Uiso   1.00
C1613  C     0.30874   0.38632   0.21479   0.00000  Uiso   1.00
C1614  C     0.32015   0.39950   0.16999   0.00000  Uiso   1.00
C1615  C     0.33253   0.40174   0.09381   0.00000  Uiso   1.00
C1616  C     0.27291   0.43722   0.30506   0.00000  Uiso   1.00
C1617  C     0.22737   0.41160   0.32573   0.00000  Uiso   1.00
C1618  C     0.20158   0.43634   0.33167   0.00000  Uiso   1.00
C1619  C     0.14535   0.45991   0.34909   0.00000  Uiso   1.00
C1620  C     0.35584   0.45246   0.31792   0.00000  Uiso   1.00
C1621  C     0.38003   0.43964   0.34942   0.00000  Uiso   1.00
C1622  C     0.42405   0.47721   0.36619   0.00000  Uiso   1.00
C1623  C     0.49658   0.52444   0.40358   0.00000  Uiso   1.00
C1624  C     0.34243   0.50678   0.26904   0.00000  Uiso   1.00
C1625  C     0.33622   0.47211   0.23056   0.00000  Uiso   1.00
C1626  C     0.34765   0.48535   0.18580   0.00000  Uiso   1.00
C1627  C     0.33929   0.44820   0.15573   0.00000  Uiso   1.00
C1628  C     0.29201   0.48584   0.29083   0.00000  Uiso   1.00
C1629  C     0.26628   0.51062   0.29674   0.00000  Uiso   1.00
C1630  C     0.22072   0.48504   0.31741   0.00000  Uiso   1.00
C1631  C     0.37495   0.50107   0.30369   0.00000  Uiso   1.00
C1632  C     0.41894   0.53867   0.32042   0.00000  Uiso   1.00
C1633  C     0.44319   0.52592   0.35193   0.00000  Uiso   1.00
H1634  H     0.29238   0.37943   0.30633   0.00000  Uiso   1.00
H1635  H     0.29395   0.34870   0.22582   0.00000  Uiso   1.00
H1636  H     0.21260   0.37398   0.33675   0.00000  Uiso   1.00
H1637  H     0.36523   0.40202   0.36042   0.00000  Uiso   1.00
H1638  H     0.30409   0.33607   0.13027   0.00000  Uiso   1.00
H1639  H     0.13257   0.38937   0.36419   0.00000  Uiso   1.00
H1640  H     0.45443   0.44850   0.41412   0.00000  Uiso   1.00
H1641  H     0.35730   0.54464   0.25796   0.00000  Uiso   1.00
H1642  H     0.36243   0.52297   0.17479   0.00000  Uiso   1.00
H1643  H     0.28108   0.54825   0.28572   0.00000  Uiso   1.00
H1644  H     0.43371   0.57629   0.30940   0.00000  Uiso   1.00
H1645  H     0.35967   0.47751   0.08886   0.00000  Uiso   1.00
H1646  H     0.18815   0.53081   0.32278   0.00000  Uiso   1.00
H1647  H     0.51001   0.58995   0.37271   0.00000  Uiso   1.00
O1648  O     0.33407   0.38955   0.05573   0.00000  Uiso   1.00
O1649  O     0.10905   0.45949   0.36262   0.00000  Uiso   1.00
O1650  O     0.53132   0.53707   0.42813   0.00000  Uiso   1.00
N1651  N     0.31648   0.37233   0.13194   0.00000  Uiso   1.00
N1652  N     0.15611   0.42216   0.35064   0.00000  Uiso   1.00
N1653  N     0.45702   0.47745   0.39732   0.00000  Uiso   1.00
N1654  N     0.34638   0.44844   0.10966   0.00000  Uiso   1.00
N1655  N     0.18602   0.49827   0.32835   0.00000  Uiso   1.00
N1656  N     0.48692   0.55356   0.37504   0.00000  Uiso   1.00
