data_job_01525
_audit_creation_date              2018-12-19
_audit_creation_method            'Materials Studio'
_symmetry_space_group_name_H-M    'P1'
_symmetry_Int_Tables_number       1
_symmetry_cell_setting            triclinic
loop_
_symmetry_equiv_pos_as_xyz
  x,y,z
_cell_length_a                    21.3354
_cell_length_b                    35.7167
_cell_length_c                    13.6687
_cell_angle_alpha                 90.0000
_cell_angle_beta                  90.0000
_cell_angle_gamma                 90.0000
loop_
_atom_site_label
_atom_site_type_symbol
_atom_site_fract_x
_atom_site_fract_y
_atom_site_fract_z
_atom_site_U_iso_or_equiv
_atom_site_adp_type
_atom_site_occupancy
C1     C     0.49544   0.72666   0.51527   0.00000  Uiso   1.00
C2     C     0.54003   0.69599   0.48092   0.00000  Uiso   1.00
C3     C     0.60471   0.69910   0.47389   0.00000  Uiso   1.00
C4     C     0.63716   0.66787   0.44086   0.00000  Uiso   1.00
C5     C     0.71113   0.62529   0.39129   0.00000  Uiso   1.00
C6     C     0.44826   0.73213   0.43271   0.00000  Uiso   1.00
C7     C     0.43576   0.76565   0.38515   0.00000  Uiso   1.00
C8     C     0.39094   0.76484   0.31154   0.00000  Uiso   1.00
C9     C     0.32240   0.77839   0.18717   0.00000  Uiso   1.00
C10    C     0.45870   0.71003   0.60053   0.00000  Uiso   1.00
C11    C     0.45498   0.72497   0.69409   0.00000  Uiso   1.00
C12    C     0.41894   0.70555   0.76177   0.00000  Uiso   1.00
C13    C     0.36661   0.68479   0.89798   0.00000  Uiso   1.00
C14    C     0.43804   0.66564   0.46910   0.00000  Uiso   1.00
C15    C     0.50885   0.66284   0.45584   0.00000  Uiso   1.00
C16    C     0.54121   0.63159   0.42281   0.00000  Uiso   1.00
C17    C     0.60592   0.63466   0.41574   0.00000  Uiso   1.00
C18    C     0.41708   0.69899   0.40763   0.00000  Uiso   1.00
C19    C     0.37226   0.69814   0.33408   0.00000  Uiso   1.00
C20    C     0.35971   0.73164   0.28642   0.00000  Uiso   1.00
C21    C     0.42752   0.67689   0.57546   0.00000  Uiso   1.00
C22    C     0.39148   0.65745   0.64301   0.00000  Uiso   1.00
C23    C     0.38770   0.67235   0.73665   0.00000  Uiso   1.00
H24    H     0.51971   0.75246   0.53479   0.00000  Uiso   1.00
H25    H     0.62882   0.72476   0.49330   0.00000  Uiso   1.00
H26    H     0.45990   0.79129   0.40458   0.00000  Uiso   1.00
H27    H     0.47911   0.75061   0.71347   0.00000  Uiso   1.00
H28    H     0.73604   0.67944   0.43621   0.00000  Uiso   1.00
H29    H     0.37983   0.81972   0.24917   0.00000  Uiso   1.00
H30    H     0.42035   0.73395   0.90051   0.00000  Uiso   1.00
H31    H     0.41377   0.63983   0.44958   0.00000  Uiso   1.00
H32    H     0.51707   0.60595   0.40341   0.00000  Uiso   1.00
H33    H     0.34814   0.67248   0.31469   0.00000  Uiso   1.00
H34    H     0.36735   0.63181   0.62358   0.00000  Uiso   1.00
H35    H     0.64533   0.58301   0.36325   0.00000  Uiso   1.00
H36    H     0.28912   0.72330   0.17621   0.00000  Uiso   1.00
H37    H     0.32964   0.63752   0.82755   0.00000  Uiso   1.00
O38    O     0.76055   0.61097   0.37087   0.00000  Uiso   1.00
O39    O     0.29321   0.79502   0.12549   0.00000  Uiso   1.00
O40    O     0.34637   0.68249   0.98003   0.00000  Uiso   1.00
N41    N     0.70052   0.66139   0.42539   0.00000  Uiso   1.00
N42    N     0.36749   0.79255   0.25051   0.00000  Uiso   1.00
N43    N     0.40536   0.71236   0.85945   0.00000  Uiso   1.00
N44    N     0.65171   0.60950   0.38613   0.00000  Uiso   1.00
N45    N     0.31868   0.74066   0.21125   0.00000  Uiso   1.00
N46    N     0.35655   0.66048   0.82019   0.00000  Uiso   1.00
C47    C     0.49544   0.22666   0.01527   0.00000  Uiso   1.00
C48    C     0.54003   0.19599   0.98092   0.00000  Uiso   1.00
C49    C     0.60471   0.19910   0.97389   0.00000  Uiso   1.00
C50    C     0.63716   0.16787   0.94086   0.00000  Uiso   1.00
C51    C     0.71113   0.12529   0.89129   0.00000  Uiso   1.00
C52    C     0.44826   0.23213   0.93271   0.00000  Uiso   1.00
C53    C     0.43576   0.26565   0.88515   0.00000  Uiso   1.00
C54    C     0.39094   0.26484   0.81154   0.00000  Uiso   1.00
C55    C     0.32240   0.27839   0.68717   0.00000  Uiso   1.00
C56    C     0.45870   0.21003   0.10053   0.00000  Uiso   1.00
C57    C     0.45498   0.22497   0.19409   0.00000  Uiso   1.00
C58    C     0.41894   0.20555   0.26177   0.00000  Uiso   1.00
C59    C     0.36661   0.18479   0.39798   0.00000  Uiso   1.00
C60    C     0.43804   0.16564   0.96910   0.00000  Uiso   1.00
C61    C     0.50885   0.16284   0.95584   0.00000  Uiso   1.00
C62    C     0.54121   0.13159   0.92281   0.00000  Uiso   1.00
C63    C     0.60592   0.13466   0.91574   0.00000  Uiso   1.00
C64    C     0.41708   0.19899   0.90763   0.00000  Uiso   1.00
C65    C     0.37226   0.19814   0.83408   0.00000  Uiso   1.00
C66    C     0.35971   0.23164   0.78642   0.00000  Uiso   1.00
C67    C     0.42752   0.17689   0.07546   0.00000  Uiso   1.00
C68    C     0.39148   0.15745   0.14301   0.00000  Uiso   1.00
C69    C     0.38770   0.17235   0.23665   0.00000  Uiso   1.00
H70    H     0.51971   0.25246   0.03479   0.00000  Uiso   1.00
H71    H     0.62882   0.22476   0.99330   0.00000  Uiso   1.00
H72    H     0.45990   0.29129   0.90458   0.00000  Uiso   1.00
H73    H     0.47911   0.25061   0.21347   0.00000  Uiso   1.00
H74    H     0.73604   0.17944   0.93621   0.00000  Uiso   1.00
H75    H     0.37983   0.31972   0.74917   0.00000  Uiso   1.00
H76    H     0.42035   0.23395   0.40051   0.00000  Uiso   1.00
H77    H     0.41377   0.13983   0.94958   0.00000  Uiso   1.00
H78    H     0.51707   0.10595   0.90341   0.00000  Uiso   1.00
H79    H     0.34814   0.17248   0.81469   0.00000  Uiso   1.00
H80    H     0.36735   0.13181   0.12358   0.00000  Uiso   1.00
H81    H     0.64533   0.08301   0.86325   0.00000  Uiso   1.00
H82    H     0.28912   0.22330   0.67621   0.00000  Uiso   1.00
H83    H     0.32964   0.13752   0.32755   0.00000  Uiso   1.00
O84    O     0.76055   0.11097   0.87087   0.00000  Uiso   1.00
O85    O     0.29321   0.29502   0.62549   0.00000  Uiso   1.00
O86    O     0.34637   0.18249   0.48003   0.00000  Uiso   1.00
N87    N     0.70052   0.16139   0.92539   0.00000  Uiso   1.00
N88    N     0.36749   0.29255   0.75051   0.00000  Uiso   1.00
N89    N     0.40536   0.21236   0.35945   0.00000  Uiso   1.00
N90    N     0.65171   0.10950   0.88613   0.00000  Uiso   1.00
N91    N     0.31868   0.24066   0.71125   0.00000  Uiso   1.00
N92    N     0.35655   0.16048   0.32019   0.00000  Uiso   1.00
C93    C     0.99544   0.72666   0.01527   0.00000  Uiso   1.00
C94    C     0.04003   0.69599   0.98092   0.00000  Uiso   1.00
C95    C     0.10471   0.69910   0.97389   0.00000  Uiso   1.00
C96    C     0.13716   0.66787   0.94086   0.00000  Uiso   1.00
C97    C     0.21113   0.62529   0.89129   0.00000  Uiso   1.00
C98    C     0.94826   0.73213   0.93271   0.00000  Uiso   1.00
C99    C     0.93576   0.76565   0.88515   0.00000  Uiso   1.00
C100   C     0.89094   0.76484   0.81154   0.00000  Uiso   1.00
C101   C     0.82240   0.77839   0.68717   0.00000  Uiso   1.00
C102   C     0.95870   0.71003   0.10053   0.00000  Uiso   1.00
C103   C     0.95498   0.72497   0.19409   0.00000  Uiso   1.00
C104   C     0.91894   0.70555   0.26177   0.00000  Uiso   1.00
C105   C     0.86661   0.68479   0.39798   0.00000  Uiso   1.00
C106   C     0.93804   0.66564   0.96910   0.00000  Uiso   1.00
C107   C     0.00885   0.66284   0.95584   0.00000  Uiso   1.00
C108   C     0.04121   0.63159   0.92281   0.00000  Uiso   1.00
C109   C     0.10592   0.63466   0.91574   0.00000  Uiso   1.00
C110   C     0.91708   0.69899   0.90763   0.00000  Uiso   1.00
C111   C     0.87226   0.69814   0.83408   0.00000  Uiso   1.00
C112   C     0.85971   0.73164   0.78642   0.00000  Uiso   1.00
C113   C     0.92752   0.67689   0.07546   0.00000  Uiso   1.00
C114   C     0.89148   0.65745   0.14301   0.00000  Uiso   1.00
C115   C     0.88770   0.67235   0.23665   0.00000  Uiso   1.00
H116   H     0.01971   0.75246   0.03479   0.00000  Uiso   1.00
H117   H     0.12882   0.72476   0.99330   0.00000  Uiso   1.00
H118   H     0.95990   0.79129   0.90458   0.00000  Uiso   1.00
H119   H     0.97911   0.75061   0.21347   0.00000  Uiso   1.00
H120   H     0.23604   0.67944   0.93621   0.00000  Uiso   1.00
H121   H     0.87983   0.81972   0.74917   0.00000  Uiso   1.00
H122   H     0.92035   0.73395   0.40051   0.00000  Uiso   1.00
H123   H     0.91377   0.63983   0.94958   0.00000  Uiso   1.00
H124   H     0.01707   0.60595   0.90341   0.00000  Uiso   1.00
H125   H     0.84814   0.67248   0.81469   0.00000  Uiso   1.00
H126   H     0.86735   0.63181   0.12358   0.00000  Uiso   1.00
H127   H     0.14533   0.58301   0.86325   0.00000  Uiso   1.00
H128   H     0.78912   0.72330   0.67621   0.00000  Uiso   1.00
H129   H     0.82964   0.63752   0.32755   0.00000  Uiso   1.00
O130   O     0.26055   0.61097   0.87087   0.00000  Uiso   1.00
O131   O     0.79321   0.79502   0.62549   0.00000  Uiso   1.00
O132   O     0.84637   0.68249   0.48003   0.00000  Uiso   1.00
N133   N     0.20052   0.66139   0.92539   0.00000  Uiso   1.00
N134   N     0.86749   0.79255   0.75051   0.00000  Uiso   1.00
N135   N     0.90536   0.71236   0.35945   0.00000  Uiso   1.00
N136   N     0.15171   0.60950   0.88613   0.00000  Uiso   1.00
N137   N     0.81868   0.74066   0.71125   0.00000  Uiso   1.00
N138   N     0.85655   0.66048   0.32019   0.00000  Uiso   1.00
C139   C     0.99544   0.22666   0.51527   0.00000  Uiso   1.00
C140   C     0.04003   0.19599   0.48092   0.00000  Uiso   1.00
C141   C     0.10471   0.19910   0.47389   0.00000  Uiso   1.00
C142   C     0.13716   0.16787   0.44086   0.00000  Uiso   1.00
C143   C     0.21113   0.12529   0.39129   0.00000  Uiso   1.00
C144   C     0.94826   0.23213   0.43271   0.00000  Uiso   1.00
C145   C     0.93576   0.26565   0.38515   0.00000  Uiso   1.00
C146   C     0.89094   0.26484   0.31154   0.00000  Uiso   1.00
C147   C     0.82240   0.27839   0.18717   0.00000  Uiso   1.00
C148   C     0.95870   0.21003   0.60053   0.00000  Uiso   1.00
C149   C     0.95498   0.22497   0.69409   0.00000  Uiso   1.00
C150   C     0.91894   0.20555   0.76177   0.00000  Uiso   1.00
C151   C     0.86661   0.18479   0.89798   0.00000  Uiso   1.00
C152   C     0.93804   0.16564   0.46910   0.00000  Uiso   1.00
C153   C     0.00885   0.16284   0.45584   0.00000  Uiso   1.00
C154   C     0.04121   0.13159   0.42281   0.00000  Uiso   1.00
C155   C     0.10592   0.13466   0.41574   0.00000  Uiso   1.00
C156   C     0.91708   0.19899   0.40763   0.00000  Uiso   1.00
C157   C     0.87226   0.19814   0.33408   0.00000  Uiso   1.00
C158   C     0.85971   0.23164   0.28642   0.00000  Uiso   1.00
C159   C     0.92752   0.17689   0.57546   0.00000  Uiso   1.00
C160   C     0.89148   0.15745   0.64301   0.00000  Uiso   1.00
C161   C     0.88770   0.17235   0.73665   0.00000  Uiso   1.00
H162   H     0.01971   0.25246   0.53479   0.00000  Uiso   1.00
H163   H     0.12882   0.22476   0.49330   0.00000  Uiso   1.00
H164   H     0.95990   0.29129   0.40458   0.00000  Uiso   1.00
H165   H     0.97911   0.25061   0.71347   0.00000  Uiso   1.00
H166   H     0.23604   0.17944   0.43621   0.00000  Uiso   1.00
H167   H     0.87983   0.31972   0.24917   0.00000  Uiso   1.00
H168   H     0.92035   0.23395   0.90051   0.00000  Uiso   1.00
H169   H     0.91377   0.13983   0.44958   0.00000  Uiso   1.00
H170   H     0.01707   0.10595   0.40341   0.00000  Uiso   1.00
H171   H     0.84814   0.17248   0.31469   0.00000  Uiso   1.00
H172   H     0.86735   0.13181   0.62358   0.00000  Uiso   1.00
H173   H     0.14533   0.08301   0.36325   0.00000  Uiso   1.00
H174   H     0.78912   0.22330   0.17621   0.00000  Uiso   1.00
H175   H     0.82964   0.13752   0.82755   0.00000  Uiso   1.00
O176   O     0.26055   0.11097   0.37087   0.00000  Uiso   1.00
O177   O     0.79321   0.29502   0.12549   0.00000  Uiso   1.00
O178   O     0.84637   0.18249   0.98003   0.00000  Uiso   1.00
N179   N     0.20052   0.16139   0.42539   0.00000  Uiso   1.00
N180   N     0.86749   0.29255   0.25051   0.00000  Uiso   1.00
N181   N     0.90536   0.21236   0.85945   0.00000  Uiso   1.00
N182   N     0.15171   0.10950   0.38613   0.00000  Uiso   1.00
N183   N     0.81868   0.24066   0.21125   0.00000  Uiso   1.00
N184   N     0.85655   0.16048   0.82019   0.00000  Uiso   1.00
C185   C     0.50456   0.27334   0.51527   0.00000  Uiso   1.00
C186   C     0.45997   0.30401   0.48092   0.00000  Uiso   1.00
C187   C     0.39529   0.30090   0.47389   0.00000  Uiso   1.00
C188   C     0.36284   0.33213   0.44086   0.00000  Uiso   1.00
C189   C     0.28887   0.37471   0.39129   0.00000  Uiso   1.00
C190   C     0.55174   0.26787   0.43271   0.00000  Uiso   1.00
C191   C     0.56424   0.23435   0.38515   0.00000  Uiso   1.00
C192   C     0.60906   0.23516   0.31154   0.00000  Uiso   1.00
C193   C     0.67760   0.22161   0.18717   0.00000  Uiso   1.00
C194   C     0.54130   0.28997   0.60053   0.00000  Uiso   1.00
C195   C     0.54502   0.27503   0.69409   0.00000  Uiso   1.00
C196   C     0.58106   0.29445   0.76177   0.00000  Uiso   1.00
C197   C     0.63339   0.31521   0.89798   0.00000  Uiso   1.00
C198   C     0.56196   0.33436   0.46910   0.00000  Uiso   1.00
C199   C     0.49115   0.33716   0.45584   0.00000  Uiso   1.00
C200   C     0.45879   0.36841   0.42281   0.00000  Uiso   1.00
C201   C     0.39408   0.36534   0.41574   0.00000  Uiso   1.00
C202   C     0.58292   0.30101   0.40763   0.00000  Uiso   1.00
C203   C     0.62774   0.30186   0.33408   0.00000  Uiso   1.00
C204   C     0.64029   0.26836   0.28642   0.00000  Uiso   1.00
C205   C     0.57248   0.32311   0.57546   0.00000  Uiso   1.00
C206   C     0.60852   0.34255   0.64301   0.00000  Uiso   1.00
C207   C     0.61230   0.32765   0.73665   0.00000  Uiso   1.00
H208   H     0.48029   0.24754   0.53479   0.00000  Uiso   1.00
H209   H     0.37118   0.27524   0.49330   0.00000  Uiso   1.00
H210   H     0.54010   0.20871   0.40458   0.00000  Uiso   1.00
H211   H     0.52089   0.24939   0.71347   0.00000  Uiso   1.00
H212   H     0.26396   0.32056   0.43621   0.00000  Uiso   1.00
H213   H     0.62017   0.18028   0.24917   0.00000  Uiso   1.00
H214   H     0.57965   0.26605   0.90051   0.00000  Uiso   1.00
H215   H     0.58623   0.36017   0.44958   0.00000  Uiso   1.00
H216   H     0.48293   0.39405   0.40341   0.00000  Uiso   1.00
H217   H     0.65186   0.32752   0.31469   0.00000  Uiso   1.00
H218   H     0.63265   0.36819   0.62358   0.00000  Uiso   1.00
H219   H     0.35467   0.41699   0.36325   0.00000  Uiso   1.00
H220   H     0.71088   0.27670   0.17621   0.00000  Uiso   1.00
H221   H     0.67036   0.36248   0.82755   0.00000  Uiso   1.00
O222   O     0.23945   0.38903   0.37087   0.00000  Uiso   1.00
O223   O     0.70679   0.20498   0.12549   0.00000  Uiso   1.00
O224   O     0.65363   0.31751   0.98003   0.00000  Uiso   1.00
N225   N     0.29948   0.33861   0.42539   0.00000  Uiso   1.00
N226   N     0.63251   0.20745   0.25051   0.00000  Uiso   1.00
N227   N     0.59464   0.28764   0.85945   0.00000  Uiso   1.00
N228   N     0.34829   0.39050   0.38613   0.00000  Uiso   1.00
N229   N     0.68132   0.25934   0.21125   0.00000  Uiso   1.00
N230   N     0.64345   0.33952   0.82019   0.00000  Uiso   1.00
C231   C     0.50456   0.77334   0.01527   0.00000  Uiso   1.00
C232   C     0.45997   0.80401   0.98092   0.00000  Uiso   1.00
C233   C     0.39529   0.80090   0.97389   0.00000  Uiso   1.00
C234   C     0.36284   0.83213   0.94086   0.00000  Uiso   1.00
C235   C     0.28887   0.87471   0.89129   0.00000  Uiso   1.00
C236   C     0.55174   0.76787   0.93271   0.00000  Uiso   1.00
C237   C     0.56424   0.73435   0.88515   0.00000  Uiso   1.00
C238   C     0.60906   0.73516   0.81154   0.00000  Uiso   1.00
C239   C     0.67760   0.72161   0.68717   0.00000  Uiso   1.00
C240   C     0.54130   0.78997   0.10053   0.00000  Uiso   1.00
C241   C     0.54502   0.77503   0.19409   0.00000  Uiso   1.00
C242   C     0.58106   0.79445   0.26177   0.00000  Uiso   1.00
C243   C     0.63339   0.81521   0.39798   0.00000  Uiso   1.00
C244   C     0.56196   0.83436   0.96910   0.00000  Uiso   1.00
C245   C     0.49115   0.83716   0.95584   0.00000  Uiso   1.00
C246   C     0.45879   0.86841   0.92281   0.00000  Uiso   1.00
C247   C     0.39408   0.86534   0.91574   0.00000  Uiso   1.00
C248   C     0.58292   0.80101   0.90763   0.00000  Uiso   1.00
C249   C     0.62774   0.80186   0.83408   0.00000  Uiso   1.00
C250   C     0.64029   0.76836   0.78642   0.00000  Uiso   1.00
C251   C     0.57248   0.82311   0.07546   0.00000  Uiso   1.00
C252   C     0.60852   0.84255   0.14301   0.00000  Uiso   1.00
C253   C     0.61230   0.82765   0.23665   0.00000  Uiso   1.00
H254   H     0.48029   0.74754   0.03479   0.00000  Uiso   1.00
H255   H     0.37118   0.77524   0.99330   0.00000  Uiso   1.00
H256   H     0.54010   0.70871   0.90458   0.00000  Uiso   1.00
H257   H     0.52089   0.74939   0.21347   0.00000  Uiso   1.00
H258   H     0.26396   0.82056   0.93621   0.00000  Uiso   1.00
H259   H     0.62017   0.68028   0.74917   0.00000  Uiso   1.00
H260   H     0.57965   0.76605   0.40051   0.00000  Uiso   1.00
H261   H     0.58623   0.86017   0.94958   0.00000  Uiso   1.00
H262   H     0.48293   0.89405   0.90341   0.00000  Uiso   1.00
H263   H     0.65186   0.82752   0.81469   0.00000  Uiso   1.00
H264   H     0.63265   0.86819   0.12358   0.00000  Uiso   1.00
H265   H     0.35467   0.91699   0.86325   0.00000  Uiso   1.00
H266   H     0.71088   0.77670   0.67621   0.00000  Uiso   1.00
H267   H     0.67036   0.86248   0.32755   0.00000  Uiso   1.00
O268   O     0.23945   0.88903   0.87087   0.00000  Uiso   1.00
O269   O     0.70679   0.70498   0.62549   0.00000  Uiso   1.00
O270   O     0.65363   0.81751   0.48003   0.00000  Uiso   1.00
N271   N     0.29948   0.83861   0.92539   0.00000  Uiso   1.00
N272   N     0.63251   0.70745   0.75051   0.00000  Uiso   1.00
N273   N     0.59464   0.78764   0.35945   0.00000  Uiso   1.00
N274   N     0.34829   0.89050   0.88613   0.00000  Uiso   1.00
N275   N     0.68132   0.75934   0.71125   0.00000  Uiso   1.00
N276   N     0.64345   0.83952   0.32019   0.00000  Uiso   1.00
C277   C     0.00456   0.27334   0.01527   0.00000  Uiso   1.00
C278   C     0.95997   0.30401   0.98092   0.00000  Uiso   1.00
C279   C     0.89529   0.30090   0.97389   0.00000  Uiso   1.00
C280   C     0.86284   0.33213   0.94086   0.00000  Uiso   1.00
C281   C     0.78887   0.37471   0.89129   0.00000  Uiso   1.00
C282   C     0.05174   0.26787   0.93271   0.00000  Uiso   1.00
C283   C     0.06424   0.23435   0.88515   0.00000  Uiso   1.00
C284   C     0.10906   0.23516   0.81154   0.00000  Uiso   1.00
C285   C     0.17760   0.22161   0.68717   0.00000  Uiso   1.00
C286   C     0.04130   0.28997   0.10053   0.00000  Uiso   1.00
C287   C     0.04502   0.27503   0.19409   0.00000  Uiso   1.00
C288   C     0.08106   0.29445   0.26177   0.00000  Uiso   1.00
C289   C     0.13339   0.31521   0.39798   0.00000  Uiso   1.00
C290   C     0.06196   0.33436   0.96910   0.00000  Uiso   1.00
C291   C     0.99115   0.33716   0.95584   0.00000  Uiso   1.00
C292   C     0.95879   0.36841   0.92281   0.00000  Uiso   1.00
C293   C     0.89408   0.36534   0.91574   0.00000  Uiso   1.00
C294   C     0.08292   0.30101   0.90763   0.00000  Uiso   1.00
C295   C     0.12774   0.30186   0.83408   0.00000  Uiso   1.00
C296   C     0.14029   0.26836   0.78642   0.00000  Uiso   1.00
C297   C     0.07248   0.32311   0.07546   0.00000  Uiso   1.00
C298   C     0.10852   0.34255   0.14301   0.00000  Uiso   1.00
C299   C     0.11230   0.32765   0.23665   0.00000  Uiso   1.00
H300   H     0.98029   0.24754   0.03479   0.00000  Uiso   1.00
H301   H     0.87118   0.27524   0.99330   0.00000  Uiso   1.00
H302   H     0.04010   0.20871   0.90458   0.00000  Uiso   1.00
H303   H     0.02089   0.24939   0.21347   0.00000  Uiso   1.00
H304   H     0.76396   0.32056   0.93621   0.00000  Uiso   1.00
H305   H     0.12017   0.18028   0.74917   0.00000  Uiso   1.00
H306   H     0.07965   0.26605   0.40051   0.00000  Uiso   1.00
H307   H     0.08623   0.36017   0.94958   0.00000  Uiso   1.00
H308   H     0.98293   0.39405   0.90341   0.00000  Uiso   1.00
H309   H     0.15186   0.32752   0.81469   0.00000  Uiso   1.00
H310   H     0.13265   0.36819   0.12358   0.00000  Uiso   1.00
H311   H     0.85467   0.41699   0.86325   0.00000  Uiso   1.00
H312   H     0.21088   0.27670   0.67621   0.00000  Uiso   1.00
H313   H     0.17036   0.36248   0.32755   0.00000  Uiso   1.00
O314   O     0.73945   0.38903   0.87087   0.00000  Uiso   1.00
O315   O     0.20679   0.20498   0.62549   0.00000  Uiso   1.00
O316   O     0.15363   0.31751   0.48003   0.00000  Uiso   1.00
N317   N     0.79948   0.33861   0.92539   0.00000  Uiso   1.00
N318   N     0.13251   0.20745   0.75051   0.00000  Uiso   1.00
N319   N     0.09464   0.28764   0.35945   0.00000  Uiso   1.00
N320   N     0.84829   0.39050   0.88613   0.00000  Uiso   1.00
N321   N     0.18132   0.25934   0.71125   0.00000  Uiso   1.00
N322   N     0.14345   0.33952   0.32019   0.00000  Uiso   1.00
C323   C     0.00456   0.77334   0.51527   0.00000  Uiso   1.00
C324   C     0.95997   0.80401   0.48092   0.00000  Uiso   1.00
C325   C     0.89529   0.80090   0.47389   0.00000  Uiso   1.00
C326   C     0.86284   0.83213   0.44086   0.00000  Uiso   1.00
C327   C     0.78887   0.87471   0.39129   0.00000  Uiso   1.00
C328   C     0.05174   0.76787   0.43271   0.00000  Uiso   1.00
C329   C     0.06424   0.73435   0.38515   0.00000  Uiso   1.00
C330   C     0.10906   0.73516   0.31154   0.00000  Uiso   1.00
C331   C     0.17760   0.72161   0.18717   0.00000  Uiso   1.00
C332   C     0.04130   0.78997   0.60053   0.00000  Uiso   1.00
C333   C     0.04502   0.77503   0.69409   0.00000  Uiso   1.00
C334   C     0.08106   0.79445   0.76177   0.00000  Uiso   1.00
C335   C     0.13339   0.81521   0.89798   0.00000  Uiso   1.00
C336   C     0.06196   0.83436   0.46910   0.00000  Uiso   1.00
C337   C     0.99115   0.83716   0.45584   0.00000  Uiso   1.00
C338   C     0.95879   0.86841   0.42281   0.00000  Uiso   1.00
C339   C     0.89408   0.86534   0.41574   0.00000  Uiso   1.00
C340   C     0.08292   0.80101   0.40763   0.00000  Uiso   1.00
C341   C     0.12774   0.80186   0.33408   0.00000  Uiso   1.00
C342   C     0.14029   0.76836   0.28642   0.00000  Uiso   1.00
C343   C     0.07248   0.82311   0.57546   0.00000  Uiso   1.00
C344   C     0.10852   0.84255   0.64301   0.00000  Uiso   1.00
C345   C     0.11230   0.82765   0.73665   0.00000  Uiso   1.00
H346   H     0.98029   0.74754   0.53479   0.00000  Uiso   1.00
H347   H     0.87118   0.77524   0.49330   0.00000  Uiso   1.00
H348   H     0.04010   0.70871   0.40458   0.00000  Uiso   1.00
H349   H     0.02089   0.74939   0.71347   0.00000  Uiso   1.00
H350   H     0.76396   0.82056   0.43621   0.00000  Uiso   1.00
H351   H     0.12017   0.68028   0.24917   0.00000  Uiso   1.00
H352   H     0.07965   0.76605   0.90051   0.00000  Uiso   1.00
H353   H     0.08623   0.86017   0.44958   0.00000  Uiso   1.00
H354   H     0.98293   0.89405   0.40341   0.00000  Uiso   1.00
H355   H     0.15186   0.82752   0.31469   0.00000  Uiso   1.00
H356   H     0.13265   0.86819   0.62358   0.00000  Uiso   1.00
H357   H     0.85467   0.91699   0.36325   0.00000  Uiso   1.00
H358   H     0.21088   0.77670   0.17621   0.00000  Uiso   1.00
H359   H     0.17036   0.86248   0.82755   0.00000  Uiso   1.00
O360   O     0.73945   0.88903   0.37087   0.00000  Uiso   1.00
O361   O     0.20679   0.70498   0.12549   0.00000  Uiso   1.00
O362   O     0.15363   0.81751   0.98003   0.00000  Uiso   1.00
N363   N     0.79948   0.83861   0.42539   0.00000  Uiso   1.00
N364   N     0.13251   0.70745   0.25051   0.00000  Uiso   1.00
N365   N     0.09464   0.78764   0.85945   0.00000  Uiso   1.00
N366   N     0.84829   0.89050   0.38613   0.00000  Uiso   1.00
N367   N     0.18132   0.75934   0.21125   0.00000  Uiso   1.00
N368   N     0.14345   0.83952   0.82019   0.00000  Uiso   1.00
C369   C     0.74544   0.52334   0.76527   0.00000  Uiso   1.00
C370   C     0.79003   0.55401   0.73092   0.00000  Uiso   1.00
C371   C     0.85471   0.55090   0.72389   0.00000  Uiso   1.00
C372   C     0.88716   0.58213   0.69086   0.00000  Uiso   1.00
C373   C     0.96113   0.62471   0.64129   0.00000  Uiso   1.00
C374   C     0.69826   0.51787   0.68271   0.00000  Uiso   1.00
C375   C     0.68576   0.48435   0.63515   0.00000  Uiso   1.00
C376   C     0.64094   0.48516   0.56154   0.00000  Uiso   1.00
C377   C     0.57240   0.47161   0.43717   0.00000  Uiso   1.00
C378   C     0.70870   0.53997   0.85053   0.00000  Uiso   1.00
C379   C     0.70498   0.52503   0.94409   0.00000  Uiso   1.00
C380   C     0.66894   0.54445   0.01177   0.00000  Uiso   1.00
C381   C     0.61661   0.56521   0.14798   0.00000  Uiso   1.00
C382   C     0.68804   0.58436   0.71910   0.00000  Uiso   1.00
C383   C     0.75885   0.58716   0.70584   0.00000  Uiso   1.00
C384   C     0.79121   0.61841   0.67281   0.00000  Uiso   1.00
C385   C     0.85592   0.61534   0.66574   0.00000  Uiso   1.00
C386   C     0.66708   0.55101   0.65763   0.00000  Uiso   1.00
C387   C     0.62226   0.55186   0.58408   0.00000  Uiso   1.00
C388   C     0.60971   0.51836   0.53642   0.00000  Uiso   1.00
C389   C     0.67752   0.57311   0.82546   0.00000  Uiso   1.00
C390   C     0.64148   0.59255   0.89301   0.00000  Uiso   1.00
C391   C     0.63770   0.57765   0.98665   0.00000  Uiso   1.00
H392   H     0.76971   0.49754   0.78479   0.00000  Uiso   1.00
H393   H     0.87882   0.52524   0.74330   0.00000  Uiso   1.00
H394   H     0.70990   0.45871   0.65458   0.00000  Uiso   1.00
H395   H     0.72911   0.49939   0.96347   0.00000  Uiso   1.00
H396   H     0.98604   0.57056   0.68621   0.00000  Uiso   1.00
H397   H     0.62983   0.43028   0.49917   0.00000  Uiso   1.00
H398   H     0.67035   0.51605   0.15051   0.00000  Uiso   1.00
H399   H     0.66377   0.61017   0.69958   0.00000  Uiso   1.00
H400   H     0.76707   0.64405   0.65341   0.00000  Uiso   1.00
H401   H     0.59814   0.57752   0.56469   0.00000  Uiso   1.00
H402   H     0.61735   0.61819   0.87358   0.00000  Uiso   1.00
H403   H     0.89533   0.66699   0.61325   0.00000  Uiso   1.00
H404   H     0.53912   0.52670   0.42621   0.00000  Uiso   1.00
H405   H     0.57964   0.61248   0.07755   0.00000  Uiso   1.00
O406   O     0.01055   0.63903   0.62087   0.00000  Uiso   1.00
O407   O     0.54321   0.45498   0.37549   0.00000  Uiso   1.00
O408   O     0.59637   0.56751   0.23003   0.00000  Uiso   1.00
N409   N     0.95052   0.58861   0.67539   0.00000  Uiso   1.00
N410   N     0.61749   0.45745   0.50051   0.00000  Uiso   1.00
N411   N     0.65536   0.53764   0.10945   0.00000  Uiso   1.00
N412   N     0.90171   0.64050   0.63613   0.00000  Uiso   1.00
N413   N     0.56868   0.50934   0.46125   0.00000  Uiso   1.00
N414   N     0.60655   0.58952   0.07019   0.00000  Uiso   1.00
C415   C     0.74544   0.02334   0.26527   0.00000  Uiso   1.00
C416   C     0.79003   0.05401   0.23092   0.00000  Uiso   1.00
C417   C     0.85471   0.05090   0.22389   0.00000  Uiso   1.00
C418   C     0.88716   0.08213   0.19086   0.00000  Uiso   1.00
C419   C     0.96113   0.12471   0.14129   0.00000  Uiso   1.00
C420   C     0.69826   0.01787   0.18271   0.00000  Uiso   1.00
C421   C     0.68576   0.98435   0.13515   0.00000  Uiso   1.00
C422   C     0.64094   0.98516   0.06154   0.00000  Uiso   1.00
C423   C     0.57240   0.97161   0.93717   0.00000  Uiso   1.00
C424   C     0.70870   0.03997   0.35053   0.00000  Uiso   1.00
C425   C     0.70498   0.02503   0.44409   0.00000  Uiso   1.00
C426   C     0.66894   0.04445   0.51177   0.00000  Uiso   1.00
C427   C     0.61661   0.06521   0.64798   0.00000  Uiso   1.00
C428   C     0.68804   0.08436   0.21910   0.00000  Uiso   1.00
C429   C     0.75885   0.08716   0.20584   0.00000  Uiso   1.00
C430   C     0.79121   0.11841   0.17281   0.00000  Uiso   1.00
C431   C     0.85592   0.11534   0.16574   0.00000  Uiso   1.00
C432   C     0.66708   0.05101   0.15763   0.00000  Uiso   1.00
C433   C     0.62226   0.05186   0.08408   0.00000  Uiso   1.00
C434   C     0.60971   0.01836   0.03642   0.00000  Uiso   1.00
C435   C     0.67752   0.07311   0.32546   0.00000  Uiso   1.00
C436   C     0.64148   0.09255   0.39301   0.00000  Uiso   1.00
C437   C     0.63770   0.07765   0.48665   0.00000  Uiso   1.00
H438   H     0.76971   0.99754   0.28479   0.00000  Uiso   1.00
H439   H     0.87882   0.02524   0.24330   0.00000  Uiso   1.00
H440   H     0.70990   0.95871   0.15458   0.00000  Uiso   1.00
H441   H     0.72911   0.99939   0.46347   0.00000  Uiso   1.00
H442   H     0.98604   0.07056   0.18621   0.00000  Uiso   1.00
H443   H     0.62983   0.93028   0.99917   0.00000  Uiso   1.00
H444   H     0.67035   0.01605   0.65051   0.00000  Uiso   1.00
H445   H     0.66377   0.11017   0.19958   0.00000  Uiso   1.00
H446   H     0.76707   0.14405   0.15341   0.00000  Uiso   1.00
H447   H     0.59814   0.07752   0.06469   0.00000  Uiso   1.00
H448   H     0.61735   0.11819   0.37358   0.00000  Uiso   1.00
H449   H     0.89533   0.16699   0.11325   0.00000  Uiso   1.00
H450   H     0.53912   0.02670   0.92621   0.00000  Uiso   1.00
H451   H     0.57964   0.11248   0.57755   0.00000  Uiso   1.00
O452   O     0.01055   0.13903   0.12087   0.00000  Uiso   1.00
O453   O     0.54321   0.95498   0.87549   0.00000  Uiso   1.00
O454   O     0.59637   0.06751   0.73003   0.00000  Uiso   1.00
N455   N     0.95052   0.08861   0.17539   0.00000  Uiso   1.00
N456   N     0.61749   0.95745   0.00051   0.00000  Uiso   1.00
N457   N     0.65536   0.03764   0.60945   0.00000  Uiso   1.00
N458   N     0.90171   0.14050   0.13613   0.00000  Uiso   1.00
N459   N     0.56868   0.00934   0.96125   0.00000  Uiso   1.00
N460   N     0.60655   0.08952   0.57019   0.00000  Uiso   1.00
C461   C     0.24544   0.52334   0.26527   0.00000  Uiso   1.00
C462   C     0.29003   0.55401   0.23092   0.00000  Uiso   1.00
C463   C     0.35471   0.55090   0.22389   0.00000  Uiso   1.00
C464   C     0.38716   0.58213   0.19086   0.00000  Uiso   1.00
C465   C     0.46113   0.62471   0.14129   0.00000  Uiso   1.00
C466   C     0.19826   0.51787   0.18271   0.00000  Uiso   1.00
C467   C     0.18576   0.48435   0.13515   0.00000  Uiso   1.00
C468   C     0.14094   0.48516   0.06154   0.00000  Uiso   1.00
C469   C     0.07240   0.47161   0.93717   0.00000  Uiso   1.00
C470   C     0.20870   0.53997   0.35053   0.00000  Uiso   1.00
C471   C     0.20498   0.52503   0.44409   0.00000  Uiso   1.00
C472   C     0.16894   0.54445   0.51177   0.00000  Uiso   1.00
C473   C     0.11661   0.56521   0.64798   0.00000  Uiso   1.00
C474   C     0.18804   0.58436   0.21910   0.00000  Uiso   1.00
C475   C     0.25885   0.58716   0.20584   0.00000  Uiso   1.00
C476   C     0.29121   0.61841   0.17281   0.00000  Uiso   1.00
C477   C     0.35592   0.61534   0.16574   0.00000  Uiso   1.00
C478   C     0.16708   0.55101   0.15763   0.00000  Uiso   1.00
C479   C     0.12226   0.55186   0.08408   0.00000  Uiso   1.00
C480   C     0.10971   0.51836   0.03642   0.00000  Uiso   1.00
C481   C     0.17752   0.57311   0.32546   0.00000  Uiso   1.00
C482   C     0.14148   0.59255   0.39301   0.00000  Uiso   1.00
C483   C     0.13770   0.57765   0.48665   0.00000  Uiso   1.00
H484   H     0.26971   0.49754   0.28479   0.00000  Uiso   1.00
H485   H     0.37882   0.52524   0.24330   0.00000  Uiso   1.00
H486   H     0.20990   0.45871   0.15458   0.00000  Uiso   1.00
H487   H     0.22911   0.49939   0.46347   0.00000  Uiso   1.00
H488   H     0.48604   0.57056   0.18621   0.00000  Uiso   1.00
H489   H     0.12983   0.43028   0.99917   0.00000  Uiso   1.00
H490   H     0.17035   0.51605   0.65051   0.00000  Uiso   1.00
H491   H     0.16377   0.61017   0.19958   0.00000  Uiso   1.00
H492   H     0.26707   0.64405   0.15341   0.00000  Uiso   1.00
H493   H     0.09814   0.57752   0.06469   0.00000  Uiso   1.00
H494   H     0.11735   0.61819   0.37358   0.00000  Uiso   1.00
H495   H     0.39533   0.66699   0.11325   0.00000  Uiso   1.00
H496   H     0.03912   0.52670   0.92621   0.00000  Uiso   1.00
H497   H     0.07964   0.61248   0.57755   0.00000  Uiso   1.00
O498   O     0.51055   0.63903   0.12087   0.00000  Uiso   1.00
O499   O     0.04321   0.45498   0.87549   0.00000  Uiso   1.00
O500   O     0.09637   0.56751   0.73003   0.00000  Uiso   1.00
N501   N     0.45052   0.58861   0.17539   0.00000  Uiso   1.00
N502   N     0.11749   0.45745   0.00051   0.00000  Uiso   1.00
N503   N     0.15536   0.53764   0.60945   0.00000  Uiso   1.00
N504   N     0.40171   0.64050   0.13613   0.00000  Uiso   1.00
N505   N     0.06868   0.50934   0.96125   0.00000  Uiso   1.00
N506   N     0.10655   0.58952   0.57019   0.00000  Uiso   1.00
C507   C     0.24544   0.02334   0.76527   0.00000  Uiso   1.00
C508   C     0.29003   0.05401   0.73092   0.00000  Uiso   1.00
C509   C     0.35471   0.05090   0.72389   0.00000  Uiso   1.00
C510   C     0.38716   0.08213   0.69086   0.00000  Uiso   1.00
C511   C     0.46113   0.12471   0.64129   0.00000  Uiso   1.00
C512   C     0.19826   0.01787   0.68271   0.00000  Uiso   1.00
C513   C     0.18576   0.98435   0.63515   0.00000  Uiso   1.00
C514   C     0.14094   0.98516   0.56154   0.00000  Uiso   1.00
C515   C     0.07240   0.97161   0.43717   0.00000  Uiso   1.00
C516   C     0.20870   0.03997   0.85053   0.00000  Uiso   1.00
C517   C     0.20498   0.02503   0.94409   0.00000  Uiso   1.00
C518   C     0.16894   0.04445   0.01177   0.00000  Uiso   1.00
C519   C     0.11661   0.06521   0.14798   0.00000  Uiso   1.00
C520   C     0.18804   0.08436   0.71910   0.00000  Uiso   1.00
C521   C     0.25885   0.08716   0.70584   0.00000  Uiso   1.00
C522   C     0.29121   0.11841   0.67281   0.00000  Uiso   1.00
C523   C     0.35592   0.11534   0.66574   0.00000  Uiso   1.00
C524   C     0.16708   0.05101   0.65763   0.00000  Uiso   1.00
C525   C     0.12226   0.05186   0.58408   0.00000  Uiso   1.00
C526   C     0.10971   0.01836   0.53642   0.00000  Uiso   1.00
C527   C     0.17752   0.07311   0.82546   0.00000  Uiso   1.00
C528   C     0.14148   0.09255   0.89301   0.00000  Uiso   1.00
C529   C     0.13770   0.07765   0.98665   0.00000  Uiso   1.00
H530   H     0.26971   0.99754   0.78479   0.00000  Uiso   1.00
H531   H     0.37882   0.02524   0.74330   0.00000  Uiso   1.00
H532   H     0.20990   0.95871   0.65458   0.00000  Uiso   1.00
H533   H     0.22911   0.99939   0.96347   0.00000  Uiso   1.00
H534   H     0.48604   0.07056   0.68621   0.00000  Uiso   1.00
H535   H     0.12983   0.93028   0.49917   0.00000  Uiso   1.00
H536   H     0.17035   0.01605   0.15051   0.00000  Uiso   1.00
H537   H     0.16377   0.11017   0.69958   0.00000  Uiso   1.00
H538   H     0.26707   0.14405   0.65341   0.00000  Uiso   1.00
H539   H     0.09814   0.07752   0.56469   0.00000  Uiso   1.00
H540   H     0.11735   0.11819   0.87358   0.00000  Uiso   1.00
H541   H     0.39533   0.16699   0.61325   0.00000  Uiso   1.00
H542   H     0.03912   0.02670   0.42621   0.00000  Uiso   1.00
H543   H     0.07964   0.11248   0.07755   0.00000  Uiso   1.00
O544   O     0.51055   0.13903   0.62087   0.00000  Uiso   1.00
O545   O     0.04321   0.95498   0.37549   0.00000  Uiso   1.00
O546   O     0.09637   0.06751   0.23003   0.00000  Uiso   1.00
N547   N     0.45052   0.08861   0.67539   0.00000  Uiso   1.00
N548   N     0.11749   0.95745   0.50051   0.00000  Uiso   1.00
N549   N     0.15536   0.03764   0.10945   0.00000  Uiso   1.00
N550   N     0.40171   0.14050   0.63613   0.00000  Uiso   1.00
N551   N     0.06868   0.00934   0.46125   0.00000  Uiso   1.00
N552   N     0.10655   0.08952   0.07019   0.00000  Uiso   1.00
C553   C     0.75456   0.97666   0.76527   0.00000  Uiso   1.00
C554   C     0.70997   0.94599   0.73092   0.00000  Uiso   1.00
C555   C     0.64529   0.94910   0.72389   0.00000  Uiso   1.00
C556   C     0.61284   0.91787   0.69086   0.00000  Uiso   1.00
C557   C     0.53887   0.87529   0.64129   0.00000  Uiso   1.00
C558   C     0.80174   0.98213   0.68271   0.00000  Uiso   1.00
C559   C     0.81424   0.01565   0.63515   0.00000  Uiso   1.00
C560   C     0.85906   0.01484   0.56154   0.00000  Uiso   1.00
C561   C     0.92760   0.02839   0.43717   0.00000  Uiso   1.00
C562   C     0.79130   0.96003   0.85053   0.00000  Uiso   1.00
C563   C     0.79502   0.97497   0.94409   0.00000  Uiso   1.00
C564   C     0.83106   0.95555   0.01177   0.00000  Uiso   1.00
C565   C     0.88339   0.93479   0.14798   0.00000  Uiso   1.00
C566   C     0.81196   0.91564   0.71910   0.00000  Uiso   1.00
C567   C     0.74115   0.91284   0.70584   0.00000  Uiso   1.00
C568   C     0.70879   0.88159   0.67281   0.00000  Uiso   1.00
C569   C     0.64408   0.88466   0.66574   0.00000  Uiso   1.00
C570   C     0.83292   0.94899   0.65763   0.00000  Uiso   1.00
C571   C     0.87774   0.94814   0.58408   0.00000  Uiso   1.00
C572   C     0.89029   0.98164   0.53642   0.00000  Uiso   1.00
C573   C     0.82248   0.92689   0.82546   0.00000  Uiso   1.00
C574   C     0.85852   0.90745   0.89301   0.00000  Uiso   1.00
C575   C     0.86230   0.92235   0.98665   0.00000  Uiso   1.00
H576   H     0.73029   0.00246   0.78479   0.00000  Uiso   1.00
H577   H     0.62118   0.97476   0.74330   0.00000  Uiso   1.00
H578   H     0.79010   0.04129   0.65458   0.00000  Uiso   1.00
H579   H     0.77089   0.00061   0.96347   0.00000  Uiso   1.00
H580   H     0.51396   0.92944   0.68621   0.00000  Uiso   1.00
H581   H     0.87017   0.06972   0.49917   0.00000  Uiso   1.00
H582   H     0.82965   0.98395   0.15051   0.00000  Uiso   1.00
H583   H     0.83623   0.88983   0.69958   0.00000  Uiso   1.00
H584   H     0.73293   0.85595   0.65341   0.00000  Uiso   1.00
H585   H     0.90186   0.92248   0.56469   0.00000  Uiso   1.00
H586   H     0.88265   0.88181   0.87358   0.00000  Uiso   1.00
H587   H     0.60467   0.83301   0.61325   0.00000  Uiso   1.00
H588   H     0.96088   0.97330   0.42621   0.00000  Uiso   1.00
H589   H     0.92036   0.88752   0.07755   0.00000  Uiso   1.00
O590   O     0.48945   0.86097   0.62087   0.00000  Uiso   1.00
O591   O     0.95679   0.04502   0.37549   0.00000  Uiso   1.00
O592   O     0.90363   0.93249   0.23003   0.00000  Uiso   1.00
N593   N     0.54948   0.91139   0.67539   0.00000  Uiso   1.00
N594   N     0.88251   0.04255   0.50051   0.00000  Uiso   1.00
N595   N     0.84464   0.96236   0.10945   0.00000  Uiso   1.00
N596   N     0.59829   0.85950   0.63613   0.00000  Uiso   1.00
N597   N     0.93132   0.99066   0.46125   0.00000  Uiso   1.00
N598   N     0.89345   0.91048   0.07019   0.00000  Uiso   1.00
C599   C     0.75456   0.47666   0.26527   0.00000  Uiso   1.00
C600   C     0.70997   0.44599   0.23092   0.00000  Uiso   1.00
C601   C     0.64529   0.44910   0.22389   0.00000  Uiso   1.00
C602   C     0.61284   0.41787   0.19086   0.00000  Uiso   1.00
C603   C     0.53887   0.37529   0.14129   0.00000  Uiso   1.00
C604   C     0.80174   0.48213   0.18271   0.00000  Uiso   1.00
C605   C     0.81424   0.51565   0.13515   0.00000  Uiso   1.00
C606   C     0.85906   0.51484   0.06154   0.00000  Uiso   1.00
C607   C     0.92760   0.52839   0.93717   0.00000  Uiso   1.00
C608   C     0.79130   0.46003   0.35053   0.00000  Uiso   1.00
C609   C     0.79502   0.47497   0.44409   0.00000  Uiso   1.00
C610   C     0.83106   0.45555   0.51177   0.00000  Uiso   1.00
C611   C     0.88339   0.43479   0.64798   0.00000  Uiso   1.00
C612   C     0.81196   0.41564   0.21910   0.00000  Uiso   1.00
C613   C     0.74115   0.41284   0.20584   0.00000  Uiso   1.00
C614   C     0.70879   0.38159   0.17281   0.00000  Uiso   1.00
C615   C     0.64408   0.38466   0.16574   0.00000  Uiso   1.00
C616   C     0.83292   0.44899   0.15763   0.00000  Uiso   1.00
C617   C     0.87774   0.44814   0.08408   0.00000  Uiso   1.00
C618   C     0.89029   0.48164   0.03642   0.00000  Uiso   1.00
C619   C     0.82248   0.42689   0.32546   0.00000  Uiso   1.00
C620   C     0.85852   0.40745   0.39301   0.00000  Uiso   1.00
C621   C     0.86230   0.42235   0.48665   0.00000  Uiso   1.00
H622   H     0.73029   0.50246   0.28479   0.00000  Uiso   1.00
H623   H     0.62118   0.47476   0.24330   0.00000  Uiso   1.00
H624   H     0.79010   0.54129   0.15458   0.00000  Uiso   1.00
H625   H     0.77089   0.50061   0.46347   0.00000  Uiso   1.00
H626   H     0.51396   0.42944   0.18621   0.00000  Uiso   1.00
H627   H     0.87017   0.56972   0.99917   0.00000  Uiso   1.00
H628   H     0.82965   0.48395   0.65051   0.00000  Uiso   1.00
H629   H     0.83623   0.38983   0.19958   0.00000  Uiso   1.00
H630   H     0.73293   0.35595   0.15341   0.00000  Uiso   1.00
H631   H     0.90186   0.42248   0.06469   0.00000  Uiso   1.00
H632   H     0.88265   0.38181   0.37358   0.00000  Uiso   1.00
H633   H     0.60467   0.33301   0.11325   0.00000  Uiso   1.00
H634   H     0.96088   0.47330   0.92621   0.00000  Uiso   1.00
H635   H     0.92036   0.38752   0.57755   0.00000  Uiso   1.00
O636   O     0.48945   0.36097   0.12087   0.00000  Uiso   1.00
O637   O     0.95679   0.54502   0.87549   0.00000  Uiso   1.00
O638   O     0.90363   0.43249   0.73003   0.00000  Uiso   1.00
N639   N     0.54948   0.41139   0.17539   0.00000  Uiso   1.00
N640   N     0.88251   0.54255   0.00051   0.00000  Uiso   1.00
N641   N     0.84464   0.46236   0.60945   0.00000  Uiso   1.00
N642   N     0.59829   0.35950   0.13613   0.00000  Uiso   1.00
N643   N     0.93132   0.49066   0.96125   0.00000  Uiso   1.00
N644   N     0.89345   0.41048   0.57019   0.00000  Uiso   1.00
C645   C     0.25456   0.97666   0.26527   0.00000  Uiso   1.00
C646   C     0.20997   0.94599   0.23092   0.00000  Uiso   1.00
C647   C     0.14529   0.94910   0.22389   0.00000  Uiso   1.00
C648   C     0.11284   0.91787   0.19086   0.00000  Uiso   1.00
C649   C     0.03887   0.87529   0.14129   0.00000  Uiso   1.00
C650   C     0.30174   0.98213   0.18271   0.00000  Uiso   1.00
C651   C     0.31424   0.01565   0.13515   0.00000  Uiso   1.00
C652   C     0.35906   0.01484   0.06154   0.00000  Uiso   1.00
C653   C     0.42760   0.02839   0.93717   0.00000  Uiso   1.00
C654   C     0.29130   0.96003   0.35053   0.00000  Uiso   1.00
C655   C     0.29502   0.97497   0.44409   0.00000  Uiso   1.00
C656   C     0.33106   0.95555   0.51177   0.00000  Uiso   1.00
C657   C     0.38339   0.93479   0.64798   0.00000  Uiso   1.00
C658   C     0.31196   0.91564   0.21910   0.00000  Uiso   1.00
C659   C     0.24115   0.91284   0.20584   0.00000  Uiso   1.00
C660   C     0.20879   0.88159   0.17281   0.00000  Uiso   1.00
C661   C     0.14408   0.88466   0.16574   0.00000  Uiso   1.00
C662   C     0.33292   0.94899   0.15763   0.00000  Uiso   1.00
C663   C     0.37774   0.94814   0.08408   0.00000  Uiso   1.00
C664   C     0.39029   0.98164   0.03642   0.00000  Uiso   1.00
C665   C     0.32248   0.92689   0.32546   0.00000  Uiso   1.00
C666   C     0.35852   0.90745   0.39301   0.00000  Uiso   1.00
C667   C     0.36230   0.92235   0.48665   0.00000  Uiso   1.00
H668   H     0.23029   0.00246   0.28479   0.00000  Uiso   1.00
H669   H     0.12118   0.97476   0.24330   0.00000  Uiso   1.00
H670   H     0.29010   0.04129   0.15458   0.00000  Uiso   1.00
H671   H     0.27089   0.00061   0.46347   0.00000  Uiso   1.00
H672   H     0.01396   0.92944   0.18621   0.00000  Uiso   1.00
H673   H     0.37017   0.06972   0.99917   0.00000  Uiso   1.00
H674   H     0.32965   0.98395   0.65051   0.00000  Uiso   1.00
H675   H     0.33623   0.88983   0.19958   0.00000  Uiso   1.00
H676   H     0.23293   0.85595   0.15341   0.00000  Uiso   1.00
H677   H     0.40186   0.92248   0.06469   0.00000  Uiso   1.00
H678   H     0.38265   0.88181   0.37358   0.00000  Uiso   1.00
H679   H     0.10467   0.83301   0.11325   0.00000  Uiso   1.00
H680   H     0.46088   0.97330   0.92621   0.00000  Uiso   1.00
H681   H     0.42036   0.88752   0.57755   0.00000  Uiso   1.00
O682   O     0.98945   0.86097   0.12087   0.00000  Uiso   1.00
O683   O     0.45679   0.04502   0.87549   0.00000  Uiso   1.00
O684   O     0.40363   0.93249   0.73003   0.00000  Uiso   1.00
N685   N     0.04948   0.91139   0.17539   0.00000  Uiso   1.00
N686   N     0.38251   0.04255   0.00051   0.00000  Uiso   1.00
N687   N     0.34464   0.96236   0.60945   0.00000  Uiso   1.00
N688   N     0.09829   0.85950   0.13613   0.00000  Uiso   1.00
N689   N     0.43132   0.99066   0.96125   0.00000  Uiso   1.00
N690   N     0.39345   0.91048   0.57019   0.00000  Uiso   1.00
C691   C     0.25456   0.47666   0.76527   0.00000  Uiso   1.00
C692   C     0.20997   0.44599   0.73092   0.00000  Uiso   1.00
C693   C     0.14529   0.44910   0.72389   0.00000  Uiso   1.00
C694   C     0.11284   0.41787   0.69086   0.00000  Uiso   1.00
C695   C     0.03887   0.37529   0.64129   0.00000  Uiso   1.00
C696   C     0.30174   0.48213   0.68271   0.00000  Uiso   1.00
C697   C     0.31424   0.51565   0.63515   0.00000  Uiso   1.00
C698   C     0.35906   0.51484   0.56154   0.00000  Uiso   1.00
C699   C     0.42760   0.52839   0.43717   0.00000  Uiso   1.00
C700   C     0.29130   0.46003   0.85053   0.00000  Uiso   1.00
C701   C     0.29502   0.47497   0.94409   0.00000  Uiso   1.00
C702   C     0.33106   0.45555   0.01177   0.00000  Uiso   1.00
C703   C     0.38339   0.43479   0.14798   0.00000  Uiso   1.00
C704   C     0.31196   0.41564   0.71910   0.00000  Uiso   1.00
C705   C     0.24115   0.41284   0.70584   0.00000  Uiso   1.00
C706   C     0.20879   0.38159   0.67281   0.00000  Uiso   1.00
C707   C     0.14408   0.38466   0.66574   0.00000  Uiso   1.00
C708   C     0.33292   0.44899   0.65763   0.00000  Uiso   1.00
C709   C     0.37774   0.44814   0.58408   0.00000  Uiso   1.00
C710   C     0.39029   0.48164   0.53642   0.00000  Uiso   1.00
C711   C     0.32248   0.42689   0.82546   0.00000  Uiso   1.00
C712   C     0.35852   0.40745   0.89301   0.00000  Uiso   1.00
C713   C     0.36230   0.42235   0.98665   0.00000  Uiso   1.00
H714   H     0.23029   0.50246   0.78479   0.00000  Uiso   1.00
H715   H     0.12118   0.47476   0.74330   0.00000  Uiso   1.00
H716   H     0.29010   0.54129   0.65458   0.00000  Uiso   1.00
H717   H     0.27089   0.50061   0.96347   0.00000  Uiso   1.00
H718   H     0.01396   0.42944   0.68621   0.00000  Uiso   1.00
H719   H     0.37017   0.56972   0.49917   0.00000  Uiso   1.00
H720   H     0.32965   0.48395   0.15051   0.00000  Uiso   1.00
H721   H     0.33623   0.38983   0.69958   0.00000  Uiso   1.00
H722   H     0.23293   0.35595   0.65341   0.00000  Uiso   1.00
H723   H     0.40186   0.42248   0.56469   0.00000  Uiso   1.00
H724   H     0.38265   0.38181   0.87358   0.00000  Uiso   1.00
H725   H     0.10467   0.33301   0.61325   0.00000  Uiso   1.00
H726   H     0.46088   0.47330   0.42621   0.00000  Uiso   1.00
H727   H     0.42036   0.38752   0.07755   0.00000  Uiso   1.00
O728   O     0.98945   0.36097   0.62087   0.00000  Uiso   1.00
O729   O     0.45679   0.54502   0.37549   0.00000  Uiso   1.00
O730   O     0.40363   0.43249   0.23003   0.00000  Uiso   1.00
N731   N     0.04948   0.41139   0.67539   0.00000  Uiso   1.00
N732   N     0.38251   0.54255   0.50051   0.00000  Uiso   1.00
N733   N     0.34464   0.46236   0.10945   0.00000  Uiso   1.00
N734   N     0.09829   0.35950   0.63613   0.00000  Uiso   1.00
N735   N     0.43132   0.49066   0.46125   0.00000  Uiso   1.00
N736   N     0.39345   0.41048   0.07019   0.00000  Uiso   1.00
