data_job_06515
_audit_creation_date              2018-12-19
_audit_creation_method            'Materials Studio'
_symmetry_space_group_name_H-M    'P1'
_symmetry_Int_Tables_number       1
_symmetry_cell_setting            triclinic
loop_
_symmetry_equiv_pos_as_xyz
  x,y,z
_cell_length_a                    38.8075
_cell_length_b                    19.9053
_cell_length_c                    18.1664
_cell_angle_alpha                 90.0000
_cell_angle_beta                  94.9538
_cell_angle_gamma                 90.0000
loop_
_atom_site_label
_atom_site_type_symbol
_atom_site_fract_x
_atom_site_fract_y
_atom_site_fract_z
_atom_site_U_iso_or_equiv
_atom_site_adp_type
_atom_site_occupancy
C1     C     0.60199   0.32886   0.68852   0.00000  Uiso   1.00
C2     C     0.58518   0.36749   0.62237   0.00000  Uiso   1.00
C3     C     0.58420   0.34730   0.54911   0.00000  Uiso   1.00
C4     C     0.56758   0.38970   0.49673   0.00000  Uiso   1.00
C5     C     0.54378   0.44051   0.39095   0.00000  Uiso   1.00
C6     C     0.62805   0.37687   0.72802   0.00000  Uiso   1.00
C7     C     0.66312   0.36454   0.74359   0.00000  Uiso   1.00
C8     C     0.68260   0.41483   0.78016   0.00000  Uiso   1.00
C9     C     0.72536   0.48017   0.83845   0.00000  Uiso   1.00
C10    C     0.57371   0.31846   0.74069   0.00000  Uiso   1.00
C11    C     0.56310   0.25702   0.76694   0.00000  Uiso   1.00
C12    C     0.53683   0.25814   0.81419   0.00000  Uiso   1.00
C13    C     0.49523   0.23278   0.89214   0.00000  Uiso   1.00
C14    C     0.57421   0.44008   0.72579   0.00000  Uiso   1.00
C15    C     0.57009   0.42790   0.64262   0.00000  Uiso   1.00
C16    C     0.55346   0.47035   0.59034   0.00000  Uiso   1.00
C17    C     0.55246   0.45021   0.51701   0.00000  Uiso   1.00
C18    C     0.61296   0.43727   0.74827   0.00000  Uiso   1.00
C19    C     0.63239   0.48759   0.78483   0.00000  Uiso   1.00
C20    C     0.66748   0.47535   0.80045   0.00000  Uiso   1.00
C21    C     0.55862   0.37886   0.76094   0.00000  Uiso   1.00
C22    C     0.53237   0.38007   0.80817   0.00000  Uiso   1.00
C23    C     0.52172   0.31865   0.83447   0.00000  Uiso   1.00
H24    H     0.61374   0.28184   0.67276   0.00000  Uiso   1.00
H25    H     0.59588   0.30055   0.53346   0.00000  Uiso   1.00
H26    H     0.67479   0.31779   0.72793   0.00000  Uiso   1.00
H27    H     0.57479   0.21029   0.75126   0.00000  Uiso   1.00
H28    H     0.56944   0.34794   0.38795   0.00000  Uiso   1.00
H29    H     0.73582   0.38428   0.79801   0.00000  Uiso   1.00
H30    H     0.52494   0.15760   0.84721   0.00000  Uiso   1.00
H31    H     0.56247   0.48712   0.74155   0.00000  Uiso   1.00
H32    H     0.54179   0.51709   0.60603   0.00000  Uiso   1.00
H33    H     0.62070   0.53433   0.80049   0.00000  Uiso   1.00
H34    H     0.52070   0.42683   0.82382   0.00000  Uiso   1.00
H35    H     0.52554   0.52370   0.44685   0.00000  Uiso   1.00
H36    H     0.69192   0.56004   0.85691   0.00000  Uiso   1.00
H37    H     0.48104   0.33335   0.90611   0.00000  Uiso   1.00
O38    O     0.53482   0.45185   0.32700   0.00000  Uiso   1.00
O39    O     0.75311   0.49952   0.86500   0.00000  Uiso   1.00
O40    O     0.47644   0.20211   0.92954   0.00000  Uiso   1.00
N41    N     0.56194   0.38519   0.42041   0.00000  Uiso   1.00
N42    N     0.71750   0.41917   0.80378   0.00000  Uiso   1.00
N43    N     0.52035   0.20724   0.84980   0.00000  Uiso   1.00
N44    N     0.53832   0.47976   0.45211   0.00000  Uiso   1.00
N45    N     0.69388   0.51374   0.83547   0.00000  Uiso   1.00
N46    N     0.49673   0.30181   0.88149   0.00000  Uiso   1.00
C47    C     0.64434   0.11867   0.77135   0.00000  Uiso   1.00
C48    C     0.61529   0.09437   0.71584   0.00000  Uiso   1.00
C49    C     0.60994   0.11437   0.64257   0.00000  Uiso   1.00
C50    C     0.58190   0.08635   0.60083   0.00000  Uiso   1.00
C51    C     0.54011   0.05570   0.51001   0.00000  Uiso   1.00
C52    C     0.62676   0.14742   0.83632   0.00000  Uiso   1.00
C53    C     0.63106   0.21203   0.86435   0.00000  Uiso   1.00
C54    C     0.61268   0.22866   0.92404   0.00000  Uiso   1.00
C55    C     0.58872   0.28036   0.02030   0.00000  Uiso   1.00
C56    C     0.66336   0.05573   0.80039   0.00000  Uiso   1.00
C57    C     0.69844   0.04324   0.79822   0.00000  Uiso   1.00
C58    C     0.71088   0.98268   0.82767   0.00000  Uiso   1.00
C59    C     0.74374   0.89202   0.86813   0.00000  Uiso   1.00
C60    C     0.60405   0.03333   0.82753   0.00000  Uiso   1.00
C61    C     0.59340   0.04802   0.74636   0.00000  Uiso   1.00
C62    C     0.56536   0.01995   0.70472   0.00000  Uiso   1.00
C63    C     0.55998   0.03991   0.63140   0.00000  Uiso   1.00
C64    C     0.60487   0.10107   0.86684   0.00000  Uiso   1.00
C65    C     0.58648   0.11761   0.92650   0.00000  Uiso   1.00
C66    C     0.59076   0.18222   0.95461   0.00000  Uiso   1.00
C67    C     0.64147   0.00938   0.83090   0.00000  Uiso   1.00
C68    C     0.65386   0.94882   0.86037   0.00000  Uiso   1.00
C69    C     0.68895   0.93625   0.85824   0.00000  Uiso   1.00
H70    H     0.66137   0.15476   0.74760   0.00000  Uiso   1.00
H71    H     0.62688   0.15025   0.61897   0.00000  Uiso   1.00
H72    H     0.64800   0.24788   0.84073   0.00000  Uiso   1.00
H73    H     0.71537   0.07913   0.77460   0.00000  Uiso   1.00
H74    H     0.57898   0.12483   0.48983   0.00000  Uiso   1.00
H75    H     0.62352   0.33069   0.95743   0.00000  Uiso   1.00
H76    H     0.76557   0.97483   0.81799   0.00000  Uiso   1.00
H77    H     0.58701   0.99724   0.85129   0.00000  Uiso   1.00
H78    H     0.54843   0.98408   0.72835   0.00000  Uiso   1.00
H79    H     0.56955   0.08173   0.95011   0.00000  Uiso   1.00
H80    H     0.63692   0.91297   0.88398   0.00000  Uiso   1.00
H81    H     0.51531   0.98997   0.57861   0.00000  Uiso   1.00
H82    H     0.55985   0.19583   0.04621   0.00000  Uiso   1.00
H83    H     0.70190   0.83997   0.90676   0.00000  Uiso   1.00
O84    O     0.52310   0.05160   0.45149   0.00000  Uiso   1.00
O85    O     0.58154   0.32169   0.06496   0.00000  Uiso   1.00
O86    O     0.76791   0.85481   0.88201   0.00000  Uiso   1.00
N87    N     0.56929   0.09488   0.52760   0.00000  Uiso   1.00
N88    N     0.61093   0.28736   0.96476   0.00000  Uiso   1.00
N89    N     0.74374   0.95467   0.83441   0.00000  Uiso   1.00
N90    N     0.53503   0.02231   0.57537   0.00000  Uiso   1.00
N91    N     0.57667   0.21479   0.01253   0.00000  Uiso   1.00
N92    N     0.70948   0.88210   0.88218   0.00000  Uiso   1.00
C93    C     0.76629   0.21125   0.86170   0.00000  Uiso   1.00
C94    C     0.75871   0.20694   0.77806   0.00000  Uiso   1.00
C95    C     0.72632   0.21250   0.73973   0.00000  Uiso   1.00
C96    C     0.72481   0.20713   0.66332   0.00000  Uiso   1.00
C97    C     0.70849   0.20200   0.53903   0.00000  Uiso   1.00
C98    C     0.78494   0.14625   0.88511   0.00000  Uiso   1.00
C99    C     0.77460   0.10079   0.93679   0.00000  Uiso   1.00
C100   C     0.79517   0.04434   0.95050   0.00000  Uiso   1.00
C101   C     0.81959   0.94501   0.99245   0.00000  Uiso   1.00
C102   C     0.79287   0.26725   0.87564   0.00000  Uiso   1.00
C103   C     0.78921   0.32353   0.91938   0.00000  Uiso   1.00
C104   C     0.81646   0.36895   0.92514   0.00000  Uiso   1.00
C105   C     0.85320   0.45750   0.95239   0.00000  Uiso   1.00
C106   C     0.82121   0.19182   0.79416   0.00000  Uiso   1.00
C107   C     0.78854   0.19638   0.74138   0.00000  Uiso   1.00
C108   C     0.78707   0.19101   0.66500   0.00000  Uiso   1.00
C109   C     0.75469   0.19656   0.62656   0.00000  Uiso   1.00
C110   C     0.81476   0.13569   0.84843   0.00000  Uiso   1.00
C111   C     0.83536   0.07930   0.86207   0.00000  Uiso   1.00
C112   C     0.82505   0.03376   0.91375   0.00000  Uiso   1.00
C113   C     0.82270   0.25670   0.83896   0.00000  Uiso   1.00
C114   C     0.84996   0.30204   0.84466   0.00000  Uiso   1.00
C115   C     0.84634   0.35838   0.88839   0.00000  Uiso   1.00
H116   H     0.74307   0.21946   0.89026   0.00000  Uiso   1.00
H117   H     0.70324   0.22066   0.76814   0.00000  Uiso   1.00
H118   H     0.75152   0.10897   0.96517   0.00000  Uiso   1.00
H119   H     0.76613   0.33168   0.94776   0.00000  Uiso   1.00
H120   H     0.67223   0.21731   0.61656   0.00000  Uiso   1.00
H121   H     0.77404   0.98182   0.03205   0.00000  Uiso   1.00
H122   H     0.80483   0.45144   0.99534   0.00000  Uiso   1.00
H123   H     0.84443   0.18361   0.76560   0.00000  Uiso   1.00
H124   H     0.81016   0.18284   0.63663   0.00000  Uiso   1.00
H125   H     0.85844   0.07115   0.83367   0.00000  Uiso   1.00
H126   H     0.87304   0.29386   0.81626   0.00000  Uiso   1.00
H127   H     0.75901   0.18661   0.50983   0.00000  Uiso   1.00
H128   H     0.86081   0.95112   0.92532   0.00000  Uiso   1.00
H129   H     0.89161   0.42074   0.88860   0.00000  Uiso   1.00
O130   O     0.69125   0.20208   0.48061   0.00000  Uiso   1.00
O131   O     0.82481   0.89313   0.02572   0.00000  Uiso   1.00
O132   O     0.86521   0.50927   0.97755   0.00000  Uiso   1.00
N133   N     0.69736   0.21020   0.60914   0.00000  Uiso   1.00
N134   N     0.79254   0.99003   0.99759   0.00000  Uiso   1.00
N135   N     0.82133   0.42908   0.96328   0.00000  Uiso   1.00
N136   N     0.74405   0.19368   0.55171   0.00000  Uiso   1.00
N137   N     0.83923   0.97351   0.94015   0.00000  Uiso   1.00
N138   N     0.86803   0.41256   0.90585   0.00000  Uiso   1.00
C139   C     0.10199   0.82886   0.68852   0.00000  Uiso   1.00
C140   C     0.08518   0.86749   0.62237   0.00000  Uiso   1.00
C141   C     0.08420   0.84730   0.54911   0.00000  Uiso   1.00
C142   C     0.06758   0.88970   0.49673   0.00000  Uiso   1.00
C143   C     0.04378   0.94051   0.39095   0.00000  Uiso   1.00
C144   C     0.12805   0.87687   0.72802   0.00000  Uiso   1.00
C145   C     0.16312   0.86454   0.74359   0.00000  Uiso   1.00
C146   C     0.18260   0.91483   0.78016   0.00000  Uiso   1.00
C147   C     0.22536   0.98017   0.83845   0.00000  Uiso   1.00
C148   C     0.07371   0.81846   0.74069   0.00000  Uiso   1.00
C149   C     0.06310   0.75702   0.76694   0.00000  Uiso   1.00
C150   C     0.03683   0.75814   0.81419   0.00000  Uiso   1.00
C151   C     0.99523   0.73278   0.89214   0.00000  Uiso   1.00
C152   C     0.07421   0.94008   0.72579   0.00000  Uiso   1.00
C153   C     0.07009   0.92790   0.64262   0.00000  Uiso   1.00
C154   C     0.05346   0.97035   0.59034   0.00000  Uiso   1.00
C155   C     0.05246   0.95021   0.51701   0.00000  Uiso   1.00
C156   C     0.11296   0.93727   0.74827   0.00000  Uiso   1.00
C157   C     0.13239   0.98759   0.78483   0.00000  Uiso   1.00
C158   C     0.16748   0.97535   0.80045   0.00000  Uiso   1.00
C159   C     0.05862   0.87886   0.76094   0.00000  Uiso   1.00
C160   C     0.03237   0.88007   0.80817   0.00000  Uiso   1.00
C161   C     0.02172   0.81865   0.83447   0.00000  Uiso   1.00
H162   H     0.11374   0.78184   0.67276   0.00000  Uiso   1.00
H163   H     0.09588   0.80055   0.53346   0.00000  Uiso   1.00
H164   H     0.17479   0.81779   0.72793   0.00000  Uiso   1.00
H165   H     0.07479   0.71029   0.75126   0.00000  Uiso   1.00
H166   H     0.06944   0.84794   0.38795   0.00000  Uiso   1.00
H167   H     0.23582   0.88428   0.79801   0.00000  Uiso   1.00
H168   H     0.02494   0.65760   0.84721   0.00000  Uiso   1.00
H169   H     0.06247   0.98712   0.74155   0.00000  Uiso   1.00
H170   H     0.04179   0.01709   0.60603   0.00000  Uiso   1.00
H171   H     0.12070   0.03433   0.80049   0.00000  Uiso   1.00
H172   H     0.02070   0.92683   0.82382   0.00000  Uiso   1.00
H173   H     0.02554   0.02370   0.44685   0.00000  Uiso   1.00
H174   H     0.19192   0.06004   0.85691   0.00000  Uiso   1.00
H175   H     0.98104   0.83335   0.90611   0.00000  Uiso   1.00
O176   O     0.03482   0.95185   0.32700   0.00000  Uiso   1.00
O177   O     0.25311   0.99952   0.86500   0.00000  Uiso   1.00
O178   O     0.97644   0.70211   0.92954   0.00000  Uiso   1.00
N179   N     0.06194   0.88519   0.42041   0.00000  Uiso   1.00
N180   N     0.21750   0.91917   0.80378   0.00000  Uiso   1.00
N181   N     0.02035   0.70724   0.84980   0.00000  Uiso   1.00
N182   N     0.03832   0.97976   0.45211   0.00000  Uiso   1.00
N183   N     0.19388   0.01374   0.83547   0.00000  Uiso   1.00
N184   N     0.99673   0.80181   0.88149   0.00000  Uiso   1.00
C185   C     0.14434   0.61867   0.77135   0.00000  Uiso   1.00
C186   C     0.11529   0.59437   0.71584   0.00000  Uiso   1.00
C187   C     0.10994   0.61437   0.64257   0.00000  Uiso   1.00
C188   C     0.08190   0.58635   0.60083   0.00000  Uiso   1.00
C189   C     0.04011   0.55570   0.51001   0.00000  Uiso   1.00
C190   C     0.12676   0.64742   0.83632   0.00000  Uiso   1.00
C191   C     0.13106   0.71203   0.86435   0.00000  Uiso   1.00
C192   C     0.11268   0.72866   0.92404   0.00000  Uiso   1.00
C193   C     0.08872   0.78036   0.02030   0.00000  Uiso   1.00
C194   C     0.16336   0.55573   0.80039   0.00000  Uiso   1.00
C195   C     0.19844   0.54324   0.79822   0.00000  Uiso   1.00
C196   C     0.21088   0.48268   0.82767   0.00000  Uiso   1.00
C197   C     0.24374   0.39202   0.86813   0.00000  Uiso   1.00
C198   C     0.10405   0.53333   0.82753   0.00000  Uiso   1.00
C199   C     0.09340   0.54802   0.74636   0.00000  Uiso   1.00
C200   C     0.06536   0.51995   0.70472   0.00000  Uiso   1.00
C201   C     0.05998   0.53991   0.63140   0.00000  Uiso   1.00
C202   C     0.10487   0.60107   0.86684   0.00000  Uiso   1.00
C203   C     0.08648   0.61761   0.92650   0.00000  Uiso   1.00
C204   C     0.09076   0.68222   0.95461   0.00000  Uiso   1.00
C205   C     0.14147   0.50938   0.83090   0.00000  Uiso   1.00
C206   C     0.15386   0.44882   0.86037   0.00000  Uiso   1.00
C207   C     0.18895   0.43625   0.85824   0.00000  Uiso   1.00
H208   H     0.16137   0.65476   0.74760   0.00000  Uiso   1.00
H209   H     0.12688   0.65025   0.61897   0.00000  Uiso   1.00
H210   H     0.14800   0.74788   0.84073   0.00000  Uiso   1.00
H211   H     0.21537   0.57913   0.77460   0.00000  Uiso   1.00
H212   H     0.07898   0.62483   0.48983   0.00000  Uiso   1.00
H213   H     0.12352   0.83069   0.95743   0.00000  Uiso   1.00
H214   H     0.26557   0.47483   0.81799   0.00000  Uiso   1.00
H215   H     0.08701   0.49724   0.85129   0.00000  Uiso   1.00
H216   H     0.04843   0.48408   0.72835   0.00000  Uiso   1.00
H217   H     0.06955   0.58173   0.95011   0.00000  Uiso   1.00
H218   H     0.13692   0.41297   0.88398   0.00000  Uiso   1.00
H219   H     0.01531   0.48997   0.57861   0.00000  Uiso   1.00
H220   H     0.05985   0.69583   0.04621   0.00000  Uiso   1.00
H221   H     0.20190   0.33997   0.90676   0.00000  Uiso   1.00
O222   O     0.02310   0.55160   0.45149   0.00000  Uiso   1.00
O223   O     0.08154   0.82169   0.06496   0.00000  Uiso   1.00
O224   O     0.26791   0.35481   0.88201   0.00000  Uiso   1.00
N225   N     0.06929   0.59488   0.52760   0.00000  Uiso   1.00
N226   N     0.11093   0.78736   0.96476   0.00000  Uiso   1.00
N227   N     0.24374   0.45467   0.83441   0.00000  Uiso   1.00
N228   N     0.03503   0.52231   0.57537   0.00000  Uiso   1.00
N229   N     0.07667   0.71479   0.01253   0.00000  Uiso   1.00
N230   N     0.20948   0.38210   0.88218   0.00000  Uiso   1.00
C231   C     0.26629   0.71125   0.86170   0.00000  Uiso   1.00
C232   C     0.25871   0.70694   0.77806   0.00000  Uiso   1.00
C233   C     0.22632   0.71250   0.73973   0.00000  Uiso   1.00
C234   C     0.22481   0.70713   0.66332   0.00000  Uiso   1.00
C235   C     0.20849   0.70200   0.53903   0.00000  Uiso   1.00
C236   C     0.28494   0.64625   0.88511   0.00000  Uiso   1.00
C237   C     0.27460   0.60079   0.93679   0.00000  Uiso   1.00
C238   C     0.29517   0.54434   0.95050   0.00000  Uiso   1.00
C239   C     0.31959   0.44501   0.99245   0.00000  Uiso   1.00
C240   C     0.29287   0.76725   0.87564   0.00000  Uiso   1.00
C241   C     0.28921   0.82353   0.91938   0.00000  Uiso   1.00
C242   C     0.31646   0.86895   0.92514   0.00000  Uiso   1.00
C243   C     0.35320   0.95750   0.95239   0.00000  Uiso   1.00
C244   C     0.32121   0.69182   0.79416   0.00000  Uiso   1.00
C245   C     0.28854   0.69638   0.74138   0.00000  Uiso   1.00
C246   C     0.28707   0.69101   0.66500   0.00000  Uiso   1.00
C247   C     0.25469   0.69656   0.62656   0.00000  Uiso   1.00
C248   C     0.31476   0.63569   0.84843   0.00000  Uiso   1.00
C249   C     0.33536   0.57930   0.86207   0.00000  Uiso   1.00
C250   C     0.32505   0.53376   0.91375   0.00000  Uiso   1.00
C251   C     0.32270   0.75670   0.83896   0.00000  Uiso   1.00
C252   C     0.34996   0.80204   0.84466   0.00000  Uiso   1.00
C253   C     0.34634   0.85838   0.88839   0.00000  Uiso   1.00
H254   H     0.24307   0.71946   0.89026   0.00000  Uiso   1.00
H255   H     0.20324   0.72066   0.76814   0.00000  Uiso   1.00
H256   H     0.25152   0.60897   0.96517   0.00000  Uiso   1.00
H257   H     0.26613   0.83168   0.94776   0.00000  Uiso   1.00
H258   H     0.17223   0.71731   0.61656   0.00000  Uiso   1.00
H259   H     0.27404   0.48182   0.03205   0.00000  Uiso   1.00
H260   H     0.30483   0.95144   0.99534   0.00000  Uiso   1.00
H261   H     0.34443   0.68361   0.76560   0.00000  Uiso   1.00
H262   H     0.31016   0.68284   0.63663   0.00000  Uiso   1.00
H263   H     0.35844   0.57115   0.83367   0.00000  Uiso   1.00
H264   H     0.37304   0.79386   0.81626   0.00000  Uiso   1.00
H265   H     0.25901   0.68661   0.50983   0.00000  Uiso   1.00
H266   H     0.36081   0.45112   0.92532   0.00000  Uiso   1.00
H267   H     0.39161   0.92074   0.88860   0.00000  Uiso   1.00
O268   O     0.19125   0.70208   0.48061   0.00000  Uiso   1.00
O269   O     0.32481   0.39313   0.02572   0.00000  Uiso   1.00
O270   O     0.36521   0.00927   0.97755   0.00000  Uiso   1.00
N271   N     0.19736   0.71020   0.60914   0.00000  Uiso   1.00
N272   N     0.29254   0.49003   0.99759   0.00000  Uiso   1.00
N273   N     0.32133   0.92908   0.96328   0.00000  Uiso   1.00
N274   N     0.24405   0.69368   0.55171   0.00000  Uiso   1.00
N275   N     0.33923   0.47351   0.94015   0.00000  Uiso   1.00
N276   N     0.36803   0.91256   0.90585   0.00000  Uiso   1.00
C277   C     0.39801   0.32886   0.81148   0.00000  Uiso   1.00
C278   C     0.41482   0.36749   0.87763   0.00000  Uiso   1.00
C279   C     0.41580   0.34730   0.95089   0.00000  Uiso   1.00
C280   C     0.43242   0.38970   0.00327   0.00000  Uiso   1.00
C281   C     0.45622   0.44051   0.10905   0.00000  Uiso   1.00
C282   C     0.37195   0.37687   0.77198   0.00000  Uiso   1.00
C283   C     0.33688   0.36454   0.75641   0.00000  Uiso   1.00
C284   C     0.31740   0.41483   0.71984   0.00000  Uiso   1.00
C285   C     0.27464   0.48017   0.66155   0.00000  Uiso   1.00
C286   C     0.42629   0.31846   0.75931   0.00000  Uiso   1.00
C287   C     0.43690   0.25702   0.73306   0.00000  Uiso   1.00
C288   C     0.46317   0.25814   0.68581   0.00000  Uiso   1.00
C289   C     0.50477   0.23278   0.60786   0.00000  Uiso   1.00
C290   C     0.42579   0.44008   0.77421   0.00000  Uiso   1.00
C291   C     0.42991   0.42790   0.85738   0.00000  Uiso   1.00
C292   C     0.44654   0.47035   0.90966   0.00000  Uiso   1.00
C293   C     0.44754   0.45021   0.98299   0.00000  Uiso   1.00
C294   C     0.38704   0.43727   0.75173   0.00000  Uiso   1.00
C295   C     0.36761   0.48759   0.71517   0.00000  Uiso   1.00
C296   C     0.33252   0.47535   0.69955   0.00000  Uiso   1.00
C297   C     0.44138   0.37886   0.73906   0.00000  Uiso   1.00
C298   C     0.46763   0.38007   0.69183   0.00000  Uiso   1.00
C299   C     0.47828   0.31865   0.66553   0.00000  Uiso   1.00
H300   H     0.38626   0.28184   0.82724   0.00000  Uiso   1.00
H301   H     0.40412   0.30055   0.96654   0.00000  Uiso   1.00
H302   H     0.32521   0.31779   0.77207   0.00000  Uiso   1.00
H303   H     0.42521   0.21029   0.74874   0.00000  Uiso   1.00
H304   H     0.43056   0.34794   0.11205   0.00000  Uiso   1.00
H305   H     0.26418   0.38428   0.70199   0.00000  Uiso   1.00
H306   H     0.47506   0.15760   0.65279   0.00000  Uiso   1.00
H307   H     0.43753   0.48712   0.75845   0.00000  Uiso   1.00
H308   H     0.45821   0.51709   0.89397   0.00000  Uiso   1.00
H309   H     0.37930   0.53433   0.69951   0.00000  Uiso   1.00
H310   H     0.47930   0.42683   0.67618   0.00000  Uiso   1.00
H311   H     0.47446   0.52370   0.05315   0.00000  Uiso   1.00
H312   H     0.30808   0.56004   0.64309   0.00000  Uiso   1.00
H313   H     0.51896   0.33335   0.59389   0.00000  Uiso   1.00
O314   O     0.46518   0.45185   0.17300   0.00000  Uiso   1.00
O315   O     0.24689   0.49952   0.63500   0.00000  Uiso   1.00
O316   O     0.52356   0.20211   0.57046   0.00000  Uiso   1.00
N317   N     0.43806   0.38519   0.07959   0.00000  Uiso   1.00
N318   N     0.28250   0.41917   0.69622   0.00000  Uiso   1.00
N319   N     0.47965   0.20724   0.65020   0.00000  Uiso   1.00
N320   N     0.46168   0.47976   0.04789   0.00000  Uiso   1.00
N321   N     0.30612   0.51374   0.66453   0.00000  Uiso   1.00
N322   N     0.50327   0.30181   0.61851   0.00000  Uiso   1.00
C323   C     0.35566   0.11867   0.72865   0.00000  Uiso   1.00
C324   C     0.38471   0.09437   0.78416   0.00000  Uiso   1.00
C325   C     0.39006   0.11437   0.85743   0.00000  Uiso   1.00
C326   C     0.41810   0.08635   0.89917   0.00000  Uiso   1.00
C327   C     0.45989   0.05570   0.98999   0.00000  Uiso   1.00
C328   C     0.37324   0.14742   0.66368   0.00000  Uiso   1.00
C329   C     0.36894   0.21203   0.63565   0.00000  Uiso   1.00
C330   C     0.38732   0.22866   0.57596   0.00000  Uiso   1.00
C331   C     0.41128   0.28036   0.47970   0.00000  Uiso   1.00
C332   C     0.33664   0.05573   0.69961   0.00000  Uiso   1.00
C333   C     0.30156   0.04324   0.70178   0.00000  Uiso   1.00
C334   C     0.28912   0.98268   0.67233   0.00000  Uiso   1.00
C335   C     0.25626   0.89202   0.63187   0.00000  Uiso   1.00
C336   C     0.39595   0.03333   0.67247   0.00000  Uiso   1.00
C337   C     0.40660   0.04802   0.75364   0.00000  Uiso   1.00
C338   C     0.43464   0.01995   0.79528   0.00000  Uiso   1.00
C339   C     0.44002   0.03991   0.86860   0.00000  Uiso   1.00
C340   C     0.39513   0.10107   0.63316   0.00000  Uiso   1.00
C341   C     0.41352   0.11761   0.57350   0.00000  Uiso   1.00
C342   C     0.40924   0.18222   0.54539   0.00000  Uiso   1.00
C343   C     0.35853   0.00938   0.66910   0.00000  Uiso   1.00
C344   C     0.34614   0.94882   0.63963   0.00000  Uiso   1.00
C345   C     0.31105   0.93625   0.64176   0.00000  Uiso   1.00
H346   H     0.33863   0.15476   0.75240   0.00000  Uiso   1.00
H347   H     0.37312   0.15025   0.88103   0.00000  Uiso   1.00
H348   H     0.35200   0.24788   0.65927   0.00000  Uiso   1.00
H349   H     0.28463   0.07913   0.72540   0.00000  Uiso   1.00
H350   H     0.42102   0.12483   0.01017   0.00000  Uiso   1.00
H351   H     0.37648   0.33069   0.54257   0.00000  Uiso   1.00
H352   H     0.23443   0.97483   0.68201   0.00000  Uiso   1.00
H353   H     0.41299   0.99724   0.64871   0.00000  Uiso   1.00
H354   H     0.45157   0.98408   0.77165   0.00000  Uiso   1.00
H355   H     0.43045   0.08173   0.54989   0.00000  Uiso   1.00
H356   H     0.36308   0.91297   0.61602   0.00000  Uiso   1.00
H357   H     0.48469   0.98997   0.92139   0.00000  Uiso   1.00
H358   H     0.44015   0.19583   0.45379   0.00000  Uiso   1.00
H359   H     0.29810   0.83997   0.59324   0.00000  Uiso   1.00
O360   O     0.47690   0.05160   0.04851   0.00000  Uiso   1.00
O361   O     0.41846   0.32169   0.43504   0.00000  Uiso   1.00
O362   O     0.23209   0.85481   0.61799   0.00000  Uiso   1.00
N363   N     0.43071   0.09488   0.97240   0.00000  Uiso   1.00
N364   N     0.38907   0.28736   0.53524   0.00000  Uiso   1.00
N365   N     0.25626   0.95467   0.66559   0.00000  Uiso   1.00
N366   N     0.46497   0.02231   0.92463   0.00000  Uiso   1.00
N367   N     0.42333   0.21479   0.48747   0.00000  Uiso   1.00
N368   N     0.29052   0.88210   0.61782   0.00000  Uiso   1.00
C369   C     0.23371   0.21125   0.63830   0.00000  Uiso   1.00
C370   C     0.24129   0.20694   0.72194   0.00000  Uiso   1.00
C371   C     0.27368   0.21250   0.76027   0.00000  Uiso   1.00
C372   C     0.27519   0.20713   0.83668   0.00000  Uiso   1.00
C373   C     0.29151   0.20200   0.96097   0.00000  Uiso   1.00
C374   C     0.21506   0.14625   0.61489   0.00000  Uiso   1.00
C375   C     0.22540   0.10079   0.56321   0.00000  Uiso   1.00
C376   C     0.20483   0.04434   0.54950   0.00000  Uiso   1.00
C377   C     0.18041   0.94501   0.50755   0.00000  Uiso   1.00
C378   C     0.20713   0.26725   0.62436   0.00000  Uiso   1.00
C379   C     0.21079   0.32353   0.58062   0.00000  Uiso   1.00
C380   C     0.18354   0.36895   0.57486   0.00000  Uiso   1.00
C381   C     0.14680   0.45750   0.54761   0.00000  Uiso   1.00
C382   C     0.17879   0.19182   0.70584   0.00000  Uiso   1.00
C383   C     0.21146   0.19638   0.75862   0.00000  Uiso   1.00
C384   C     0.21293   0.19101   0.83500   0.00000  Uiso   1.00
C385   C     0.24531   0.19656   0.87344   0.00000  Uiso   1.00
C386   C     0.18524   0.13569   0.65157   0.00000  Uiso   1.00
C387   C     0.16464   0.07930   0.63793   0.00000  Uiso   1.00
C388   C     0.17495   0.03376   0.58625   0.00000  Uiso   1.00
C389   C     0.17730   0.25670   0.66104   0.00000  Uiso   1.00
C390   C     0.15004   0.30204   0.65534   0.00000  Uiso   1.00
C391   C     0.15366   0.35838   0.61161   0.00000  Uiso   1.00
H392   H     0.25693   0.21946   0.60974   0.00000  Uiso   1.00
H393   H     0.29676   0.22066   0.73186   0.00000  Uiso   1.00
H394   H     0.24848   0.10897   0.53483   0.00000  Uiso   1.00
H395   H     0.23387   0.33168   0.55224   0.00000  Uiso   1.00
H396   H     0.32777   0.21731   0.88344   0.00000  Uiso   1.00
H397   H     0.22596   0.98182   0.46795   0.00000  Uiso   1.00
H398   H     0.19517   0.45144   0.50466   0.00000  Uiso   1.00
H399   H     0.15557   0.18361   0.73440   0.00000  Uiso   1.00
H400   H     0.18984   0.18284   0.86337   0.00000  Uiso   1.00
H401   H     0.14156   0.07115   0.66633   0.00000  Uiso   1.00
H402   H     0.12696   0.29386   0.68374   0.00000  Uiso   1.00
H403   H     0.24099   0.18661   0.99017   0.00000  Uiso   1.00
H404   H     0.13919   0.95112   0.57468   0.00000  Uiso   1.00
H405   H     0.10839   0.42074   0.61140   0.00000  Uiso   1.00
O406   O     0.30875   0.20208   0.01939   0.00000  Uiso   1.00
O407   O     0.17519   0.89313   0.47428   0.00000  Uiso   1.00
O408   O     0.13479   0.50927   0.52245   0.00000  Uiso   1.00
N409   N     0.30264   0.21020   0.89086   0.00000  Uiso   1.00
N410   N     0.20746   0.99003   0.50241   0.00000  Uiso   1.00
N411   N     0.17867   0.42908   0.53672   0.00000  Uiso   1.00
N412   N     0.25595   0.19368   0.94829   0.00000  Uiso   1.00
N413   N     0.16077   0.97351   0.55985   0.00000  Uiso   1.00
N414   N     0.13197   0.41256   0.59415   0.00000  Uiso   1.00
C415   C     0.89801   0.82886   0.81148   0.00000  Uiso   1.00
C416   C     0.91482   0.86749   0.87763   0.00000  Uiso   1.00
C417   C     0.91580   0.84730   0.95089   0.00000  Uiso   1.00
C418   C     0.93242   0.88970   0.00327   0.00000  Uiso   1.00
C419   C     0.95622   0.94051   0.10905   0.00000  Uiso   1.00
C420   C     0.87195   0.87687   0.77198   0.00000  Uiso   1.00
C421   C     0.83688   0.86454   0.75641   0.00000  Uiso   1.00
C422   C     0.81740   0.91483   0.71984   0.00000  Uiso   1.00
C423   C     0.77464   0.98017   0.66155   0.00000  Uiso   1.00
C424   C     0.92629   0.81846   0.75931   0.00000  Uiso   1.00
C425   C     0.93690   0.75702   0.73306   0.00000  Uiso   1.00
C426   C     0.96317   0.75814   0.68581   0.00000  Uiso   1.00
C427   C     0.00477   0.73278   0.60786   0.00000  Uiso   1.00
C428   C     0.92579   0.94008   0.77421   0.00000  Uiso   1.00
C429   C     0.92991   0.92790   0.85738   0.00000  Uiso   1.00
C430   C     0.94654   0.97035   0.90966   0.00000  Uiso   1.00
C431   C     0.94754   0.95021   0.98299   0.00000  Uiso   1.00
C432   C     0.88704   0.93727   0.75173   0.00000  Uiso   1.00
C433   C     0.86761   0.98759   0.71517   0.00000  Uiso   1.00
C434   C     0.83252   0.97535   0.69955   0.00000  Uiso   1.00
C435   C     0.94138   0.87886   0.73906   0.00000  Uiso   1.00
C436   C     0.96763   0.88007   0.69183   0.00000  Uiso   1.00
C437   C     0.97828   0.81865   0.66553   0.00000  Uiso   1.00
H438   H     0.88626   0.78184   0.82724   0.00000  Uiso   1.00
H439   H     0.90412   0.80055   0.96654   0.00000  Uiso   1.00
H440   H     0.82521   0.81779   0.77207   0.00000  Uiso   1.00
H441   H     0.92521   0.71029   0.74874   0.00000  Uiso   1.00
H442   H     0.93056   0.84794   0.11205   0.00000  Uiso   1.00
H443   H     0.76418   0.88428   0.70199   0.00000  Uiso   1.00
H444   H     0.97506   0.65760   0.65279   0.00000  Uiso   1.00
H445   H     0.93753   0.98712   0.75845   0.00000  Uiso   1.00
H446   H     0.95821   0.01709   0.89397   0.00000  Uiso   1.00
H447   H     0.87930   0.03433   0.69951   0.00000  Uiso   1.00
H448   H     0.97930   0.92683   0.67618   0.00000  Uiso   1.00
H449   H     0.97446   0.02370   0.05315   0.00000  Uiso   1.00
H450   H     0.80808   0.06004   0.64309   0.00000  Uiso   1.00
H451   H     0.01896   0.83335   0.59389   0.00000  Uiso   1.00
O452   O     0.96518   0.95185   0.17300   0.00000  Uiso   1.00
O453   O     0.74689   0.99952   0.63500   0.00000  Uiso   1.00
O454   O     0.02356   0.70211   0.57046   0.00000  Uiso   1.00
N455   N     0.93806   0.88519   0.07959   0.00000  Uiso   1.00
N456   N     0.78250   0.91917   0.69622   0.00000  Uiso   1.00
N457   N     0.97965   0.70724   0.65020   0.00000  Uiso   1.00
N458   N     0.96168   0.97976   0.04789   0.00000  Uiso   1.00
N459   N     0.80612   0.01374   0.66453   0.00000  Uiso   1.00
N460   N     0.00327   0.80181   0.61851   0.00000  Uiso   1.00
C461   C     0.85566   0.61867   0.72865   0.00000  Uiso   1.00
C462   C     0.88471   0.59437   0.78416   0.00000  Uiso   1.00
C463   C     0.89006   0.61437   0.85743   0.00000  Uiso   1.00
C464   C     0.91810   0.58635   0.89917   0.00000  Uiso   1.00
C465   C     0.95989   0.55570   0.98999   0.00000  Uiso   1.00
C466   C     0.87324   0.64742   0.66368   0.00000  Uiso   1.00
C467   C     0.86894   0.71203   0.63565   0.00000  Uiso   1.00
C468   C     0.88732   0.72866   0.57596   0.00000  Uiso   1.00
C469   C     0.91128   0.78036   0.47970   0.00000  Uiso   1.00
C470   C     0.83664   0.55573   0.69961   0.00000  Uiso   1.00
C471   C     0.80156   0.54324   0.70178   0.00000  Uiso   1.00
C472   C     0.78912   0.48268   0.67233   0.00000  Uiso   1.00
C473   C     0.75626   0.39202   0.63187   0.00000  Uiso   1.00
C474   C     0.89595   0.53333   0.67247   0.00000  Uiso   1.00
C475   C     0.90660   0.54802   0.75364   0.00000  Uiso   1.00
C476   C     0.93464   0.51995   0.79528   0.00000  Uiso   1.00
C477   C     0.94002   0.53991   0.86860   0.00000  Uiso   1.00
C478   C     0.89513   0.60107   0.63316   0.00000  Uiso   1.00
C479   C     0.91352   0.61761   0.57350   0.00000  Uiso   1.00
C480   C     0.90924   0.68222   0.54539   0.00000  Uiso   1.00
C481   C     0.85853   0.50938   0.66910   0.00000  Uiso   1.00
C482   C     0.84614   0.44882   0.63963   0.00000  Uiso   1.00
C483   C     0.81105   0.43625   0.64176   0.00000  Uiso   1.00
H484   H     0.83863   0.65476   0.75240   0.00000  Uiso   1.00
H485   H     0.87312   0.65025   0.88103   0.00000  Uiso   1.00
H486   H     0.85200   0.74788   0.65927   0.00000  Uiso   1.00
H487   H     0.78463   0.57913   0.72540   0.00000  Uiso   1.00
H488   H     0.92102   0.62483   0.01017   0.00000  Uiso   1.00
H489   H     0.87648   0.83069   0.54257   0.00000  Uiso   1.00
H490   H     0.73443   0.47483   0.68201   0.00000  Uiso   1.00
H491   H     0.91299   0.49724   0.64871   0.00000  Uiso   1.00
H492   H     0.95157   0.48408   0.77165   0.00000  Uiso   1.00
H493   H     0.93045   0.58173   0.54989   0.00000  Uiso   1.00
H494   H     0.86308   0.41297   0.61602   0.00000  Uiso   1.00
H495   H     0.98469   0.48997   0.92139   0.00000  Uiso   1.00
H496   H     0.94015   0.69583   0.45379   0.00000  Uiso   1.00
H497   H     0.79810   0.33997   0.59324   0.00000  Uiso   1.00
O498   O     0.97690   0.55160   0.04851   0.00000  Uiso   1.00
O499   O     0.91846   0.82169   0.43504   0.00000  Uiso   1.00
O500   O     0.73209   0.35481   0.61799   0.00000  Uiso   1.00
N501   N     0.93071   0.59488   0.97240   0.00000  Uiso   1.00
N502   N     0.88907   0.78736   0.53524   0.00000  Uiso   1.00
N503   N     0.75626   0.45467   0.66559   0.00000  Uiso   1.00
N504   N     0.96497   0.52231   0.92463   0.00000  Uiso   1.00
N505   N     0.92333   0.71479   0.48747   0.00000  Uiso   1.00
N506   N     0.79052   0.38210   0.61782   0.00000  Uiso   1.00
C507   C     0.73371   0.71125   0.63830   0.00000  Uiso   1.00
C508   C     0.74129   0.70694   0.72194   0.00000  Uiso   1.00
C509   C     0.77368   0.71250   0.76027   0.00000  Uiso   1.00
C510   C     0.77519   0.70713   0.83668   0.00000  Uiso   1.00
C511   C     0.79151   0.70200   0.96097   0.00000  Uiso   1.00
C512   C     0.71506   0.64625   0.61489   0.00000  Uiso   1.00
C513   C     0.72540   0.60079   0.56321   0.00000  Uiso   1.00
C514   C     0.70483   0.54434   0.54950   0.00000  Uiso   1.00
C515   C     0.68041   0.44501   0.50755   0.00000  Uiso   1.00
C516   C     0.70713   0.76725   0.62436   0.00000  Uiso   1.00
C517   C     0.71079   0.82353   0.58062   0.00000  Uiso   1.00
C518   C     0.68354   0.86895   0.57486   0.00000  Uiso   1.00
C519   C     0.64680   0.95750   0.54761   0.00000  Uiso   1.00
C520   C     0.67879   0.69182   0.70584   0.00000  Uiso   1.00
C521   C     0.71146   0.69638   0.75862   0.00000  Uiso   1.00
C522   C     0.71293   0.69101   0.83500   0.00000  Uiso   1.00
C523   C     0.74531   0.69656   0.87344   0.00000  Uiso   1.00
C524   C     0.68524   0.63569   0.65157   0.00000  Uiso   1.00
C525   C     0.66464   0.57930   0.63793   0.00000  Uiso   1.00
C526   C     0.67495   0.53376   0.58625   0.00000  Uiso   1.00
C527   C     0.67730   0.75670   0.66104   0.00000  Uiso   1.00
C528   C     0.65004   0.80204   0.65534   0.00000  Uiso   1.00
C529   C     0.65366   0.85838   0.61161   0.00000  Uiso   1.00
H530   H     0.75693   0.71946   0.60974   0.00000  Uiso   1.00
H531   H     0.79676   0.72066   0.73186   0.00000  Uiso   1.00
H532   H     0.74848   0.60897   0.53483   0.00000  Uiso   1.00
H533   H     0.73387   0.83168   0.55224   0.00000  Uiso   1.00
H534   H     0.82777   0.71731   0.88344   0.00000  Uiso   1.00
H535   H     0.72596   0.48182   0.46795   0.00000  Uiso   1.00
H536   H     0.69517   0.95144   0.50466   0.00000  Uiso   1.00
H537   H     0.65557   0.68361   0.73440   0.00000  Uiso   1.00
H538   H     0.68984   0.68284   0.86337   0.00000  Uiso   1.00
H539   H     0.64156   0.57115   0.66633   0.00000  Uiso   1.00
H540   H     0.62696   0.79386   0.68374   0.00000  Uiso   1.00
H541   H     0.74099   0.68661   0.99017   0.00000  Uiso   1.00
H542   H     0.63919   0.45112   0.57468   0.00000  Uiso   1.00
H543   H     0.60839   0.92074   0.61140   0.00000  Uiso   1.00
O544   O     0.80875   0.70208   0.01939   0.00000  Uiso   1.00
O545   O     0.67519   0.39313   0.47428   0.00000  Uiso   1.00
O546   O     0.63479   0.00927   0.52245   0.00000  Uiso   1.00
N547   N     0.80264   0.71020   0.89086   0.00000  Uiso   1.00
N548   N     0.70746   0.49003   0.50241   0.00000  Uiso   1.00
N549   N     0.67867   0.92908   0.53672   0.00000  Uiso   1.00
N550   N     0.75595   0.69368   0.94829   0.00000  Uiso   1.00
N551   N     0.66077   0.47351   0.55985   0.00000  Uiso   1.00
N552   N     0.63197   0.91256   0.59415   0.00000  Uiso   1.00
C553   C     0.39801   0.67114   0.31148   0.00000  Uiso   1.00
C554   C     0.41482   0.63251   0.37763   0.00000  Uiso   1.00
C555   C     0.41580   0.65270   0.45089   0.00000  Uiso   1.00
C556   C     0.43242   0.61030   0.50327   0.00000  Uiso   1.00
C557   C     0.45622   0.55949   0.60905   0.00000  Uiso   1.00
C558   C     0.37195   0.62313   0.27198   0.00000  Uiso   1.00
C559   C     0.33688   0.63546   0.25641   0.00000  Uiso   1.00
C560   C     0.31740   0.58517   0.21984   0.00000  Uiso   1.00
C561   C     0.27464   0.51983   0.16155   0.00000  Uiso   1.00
C562   C     0.42629   0.68154   0.25931   0.00000  Uiso   1.00
C563   C     0.43690   0.74298   0.23306   0.00000  Uiso   1.00
C564   C     0.46317   0.74186   0.18581   0.00000  Uiso   1.00
C565   C     0.50477   0.76722   0.10786   0.00000  Uiso   1.00
C566   C     0.42579   0.55992   0.27421   0.00000  Uiso   1.00
C567   C     0.42991   0.57210   0.35738   0.00000  Uiso   1.00
C568   C     0.44654   0.52965   0.40966   0.00000  Uiso   1.00
C569   C     0.44754   0.54979   0.48299   0.00000  Uiso   1.00
C570   C     0.38704   0.56273   0.25173   0.00000  Uiso   1.00
C571   C     0.36761   0.51241   0.21517   0.00000  Uiso   1.00
C572   C     0.33252   0.52465   0.19955   0.00000  Uiso   1.00
C573   C     0.44138   0.62114   0.23906   0.00000  Uiso   1.00
C574   C     0.46763   0.61993   0.19183   0.00000  Uiso   1.00
C575   C     0.47828   0.68135   0.16553   0.00000  Uiso   1.00
H576   H     0.38626   0.71816   0.32724   0.00000  Uiso   1.00
H577   H     0.40412   0.69945   0.46654   0.00000  Uiso   1.00
H578   H     0.32521   0.68221   0.27207   0.00000  Uiso   1.00
H579   H     0.42521   0.78971   0.24874   0.00000  Uiso   1.00
H580   H     0.43056   0.65206   0.61205   0.00000  Uiso   1.00
H581   H     0.26418   0.61572   0.20199   0.00000  Uiso   1.00
H582   H     0.47506   0.84240   0.15279   0.00000  Uiso   1.00
H583   H     0.43753   0.51288   0.25845   0.00000  Uiso   1.00
H584   H     0.45821   0.48291   0.39397   0.00000  Uiso   1.00
H585   H     0.37930   0.46567   0.19951   0.00000  Uiso   1.00
H586   H     0.47930   0.57317   0.17618   0.00000  Uiso   1.00
H587   H     0.47446   0.47630   0.55315   0.00000  Uiso   1.00
H588   H     0.30808   0.43996   0.14309   0.00000  Uiso   1.00
H589   H     0.51896   0.66665   0.09389   0.00000  Uiso   1.00
O590   O     0.46518   0.54815   0.67300   0.00000  Uiso   1.00
O591   O     0.24689   0.50048   0.13500   0.00000  Uiso   1.00
O592   O     0.52356   0.79789   0.07046   0.00000  Uiso   1.00
N593   N     0.43806   0.61481   0.57959   0.00000  Uiso   1.00
N594   N     0.28250   0.58083   0.19622   0.00000  Uiso   1.00
N595   N     0.47965   0.79276   0.15020   0.00000  Uiso   1.00
N596   N     0.46168   0.52024   0.54789   0.00000  Uiso   1.00
N597   N     0.30612   0.48626   0.16453   0.00000  Uiso   1.00
N598   N     0.50327   0.69819   0.11851   0.00000  Uiso   1.00
C599   C     0.35566   0.88133   0.22865   0.00000  Uiso   1.00
C600   C     0.38471   0.90563   0.28416   0.00000  Uiso   1.00
C601   C     0.39006   0.88563   0.35743   0.00000  Uiso   1.00
C602   C     0.41810   0.91365   0.39917   0.00000  Uiso   1.00
C603   C     0.45989   0.94430   0.48999   0.00000  Uiso   1.00
C604   C     0.37324   0.85258   0.16368   0.00000  Uiso   1.00
C605   C     0.36894   0.78797   0.13565   0.00000  Uiso   1.00
C606   C     0.38732   0.77134   0.07596   0.00000  Uiso   1.00
C607   C     0.41128   0.71964   0.97970   0.00000  Uiso   1.00
C608   C     0.33664   0.94427   0.19961   0.00000  Uiso   1.00
C609   C     0.30156   0.95676   0.20178   0.00000  Uiso   1.00
C610   C     0.28912   0.01732   0.17233   0.00000  Uiso   1.00
C611   C     0.25626   0.10798   0.13187   0.00000  Uiso   1.00
C612   C     0.39595   0.96667   0.17247   0.00000  Uiso   1.00
C613   C     0.40660   0.95198   0.25364   0.00000  Uiso   1.00
C614   C     0.43464   0.98005   0.29528   0.00000  Uiso   1.00
C615   C     0.44002   0.96009   0.36860   0.00000  Uiso   1.00
C616   C     0.39513   0.89893   0.13316   0.00000  Uiso   1.00
C617   C     0.41352   0.88239   0.07350   0.00000  Uiso   1.00
C618   C     0.40924   0.81778   0.04539   0.00000  Uiso   1.00
C619   C     0.35853   0.99062   0.16910   0.00000  Uiso   1.00
C620   C     0.34614   0.05118   0.13963   0.00000  Uiso   1.00
C621   C     0.31105   0.06375   0.14176   0.00000  Uiso   1.00
H622   H     0.33863   0.84524   0.25240   0.00000  Uiso   1.00
H623   H     0.37312   0.84975   0.38103   0.00000  Uiso   1.00
H624   H     0.35200   0.75212   0.15927   0.00000  Uiso   1.00
H625   H     0.28463   0.92087   0.22540   0.00000  Uiso   1.00
H626   H     0.42102   0.87517   0.51017   0.00000  Uiso   1.00
H627   H     0.37648   0.66931   0.04257   0.00000  Uiso   1.00
H628   H     0.23443   0.02517   0.18201   0.00000  Uiso   1.00
H629   H     0.41299   0.00276   0.14871   0.00000  Uiso   1.00
H630   H     0.45157   0.01592   0.27165   0.00000  Uiso   1.00
H631   H     0.43045   0.91827   0.04989   0.00000  Uiso   1.00
H632   H     0.36308   0.08703   0.11602   0.00000  Uiso   1.00
H633   H     0.48469   0.01003   0.42139   0.00000  Uiso   1.00
H634   H     0.44015   0.80417   0.95379   0.00000  Uiso   1.00
H635   H     0.29810   0.16003   0.09324   0.00000  Uiso   1.00
O636   O     0.47690   0.94840   0.54851   0.00000  Uiso   1.00
O637   O     0.41846   0.67831   0.93504   0.00000  Uiso   1.00
O638   O     0.23209   0.14519   0.11799   0.00000  Uiso   1.00
N639   N     0.43071   0.90512   0.47240   0.00000  Uiso   1.00
N640   N     0.38907   0.71264   0.03524   0.00000  Uiso   1.00
N641   N     0.25626   0.04533   0.16559   0.00000  Uiso   1.00
N642   N     0.46497   0.97769   0.42463   0.00000  Uiso   1.00
N643   N     0.42333   0.78521   0.98747   0.00000  Uiso   1.00
N644   N     0.29052   0.11790   0.11782   0.00000  Uiso   1.00
C645   C     0.23371   0.78875   0.13830   0.00000  Uiso   1.00
C646   C     0.24129   0.79306   0.22194   0.00000  Uiso   1.00
C647   C     0.27368   0.78750   0.26027   0.00000  Uiso   1.00
C648   C     0.27519   0.79287   0.33668   0.00000  Uiso   1.00
C649   C     0.29151   0.79800   0.46097   0.00000  Uiso   1.00
C650   C     0.21506   0.85375   0.11489   0.00000  Uiso   1.00
C651   C     0.22540   0.89921   0.06321   0.00000  Uiso   1.00
C652   C     0.20483   0.95566   0.04950   0.00000  Uiso   1.00
C653   C     0.18041   0.05499   0.00755   0.00000  Uiso   1.00
C654   C     0.20713   0.73275   0.12436   0.00000  Uiso   1.00
C655   C     0.21079   0.67647   0.08062   0.00000  Uiso   1.00
C656   C     0.18354   0.63105   0.07486   0.00000  Uiso   1.00
C657   C     0.14680   0.54250   0.04761   0.00000  Uiso   1.00
C658   C     0.17879   0.80818   0.20584   0.00000  Uiso   1.00
C659   C     0.21146   0.80362   0.25862   0.00000  Uiso   1.00
C660   C     0.21293   0.80899   0.33500   0.00000  Uiso   1.00
C661   C     0.24531   0.80344   0.37344   0.00000  Uiso   1.00
C662   C     0.18524   0.86431   0.15157   0.00000  Uiso   1.00
C663   C     0.16464   0.92070   0.13793   0.00000  Uiso   1.00
C664   C     0.17495   0.96624   0.08625   0.00000  Uiso   1.00
C665   C     0.17730   0.74330   0.16104   0.00000  Uiso   1.00
C666   C     0.15004   0.69796   0.15534   0.00000  Uiso   1.00
C667   C     0.15366   0.64162   0.11161   0.00000  Uiso   1.00
H668   H     0.25693   0.78054   0.10974   0.00000  Uiso   1.00
H669   H     0.29676   0.77934   0.23186   0.00000  Uiso   1.00
H670   H     0.24848   0.89103   0.03483   0.00000  Uiso   1.00
H671   H     0.23387   0.66832   0.05224   0.00000  Uiso   1.00
H672   H     0.32777   0.78269   0.38344   0.00000  Uiso   1.00
H673   H     0.22596   0.01818   0.96795   0.00000  Uiso   1.00
H674   H     0.19517   0.54856   0.00466   0.00000  Uiso   1.00
H675   H     0.15557   0.81639   0.23440   0.00000  Uiso   1.00
H676   H     0.18984   0.81716   0.36337   0.00000  Uiso   1.00
H677   H     0.14156   0.92885   0.16633   0.00000  Uiso   1.00
H678   H     0.12696   0.70614   0.18374   0.00000  Uiso   1.00
H679   H     0.24099   0.81339   0.49017   0.00000  Uiso   1.00
H680   H     0.13919   0.04888   0.07468   0.00000  Uiso   1.00
H681   H     0.10839   0.57926   0.11140   0.00000  Uiso   1.00
O682   O     0.30875   0.79792   0.51939   0.00000  Uiso   1.00
O683   O     0.17519   0.10687   0.97428   0.00000  Uiso   1.00
O684   O     0.13479   0.49073   0.02245   0.00000  Uiso   1.00
N685   N     0.30264   0.78980   0.39086   0.00000  Uiso   1.00
N686   N     0.20746   0.00997   0.00241   0.00000  Uiso   1.00
N687   N     0.17867   0.57092   0.03672   0.00000  Uiso   1.00
N688   N     0.25595   0.80632   0.44829   0.00000  Uiso   1.00
N689   N     0.16077   0.02649   0.05985   0.00000  Uiso   1.00
N690   N     0.13197   0.58744   0.09415   0.00000  Uiso   1.00
C691   C     0.89801   0.17114   0.31148   0.00000  Uiso   1.00
C692   C     0.91482   0.13251   0.37763   0.00000  Uiso   1.00
C693   C     0.91580   0.15270   0.45089   0.00000  Uiso   1.00
C694   C     0.93242   0.11030   0.50327   0.00000  Uiso   1.00
C695   C     0.95622   0.05949   0.60905   0.00000  Uiso   1.00
C696   C     0.87195   0.12313   0.27198   0.00000  Uiso   1.00
C697   C     0.83688   0.13546   0.25641   0.00000  Uiso   1.00
C698   C     0.81740   0.08517   0.21984   0.00000  Uiso   1.00
C699   C     0.77464   0.01983   0.16155   0.00000  Uiso   1.00
C700   C     0.92629   0.18154   0.25931   0.00000  Uiso   1.00
C701   C     0.93690   0.24298   0.23306   0.00000  Uiso   1.00
C702   C     0.96317   0.24186   0.18581   0.00000  Uiso   1.00
C703   C     0.00477   0.26722   0.10786   0.00000  Uiso   1.00
C704   C     0.92579   0.05992   0.27421   0.00000  Uiso   1.00
C705   C     0.92991   0.07210   0.35738   0.00000  Uiso   1.00
C706   C     0.94654   0.02965   0.40966   0.00000  Uiso   1.00
C707   C     0.94754   0.04979   0.48299   0.00000  Uiso   1.00
C708   C     0.88704   0.06273   0.25173   0.00000  Uiso   1.00
C709   C     0.86761   0.01241   0.21517   0.00000  Uiso   1.00
C710   C     0.83252   0.02465   0.19955   0.00000  Uiso   1.00
C711   C     0.94138   0.12114   0.23906   0.00000  Uiso   1.00
C712   C     0.96763   0.11993   0.19183   0.00000  Uiso   1.00
C713   C     0.97828   0.18135   0.16553   0.00000  Uiso   1.00
H714   H     0.88626   0.21816   0.32724   0.00000  Uiso   1.00
H715   H     0.90412   0.19945   0.46654   0.00000  Uiso   1.00
H716   H     0.82521   0.18221   0.27207   0.00000  Uiso   1.00
H717   H     0.92521   0.28971   0.24874   0.00000  Uiso   1.00
H718   H     0.93056   0.15206   0.61205   0.00000  Uiso   1.00
H719   H     0.76418   0.11572   0.20199   0.00000  Uiso   1.00
H720   H     0.97506   0.34240   0.15279   0.00000  Uiso   1.00
H721   H     0.93753   0.01288   0.25845   0.00000  Uiso   1.00
H722   H     0.95821   0.98291   0.39397   0.00000  Uiso   1.00
H723   H     0.87930   0.96567   0.19951   0.00000  Uiso   1.00
H724   H     0.97930   0.07317   0.17618   0.00000  Uiso   1.00
H725   H     0.97446   0.97630   0.55315   0.00000  Uiso   1.00
H726   H     0.80808   0.93996   0.14309   0.00000  Uiso   1.00
H727   H     0.01896   0.16665   0.09389   0.00000  Uiso   1.00
O728   O     0.96518   0.04815   0.67300   0.00000  Uiso   1.00
O729   O     0.74689   0.00048   0.13500   0.00000  Uiso   1.00
O730   O     0.02356   0.29789   0.07046   0.00000  Uiso   1.00
N731   N     0.93806   0.11481   0.57959   0.00000  Uiso   1.00
N732   N     0.78250   0.08083   0.19622   0.00000  Uiso   1.00
N733   N     0.97965   0.29276   0.15020   0.00000  Uiso   1.00
N734   N     0.96168   0.02024   0.54789   0.00000  Uiso   1.00
N735   N     0.80612   0.98626   0.16453   0.00000  Uiso   1.00
N736   N     0.00327   0.19819   0.11851   0.00000  Uiso   1.00
C737   C     0.85566   0.38133   0.22865   0.00000  Uiso   1.00
C738   C     0.88471   0.40563   0.28416   0.00000  Uiso   1.00
C739   C     0.89006   0.38563   0.35743   0.00000  Uiso   1.00
C740   C     0.91810   0.41365   0.39917   0.00000  Uiso   1.00
C741   C     0.95989   0.44430   0.48999   0.00000  Uiso   1.00
C742   C     0.87324   0.35258   0.16368   0.00000  Uiso   1.00
C743   C     0.86894   0.28797   0.13565   0.00000  Uiso   1.00
C744   C     0.88732   0.27134   0.07596   0.00000  Uiso   1.00
C745   C     0.91128   0.21964   0.97970   0.00000  Uiso   1.00
C746   C     0.83664   0.44427   0.19961   0.00000  Uiso   1.00
C747   C     0.80156   0.45676   0.20178   0.00000  Uiso   1.00
C748   C     0.78912   0.51732   0.17233   0.00000  Uiso   1.00
C749   C     0.75626   0.60798   0.13187   0.00000  Uiso   1.00
C750   C     0.89595   0.46667   0.17247   0.00000  Uiso   1.00
C751   C     0.90660   0.45198   0.25364   0.00000  Uiso   1.00
C752   C     0.93464   0.48005   0.29528   0.00000  Uiso   1.00
C753   C     0.94002   0.46009   0.36860   0.00000  Uiso   1.00
C754   C     0.89513   0.39893   0.13316   0.00000  Uiso   1.00
C755   C     0.91352   0.38239   0.07350   0.00000  Uiso   1.00
C756   C     0.90924   0.31778   0.04539   0.00000  Uiso   1.00
C757   C     0.85853   0.49062   0.16910   0.00000  Uiso   1.00
C758   C     0.84614   0.55118   0.13963   0.00000  Uiso   1.00
C759   C     0.81105   0.56375   0.14176   0.00000  Uiso   1.00
H760   H     0.83863   0.34524   0.25240   0.00000  Uiso   1.00
H761   H     0.87312   0.34975   0.38103   0.00000  Uiso   1.00
H762   H     0.85200   0.25212   0.15927   0.00000  Uiso   1.00
H763   H     0.78463   0.42087   0.22540   0.00000  Uiso   1.00
H764   H     0.92102   0.37517   0.51017   0.00000  Uiso   1.00
H765   H     0.87648   0.16931   0.04257   0.00000  Uiso   1.00
H766   H     0.73443   0.52517   0.18201   0.00000  Uiso   1.00
H767   H     0.91299   0.50276   0.14871   0.00000  Uiso   1.00
H768   H     0.95157   0.51592   0.27165   0.00000  Uiso   1.00
H769   H     0.93045   0.41827   0.04989   0.00000  Uiso   1.00
H770   H     0.86308   0.58703   0.11602   0.00000  Uiso   1.00
H771   H     0.98469   0.51003   0.42139   0.00000  Uiso   1.00
H772   H     0.94015   0.30417   0.95379   0.00000  Uiso   1.00
H773   H     0.79810   0.66003   0.09324   0.00000  Uiso   1.00
O774   O     0.97690   0.44840   0.54851   0.00000  Uiso   1.00
O775   O     0.91846   0.17831   0.93504   0.00000  Uiso   1.00
O776   O     0.73209   0.64519   0.11799   0.00000  Uiso   1.00
N777   N     0.93071   0.40512   0.47240   0.00000  Uiso   1.00
N778   N     0.88907   0.21264   0.03524   0.00000  Uiso   1.00
N779   N     0.75626   0.54533   0.16559   0.00000  Uiso   1.00
N780   N     0.96497   0.47769   0.42463   0.00000  Uiso   1.00
N781   N     0.92333   0.28521   0.98747   0.00000  Uiso   1.00
N782   N     0.79052   0.61790   0.11782   0.00000  Uiso   1.00
C783   C     0.73371   0.28875   0.13830   0.00000  Uiso   1.00
C784   C     0.74129   0.29306   0.22194   0.00000  Uiso   1.00
C785   C     0.77368   0.28750   0.26027   0.00000  Uiso   1.00
C786   C     0.77519   0.29287   0.33668   0.00000  Uiso   1.00
C787   C     0.79151   0.29800   0.46097   0.00000  Uiso   1.00
C788   C     0.71506   0.35375   0.11489   0.00000  Uiso   1.00
C789   C     0.72540   0.39921   0.06321   0.00000  Uiso   1.00
C790   C     0.70483   0.45566   0.04950   0.00000  Uiso   1.00
C791   C     0.68041   0.55499   0.00755   0.00000  Uiso   1.00
C792   C     0.70713   0.23275   0.12436   0.00000  Uiso   1.00
C793   C     0.71079   0.17647   0.08062   0.00000  Uiso   1.00
C794   C     0.68354   0.13105   0.07486   0.00000  Uiso   1.00
C795   C     0.64680   0.04250   0.04761   0.00000  Uiso   1.00
C796   C     0.67879   0.30818   0.20584   0.00000  Uiso   1.00
C797   C     0.71146   0.30362   0.25862   0.00000  Uiso   1.00
C798   C     0.71293   0.30899   0.33500   0.00000  Uiso   1.00
C799   C     0.74531   0.30344   0.37344   0.00000  Uiso   1.00
C800   C     0.68524   0.36431   0.15157   0.00000  Uiso   1.00
C801   C     0.66464   0.42070   0.13793   0.00000  Uiso   1.00
C802   C     0.67495   0.46624   0.08625   0.00000  Uiso   1.00
C803   C     0.67730   0.24330   0.16104   0.00000  Uiso   1.00
C804   C     0.65004   0.19796   0.15534   0.00000  Uiso   1.00
C805   C     0.65366   0.14162   0.11161   0.00000  Uiso   1.00
H806   H     0.75693   0.28054   0.10974   0.00000  Uiso   1.00
H807   H     0.79676   0.27934   0.23186   0.00000  Uiso   1.00
H808   H     0.74848   0.39103   0.03483   0.00000  Uiso   1.00
H809   H     0.73387   0.16832   0.05224   0.00000  Uiso   1.00
H810   H     0.82777   0.28269   0.38344   0.00000  Uiso   1.00
H811   H     0.72596   0.51818   0.96795   0.00000  Uiso   1.00
H812   H     0.69517   0.04856   0.00466   0.00000  Uiso   1.00
H813   H     0.65557   0.31639   0.23440   0.00000  Uiso   1.00
H814   H     0.68984   0.31716   0.36337   0.00000  Uiso   1.00
H815   H     0.64156   0.42885   0.16633   0.00000  Uiso   1.00
H816   H     0.62696   0.20614   0.18374   0.00000  Uiso   1.00
H817   H     0.74099   0.31339   0.49017   0.00000  Uiso   1.00
H818   H     0.63919   0.54888   0.07468   0.00000  Uiso   1.00
H819   H     0.60839   0.07926   0.11140   0.00000  Uiso   1.00
O820   O     0.80875   0.29792   0.51939   0.00000  Uiso   1.00
O821   O     0.67519   0.60687   0.97428   0.00000  Uiso   1.00
O822   O     0.63479   0.99073   0.02245   0.00000  Uiso   1.00
N823   N     0.80264   0.28980   0.39086   0.00000  Uiso   1.00
N824   N     0.70746   0.50997   0.00241   0.00000  Uiso   1.00
N825   N     0.67867   0.07092   0.03672   0.00000  Uiso   1.00
N826   N     0.75595   0.30632   0.44829   0.00000  Uiso   1.00
N827   N     0.66077   0.52649   0.05985   0.00000  Uiso   1.00
N828   N     0.63197   0.08744   0.09415   0.00000  Uiso   1.00
C829   C     0.60199   0.67114   0.18852   0.00000  Uiso   1.00
C830   C     0.58518   0.63251   0.12237   0.00000  Uiso   1.00
C831   C     0.58420   0.65270   0.04911   0.00000  Uiso   1.00
C832   C     0.56758   0.61030   0.99673   0.00000  Uiso   1.00
C833   C     0.54378   0.55949   0.89095   0.00000  Uiso   1.00
C834   C     0.62805   0.62313   0.22802   0.00000  Uiso   1.00
C835   C     0.66312   0.63546   0.24359   0.00000  Uiso   1.00
C836   C     0.68260   0.58517   0.28016   0.00000  Uiso   1.00
C837   C     0.72536   0.51983   0.33845   0.00000  Uiso   1.00
C838   C     0.57371   0.68154   0.24069   0.00000  Uiso   1.00
C839   C     0.56310   0.74298   0.26694   0.00000  Uiso   1.00
C840   C     0.53683   0.74186   0.31419   0.00000  Uiso   1.00
C841   C     0.49523   0.76722   0.39214   0.00000  Uiso   1.00
C842   C     0.57421   0.55992   0.22579   0.00000  Uiso   1.00
C843   C     0.57009   0.57210   0.14262   0.00000  Uiso   1.00
C844   C     0.55346   0.52965   0.09034   0.00000  Uiso   1.00
C845   C     0.55246   0.54979   0.01701   0.00000  Uiso   1.00
C846   C     0.61296   0.56273   0.24827   0.00000  Uiso   1.00
C847   C     0.63239   0.51241   0.28483   0.00000  Uiso   1.00
C848   C     0.66748   0.52465   0.30045   0.00000  Uiso   1.00
C849   C     0.55862   0.62114   0.26094   0.00000  Uiso   1.00
C850   C     0.53237   0.61993   0.30817   0.00000  Uiso   1.00
C851   C     0.52172   0.68135   0.33447   0.00000  Uiso   1.00
H852   H     0.61374   0.71816   0.17276   0.00000  Uiso   1.00
H853   H     0.59588   0.69945   0.03346   0.00000  Uiso   1.00
H854   H     0.67479   0.68221   0.22793   0.00000  Uiso   1.00
H855   H     0.57479   0.78971   0.25126   0.00000  Uiso   1.00
H856   H     0.56944   0.65206   0.88795   0.00000  Uiso   1.00
H857   H     0.73582   0.61572   0.29801   0.00000  Uiso   1.00
H858   H     0.52494   0.84240   0.34721   0.00000  Uiso   1.00
H859   H     0.56247   0.51288   0.24155   0.00000  Uiso   1.00
H860   H     0.54179   0.48291   0.10603   0.00000  Uiso   1.00
H861   H     0.62070   0.46567   0.30049   0.00000  Uiso   1.00
H862   H     0.52070   0.57317   0.32382   0.00000  Uiso   1.00
H863   H     0.52554   0.47630   0.94685   0.00000  Uiso   1.00
H864   H     0.69192   0.43996   0.35691   0.00000  Uiso   1.00
H865   H     0.48104   0.66665   0.40611   0.00000  Uiso   1.00
O866   O     0.53482   0.54815   0.82700   0.00000  Uiso   1.00
O867   O     0.75311   0.50048   0.36500   0.00000  Uiso   1.00
O868   O     0.47644   0.79789   0.42954   0.00000  Uiso   1.00
N869   N     0.56194   0.61481   0.92041   0.00000  Uiso   1.00
N870   N     0.71750   0.58083   0.30378   0.00000  Uiso   1.00
N871   N     0.52035   0.79276   0.34980   0.00000  Uiso   1.00
N872   N     0.53832   0.52024   0.95211   0.00000  Uiso   1.00
N873   N     0.69388   0.48626   0.33547   0.00000  Uiso   1.00
N874   N     0.49673   0.69819   0.38149   0.00000  Uiso   1.00
C875   C     0.64434   0.88133   0.27135   0.00000  Uiso   1.00
C876   C     0.61529   0.90563   0.21584   0.00000  Uiso   1.00
C877   C     0.60994   0.88563   0.14257   0.00000  Uiso   1.00
C878   C     0.58190   0.91365   0.10083   0.00000  Uiso   1.00
C879   C     0.54011   0.94430   0.01001   0.00000  Uiso   1.00
C880   C     0.62676   0.85258   0.33632   0.00000  Uiso   1.00
C881   C     0.63106   0.78797   0.36435   0.00000  Uiso   1.00
C882   C     0.61268   0.77134   0.42404   0.00000  Uiso   1.00
C883   C     0.58872   0.71964   0.52030   0.00000  Uiso   1.00
C884   C     0.66336   0.94427   0.30039   0.00000  Uiso   1.00
C885   C     0.69844   0.95676   0.29822   0.00000  Uiso   1.00
C886   C     0.71088   0.01732   0.32767   0.00000  Uiso   1.00
C887   C     0.74374   0.10798   0.36813   0.00000  Uiso   1.00
C888   C     0.60405   0.96667   0.32753   0.00000  Uiso   1.00
C889   C     0.59340   0.95198   0.24636   0.00000  Uiso   1.00
C890   C     0.56536   0.98005   0.20472   0.00000  Uiso   1.00
C891   C     0.55998   0.96009   0.13140   0.00000  Uiso   1.00
C892   C     0.60487   0.89893   0.36684   0.00000  Uiso   1.00
C893   C     0.58648   0.88239   0.42650   0.00000  Uiso   1.00
C894   C     0.59076   0.81778   0.45461   0.00000  Uiso   1.00
C895   C     0.64147   0.99062   0.33090   0.00000  Uiso   1.00
C896   C     0.65386   0.05118   0.36037   0.00000  Uiso   1.00
C897   C     0.68895   0.06375   0.35824   0.00000  Uiso   1.00
H898   H     0.66137   0.84524   0.24760   0.00000  Uiso   1.00
H899   H     0.62688   0.84975   0.11897   0.00000  Uiso   1.00
H900   H     0.64800   0.75212   0.34073   0.00000  Uiso   1.00
H901   H     0.71537   0.92087   0.27460   0.00000  Uiso   1.00
H902   H     0.57898   0.87517   0.98983   0.00000  Uiso   1.00
H903   H     0.62352   0.66931   0.45743   0.00000  Uiso   1.00
H904   H     0.76557   0.02517   0.31799   0.00000  Uiso   1.00
H905   H     0.58701   0.00276   0.35129   0.00000  Uiso   1.00
H906   H     0.54843   0.01592   0.22835   0.00000  Uiso   1.00
H907   H     0.56955   0.91827   0.45011   0.00000  Uiso   1.00
H908   H     0.63692   0.08703   0.38398   0.00000  Uiso   1.00
H909   H     0.51531   0.01003   0.07861   0.00000  Uiso   1.00
H910   H     0.55985   0.80417   0.54621   0.00000  Uiso   1.00
H911   H     0.70190   0.16003   0.40676   0.00000  Uiso   1.00
O912   O     0.52310   0.94840   0.95149   0.00000  Uiso   1.00
O913   O     0.58154   0.67831   0.56496   0.00000  Uiso   1.00
O914   O     0.76791   0.14519   0.38201   0.00000  Uiso   1.00
N915   N     0.56929   0.90512   0.02760   0.00000  Uiso   1.00
N916   N     0.61093   0.71264   0.46476   0.00000  Uiso   1.00
N917   N     0.74374   0.04533   0.33441   0.00000  Uiso   1.00
N918   N     0.53503   0.97769   0.07537   0.00000  Uiso   1.00
N919   N     0.57667   0.78521   0.51253   0.00000  Uiso   1.00
N920   N     0.70948   0.11790   0.38218   0.00000  Uiso   1.00
C921   C     0.76629   0.78875   0.36170   0.00000  Uiso   1.00
C922   C     0.75871   0.79306   0.27806   0.00000  Uiso   1.00
C923   C     0.72632   0.78750   0.23973   0.00000  Uiso   1.00
C924   C     0.72481   0.79287   0.16332   0.00000  Uiso   1.00
C925   C     0.70849   0.79800   0.03903   0.00000  Uiso   1.00
C926   C     0.78494   0.85375   0.38511   0.00000  Uiso   1.00
C927   C     0.77460   0.89921   0.43679   0.00000  Uiso   1.00
C928   C     0.79517   0.95566   0.45050   0.00000  Uiso   1.00
C929   C     0.81959   0.05499   0.49245   0.00000  Uiso   1.00
C930   C     0.79287   0.73275   0.37564   0.00000  Uiso   1.00
C931   C     0.78921   0.67647   0.41938   0.00000  Uiso   1.00
C932   C     0.81646   0.63105   0.42514   0.00000  Uiso   1.00
C933   C     0.85320   0.54250   0.45239   0.00000  Uiso   1.00
C934   C     0.82121   0.80818   0.29416   0.00000  Uiso   1.00
C935   C     0.78854   0.80362   0.24138   0.00000  Uiso   1.00
C936   C     0.78707   0.80899   0.16500   0.00000  Uiso   1.00
C937   C     0.75469   0.80344   0.12656   0.00000  Uiso   1.00
C938   C     0.81476   0.86431   0.34843   0.00000  Uiso   1.00
C939   C     0.83536   0.92070   0.36207   0.00000  Uiso   1.00
C940   C     0.82505   0.96624   0.41375   0.00000  Uiso   1.00
C941   C     0.82270   0.74330   0.33896   0.00000  Uiso   1.00
C942   C     0.84996   0.69796   0.34466   0.00000  Uiso   1.00
C943   C     0.84634   0.64162   0.38839   0.00000  Uiso   1.00
H944   H     0.74307   0.78054   0.39026   0.00000  Uiso   1.00
H945   H     0.70324   0.77934   0.26814   0.00000  Uiso   1.00
H946   H     0.75152   0.89103   0.46517   0.00000  Uiso   1.00
H947   H     0.76613   0.66832   0.44776   0.00000  Uiso   1.00
H948   H     0.67223   0.78269   0.11656   0.00000  Uiso   1.00
H949   H     0.77404   0.01818   0.53205   0.00000  Uiso   1.00
H950   H     0.80483   0.54856   0.49534   0.00000  Uiso   1.00
H951   H     0.84443   0.81639   0.26560   0.00000  Uiso   1.00
H952   H     0.81016   0.81716   0.13663   0.00000  Uiso   1.00
H953   H     0.85844   0.92885   0.33367   0.00000  Uiso   1.00
H954   H     0.87304   0.70614   0.31626   0.00000  Uiso   1.00
H955   H     0.75901   0.81339   0.00983   0.00000  Uiso   1.00
H956   H     0.86081   0.04888   0.42532   0.00000  Uiso   1.00
H957   H     0.89161   0.57926   0.38860   0.00000  Uiso   1.00
O958   O     0.69125   0.79792   0.98061   0.00000  Uiso   1.00
O959   O     0.82481   0.10687   0.52572   0.00000  Uiso   1.00
O960   O     0.86521   0.49073   0.47755   0.00000  Uiso   1.00
N961   N     0.69736   0.78980   0.10914   0.00000  Uiso   1.00
N962   N     0.79254   0.00997   0.49759   0.00000  Uiso   1.00
N963   N     0.82133   0.57092   0.46328   0.00000  Uiso   1.00
N964   N     0.74405   0.80632   0.05171   0.00000  Uiso   1.00
N965   N     0.83923   0.02649   0.44015   0.00000  Uiso   1.00
N966   N     0.86803   0.58744   0.40585   0.00000  Uiso   1.00
C967   C     0.10199   0.17114   0.18852   0.00000  Uiso   1.00
C968   C     0.08518   0.13251   0.12237   0.00000  Uiso   1.00
C969   C     0.08420   0.15270   0.04911   0.00000  Uiso   1.00
C970   C     0.06758   0.11030   0.99673   0.00000  Uiso   1.00
C971   C     0.04378   0.05949   0.89095   0.00000  Uiso   1.00
C972   C     0.12805   0.12313   0.22802   0.00000  Uiso   1.00
C973   C     0.16312   0.13546   0.24359   0.00000  Uiso   1.00
C974   C     0.18260   0.08517   0.28016   0.00000  Uiso   1.00
C975   C     0.22536   0.01983   0.33845   0.00000  Uiso   1.00
C976   C     0.07371   0.18154   0.24069   0.00000  Uiso   1.00
C977   C     0.06310   0.24298   0.26694   0.00000  Uiso   1.00
C978   C     0.03683   0.24186   0.31419   0.00000  Uiso   1.00
C979   C     0.99523   0.26722   0.39214   0.00000  Uiso   1.00
C980   C     0.07421   0.05992   0.22579   0.00000  Uiso   1.00
C981   C     0.07009   0.07210   0.14262   0.00000  Uiso   1.00
C982   C     0.05346   0.02965   0.09034   0.00000  Uiso   1.00
C983   C     0.05246   0.04979   0.01701   0.00000  Uiso   1.00
C984   C     0.11296   0.06273   0.24827   0.00000  Uiso   1.00
C985   C     0.13239   0.01241   0.28483   0.00000  Uiso   1.00
C986   C     0.16748   0.02465   0.30045   0.00000  Uiso   1.00
C987   C     0.05862   0.12114   0.26094   0.00000  Uiso   1.00
C988   C     0.03237   0.11993   0.30817   0.00000  Uiso   1.00
C989   C     0.02172   0.18135   0.33447   0.00000  Uiso   1.00
H990   H     0.11374   0.21816   0.17276   0.00000  Uiso   1.00
H991   H     0.09588   0.19945   0.03346   0.00000  Uiso   1.00
H992   H     0.17479   0.18221   0.22793   0.00000  Uiso   1.00
H993   H     0.07479   0.28971   0.25126   0.00000  Uiso   1.00
H994   H     0.06944   0.15206   0.88795   0.00000  Uiso   1.00
H995   H     0.23582   0.11572   0.29801   0.00000  Uiso   1.00
H996   H     0.02494   0.34240   0.34721   0.00000  Uiso   1.00
H997   H     0.06247   0.01288   0.24155   0.00000  Uiso   1.00
H998   H     0.04179   0.98291   0.10603   0.00000  Uiso   1.00
H999   H     0.12070   0.96567   0.30049   0.00000  Uiso   1.00
H1000  H     0.02070   0.07317   0.32382   0.00000  Uiso   1.00
H1001  H     0.02554   0.97630   0.94685   0.00000  Uiso   1.00
H1002  H     0.19192   0.93996   0.35691   0.00000  Uiso   1.00
H1003  H     0.98104   0.16665   0.40611   0.00000  Uiso   1.00
O1004  O     0.03482   0.04815   0.82700   0.00000  Uiso   1.00
O1005  O     0.25311   0.00048   0.36500   0.00000  Uiso   1.00
O1006  O     0.97644   0.29789   0.42954   0.00000  Uiso   1.00
N1007  N     0.06194   0.11481   0.92041   0.00000  Uiso   1.00
N1008  N     0.21750   0.08083   0.30378   0.00000  Uiso   1.00
N1009  N     0.02035   0.29276   0.34980   0.00000  Uiso   1.00
N1010  N     0.03832   0.02024   0.95211   0.00000  Uiso   1.00
N1011  N     0.19388   0.98626   0.33547   0.00000  Uiso   1.00
N1012  N     0.99673   0.19819   0.38149   0.00000  Uiso   1.00
C1013  C     0.14434   0.38133   0.27135   0.00000  Uiso   1.00
C1014  C     0.11529   0.40563   0.21584   0.00000  Uiso   1.00
C1015  C     0.10994   0.38563   0.14257   0.00000  Uiso   1.00
C1016  C     0.08190   0.41365   0.10083   0.00000  Uiso   1.00
C1017  C     0.04011   0.44430   0.01001   0.00000  Uiso   1.00
C1018  C     0.12676   0.35258   0.33632   0.00000  Uiso   1.00
C1019  C     0.13106   0.28797   0.36435   0.00000  Uiso   1.00
C1020  C     0.11268   0.27134   0.42404   0.00000  Uiso   1.00
C1021  C     0.08872   0.21964   0.52030   0.00000  Uiso   1.00
C1022  C     0.16336   0.44427   0.30039   0.00000  Uiso   1.00
C1023  C     0.19844   0.45676   0.29822   0.00000  Uiso   1.00
C1024  C     0.21088   0.51732   0.32767   0.00000  Uiso   1.00
C1025  C     0.24374   0.60798   0.36813   0.00000  Uiso   1.00
C1026  C     0.10405   0.46667   0.32753   0.00000  Uiso   1.00
C1027  C     0.09340   0.45198   0.24636   0.00000  Uiso   1.00
C1028  C     0.06536   0.48005   0.20472   0.00000  Uiso   1.00
C1029  C     0.05998   0.46009   0.13140   0.00000  Uiso   1.00
C1030  C     0.10487   0.39893   0.36684   0.00000  Uiso   1.00
C1031  C     0.08648   0.38239   0.42650   0.00000  Uiso   1.00
C1032  C     0.09076   0.31778   0.45461   0.00000  Uiso   1.00
C1033  C     0.14147   0.49062   0.33090   0.00000  Uiso   1.00
C1034  C     0.15386   0.55118   0.36037   0.00000  Uiso   1.00
C1035  C     0.18895   0.56375   0.35824   0.00000  Uiso   1.00
H1036  H     0.16137   0.34524   0.24760   0.00000  Uiso   1.00
H1037  H     0.12688   0.34975   0.11897   0.00000  Uiso   1.00
H1038  H     0.14800   0.25212   0.34073   0.00000  Uiso   1.00
H1039  H     0.21537   0.42087   0.27460   0.00000  Uiso   1.00
H1040  H     0.07898   0.37517   0.98983   0.00000  Uiso   1.00
H1041  H     0.12352   0.16931   0.45743   0.00000  Uiso   1.00
H1042  H     0.26557   0.52517   0.31799   0.00000  Uiso   1.00
H1043  H     0.08701   0.50276   0.35129   0.00000  Uiso   1.00
H1044  H     0.04843   0.51592   0.22835   0.00000  Uiso   1.00
H1045  H     0.06955   0.41827   0.45011   0.00000  Uiso   1.00
H1046  H     0.13692   0.58703   0.38398   0.00000  Uiso   1.00
H1047  H     0.01531   0.51003   0.07861   0.00000  Uiso   1.00
H1048  H     0.05985   0.30417   0.54621   0.00000  Uiso   1.00
H1049  H     0.20190   0.66003   0.40676   0.00000  Uiso   1.00
O1050  O     0.02310   0.44840   0.95149   0.00000  Uiso   1.00
O1051  O     0.08154   0.17831   0.56496   0.00000  Uiso   1.00
O1052  O     0.26791   0.64519   0.38201   0.00000  Uiso   1.00
N1053  N     0.06929   0.40512   0.02760   0.00000  Uiso   1.00
N1054  N     0.11093   0.21264   0.46476   0.00000  Uiso   1.00
N1055  N     0.24374   0.54533   0.33441   0.00000  Uiso   1.00
N1056  N     0.03503   0.47769   0.07537   0.00000  Uiso   1.00
N1057  N     0.07667   0.28521   0.51253   0.00000  Uiso   1.00
N1058  N     0.20948   0.61790   0.38218   0.00000  Uiso   1.00
C1059  C     0.26629   0.28875   0.36170   0.00000  Uiso   1.00
C1060  C     0.25871   0.29306   0.27806   0.00000  Uiso   1.00
C1061  C     0.22632   0.28750   0.23973   0.00000  Uiso   1.00
C1062  C     0.22481   0.29287   0.16332   0.00000  Uiso   1.00
C1063  C     0.20849   0.29800   0.03903   0.00000  Uiso   1.00
C1064  C     0.28494   0.35375   0.38511   0.00000  Uiso   1.00
C1065  C     0.27460   0.39921   0.43679   0.00000  Uiso   1.00
C1066  C     0.29517   0.45566   0.45050   0.00000  Uiso   1.00
C1067  C     0.31959   0.55499   0.49245   0.00000  Uiso   1.00
C1068  C     0.29287   0.23275   0.37564   0.00000  Uiso   1.00
C1069  C     0.28921   0.17647   0.41938   0.00000  Uiso   1.00
C1070  C     0.31646   0.13105   0.42514   0.00000  Uiso   1.00
C1071  C     0.35320   0.04250   0.45239   0.00000  Uiso   1.00
C1072  C     0.32121   0.30818   0.29416   0.00000  Uiso   1.00
C1073  C     0.28854   0.30362   0.24138   0.00000  Uiso   1.00
C1074  C     0.28707   0.30899   0.16500   0.00000  Uiso   1.00
C1075  C     0.25469   0.30344   0.12656   0.00000  Uiso   1.00
C1076  C     0.31476   0.36431   0.34843   0.00000  Uiso   1.00
C1077  C     0.33536   0.42070   0.36207   0.00000  Uiso   1.00
C1078  C     0.32505   0.46624   0.41375   0.00000  Uiso   1.00
C1079  C     0.32270   0.24330   0.33896   0.00000  Uiso   1.00
C1080  C     0.34996   0.19796   0.34466   0.00000  Uiso   1.00
C1081  C     0.34634   0.14162   0.38839   0.00000  Uiso   1.00
H1082  H     0.24307   0.28054   0.39026   0.00000  Uiso   1.00
H1083  H     0.20324   0.27934   0.26814   0.00000  Uiso   1.00
H1084  H     0.25152   0.39103   0.46517   0.00000  Uiso   1.00
H1085  H     0.26613   0.16832   0.44776   0.00000  Uiso   1.00
H1086  H     0.17223   0.28269   0.11656   0.00000  Uiso   1.00
H1087  H     0.27404   0.51818   0.53205   0.00000  Uiso   1.00
H1088  H     0.30483   0.04856   0.49534   0.00000  Uiso   1.00
H1089  H     0.34443   0.31639   0.26560   0.00000  Uiso   1.00
H1090  H     0.31016   0.31716   0.13663   0.00000  Uiso   1.00
H1091  H     0.35844   0.42885   0.33367   0.00000  Uiso   1.00
H1092  H     0.37304   0.20614   0.31626   0.00000  Uiso   1.00
H1093  H     0.25901   0.31339   0.00983   0.00000  Uiso   1.00
H1094  H     0.36081   0.54888   0.42532   0.00000  Uiso   1.00
H1095  H     0.39161   0.07926   0.38860   0.00000  Uiso   1.00
O1096  O     0.19125   0.29792   0.98061   0.00000  Uiso   1.00
O1097  O     0.32481   0.60687   0.52572   0.00000  Uiso   1.00
O1098  O     0.36521   0.99073   0.47755   0.00000  Uiso   1.00
N1099  N     0.19736   0.28980   0.10914   0.00000  Uiso   1.00
N1100  N     0.29254   0.50997   0.49759   0.00000  Uiso   1.00
N1101  N     0.32133   0.07092   0.46328   0.00000  Uiso   1.00
N1102  N     0.24405   0.30632   0.05171   0.00000  Uiso   1.00
N1103  N     0.33923   0.52649   0.44015   0.00000  Uiso   1.00
N1104  N     0.36803   0.08744   0.40585   0.00000  Uiso   1.00
