data_job_03247
_audit_creation_date              2018-12-19
_audit_creation_method            'Materials Studio'
_symmetry_space_group_name_H-M    'P1'
_symmetry_Int_Tables_number       1
_symmetry_cell_setting            triclinic
loop_
_symmetry_equiv_pos_as_xyz
  x,y,z
_cell_length_a                    51.5662
_cell_length_b                    51.5662
_cell_length_c                    7.1244
_cell_angle_alpha                 90.0000
_cell_angle_beta                  90.0000
_cell_angle_gamma                 90.0000
loop_
_atom_site_label
_atom_site_type_symbol
_atom_site_fract_x
_atom_site_fract_y
_atom_site_fract_z
_atom_site_U_iso_or_equiv
_atom_site_adp_type
_atom_site_occupancy
C1     C     0.47242   0.67476   0.49956   0.00000  Uiso   1.00
C2     C     0.49678   0.66760   0.38981   0.00000  Uiso   1.00
C3     C     0.51966   0.65815   0.46625   0.00000  Uiso   1.00
C4     C     0.53972   0.65278   0.34224   0.00000  Uiso   1.00
C5     C     0.57796   0.64108   0.20127   0.00000  Uiso   1.00
C6     C     0.46651   0.70292   0.44998   0.00000  Uiso   1.00
C7     C     0.46394   0.72316   0.57703   0.00000  Uiso   1.00
C8     C     0.45852   0.74750   0.50366   0.00000  Uiso   1.00
C9     C     0.44976   0.79062   0.45612   0.00000  Uiso   1.00
C10    C     0.45050   0.65874   0.41478   0.00000  Uiso   1.00
C11    C     0.43446   0.64183   0.51224   0.00000  Uiso   1.00
C12    C     0.41555   0.62899   0.40923   0.00000  Uiso   1.00
C13    C     0.38193   0.60351   0.30705   0.00000  Uiso   1.00
C14    C     0.46736   0.68201   0.14336   0.00000  Uiso   1.00
C15    C     0.49403   0.67154   0.19634   0.00000  Uiso   1.00
C16    C     0.51406   0.66618   0.07217   0.00000  Uiso   1.00
C17    C     0.53697   0.65672   0.14842   0.00000  Uiso   1.00
C18    C     0.46377   0.70686   0.25652   0.00000  Uiso   1.00
C19    C     0.45834   0.73118   0.18295   0.00000  Uiso   1.00
C20    C     0.45577   0.75145   0.30984   0.00000  Uiso   1.00
C21    C     0.44775   0.66267   0.22131   0.00000  Uiso   1.00
C22    C     0.42886   0.64985   0.11815   0.00000  Uiso   1.00
C23    C     0.41280   0.63293   0.21542   0.00000  Uiso   1.00
H24    H     0.47456   0.67170   0.65018   0.00000  Uiso   1.00
H25    H     0.52178   0.65511   0.61599   0.00000  Uiso   1.00
H26    H     0.46607   0.72010   0.72674   0.00000  Uiso   1.00
H27    H     0.43659   0.63879   0.66195   0.00000  Uiso   1.00
H28    H     0.57292   0.63847   0.49277   0.00000  Uiso   1.00
H29    H     0.45544   0.77550   0.72630   0.00000  Uiso   1.00
H30    H     0.39329   0.60404   0.58968   0.00000  Uiso   1.00
H31    H     0.46522   0.68508   0.99273   0.00000  Uiso   1.00
H32    H     0.51193   0.66923   0.92246   0.00000  Uiso   1.00
H33    H     0.45622   0.73422   0.03322   0.00000  Uiso   1.00
H34    H     0.42674   0.65291   0.96843   0.00000  Uiso   1.00
H35    H     0.56493   0.64993   0.92988   0.00000  Uiso   1.00
H36    H     0.44745   0.78696   0.16341   0.00000  Uiso   1.00
H37    H     0.38529   0.61550   0.02679   0.00000  Uiso   1.00
O38    O     0.59982   0.63354   0.17696   0.00000  Uiso   1.00
O39    O     0.44569   0.81332   0.48336   0.00000  Uiso   1.00
O40    O     0.36414   0.58836   0.30412   0.00000  Uiso   1.00
N41    N     0.56463   0.64334   0.36993   0.00000  Uiso   1.00
N42    N     0.45480   0.77146   0.58827   0.00000  Uiso   1.00
N43    N     0.39668   0.61116   0.46055   0.00000  Uiso   1.00
N44    N     0.56033   0.64950   0.06704   0.00000  Uiso   1.00
N45    N     0.45049   0.77762   0.28538   0.00000  Uiso   1.00
N46    N     0.39238   0.61732   0.15767   0.00000  Uiso   1.00
C47    C     0.97242   0.17476   0.99956   0.00000  Uiso   1.00
C48    C     0.99678   0.16760   0.88981   0.00000  Uiso   1.00
C49    C     0.01966   0.15815   0.96625   0.00000  Uiso   1.00
C50    C     0.03972   0.15278   0.84224   0.00000  Uiso   1.00
C51    C     0.07796   0.14108   0.70127   0.00000  Uiso   1.00
C52    C     0.96651   0.20292   0.94998   0.00000  Uiso   1.00
C53    C     0.96394   0.22316   0.07703   0.00000  Uiso   1.00
C54    C     0.95852   0.24750   0.00366   0.00000  Uiso   1.00
C55    C     0.94976   0.29062   0.95612   0.00000  Uiso   1.00
C56    C     0.95050   0.15874   0.91478   0.00000  Uiso   1.00
C57    C     0.93446   0.14183   0.01224   0.00000  Uiso   1.00
C58    C     0.91555   0.12899   0.90923   0.00000  Uiso   1.00
C59    C     0.88193   0.10351   0.80705   0.00000  Uiso   1.00
C60    C     0.96736   0.18201   0.64336   0.00000  Uiso   1.00
C61    C     0.99403   0.17154   0.69634   0.00000  Uiso   1.00
C62    C     0.01406   0.16618   0.57217   0.00000  Uiso   1.00
C63    C     0.03697   0.15672   0.64842   0.00000  Uiso   1.00
C64    C     0.96377   0.20686   0.75652   0.00000  Uiso   1.00
C65    C     0.95834   0.23118   0.68295   0.00000  Uiso   1.00
C66    C     0.95577   0.25145   0.80984   0.00000  Uiso   1.00
C67    C     0.94775   0.16267   0.72131   0.00000  Uiso   1.00
C68    C     0.92886   0.14985   0.61815   0.00000  Uiso   1.00
C69    C     0.91280   0.13293   0.71542   0.00000  Uiso   1.00
H70    H     0.97456   0.17170   0.15018   0.00000  Uiso   1.00
H71    H     0.02178   0.15511   0.11599   0.00000  Uiso   1.00
H72    H     0.96607   0.22010   0.22674   0.00000  Uiso   1.00
H73    H     0.93659   0.13879   0.16195   0.00000  Uiso   1.00
H74    H     0.07292   0.13847   0.99277   0.00000  Uiso   1.00
H75    H     0.95544   0.27550   0.22630   0.00000  Uiso   1.00
H76    H     0.89329   0.10404   0.08968   0.00000  Uiso   1.00
H77    H     0.96522   0.18508   0.49273   0.00000  Uiso   1.00
H78    H     0.01193   0.16923   0.42246   0.00000  Uiso   1.00
H79    H     0.95622   0.23422   0.53322   0.00000  Uiso   1.00
H80    H     0.92674   0.15291   0.46843   0.00000  Uiso   1.00
H81    H     0.06493   0.14993   0.42988   0.00000  Uiso   1.00
H82    H     0.94745   0.28696   0.66341   0.00000  Uiso   1.00
H83    H     0.88529   0.11550   0.52679   0.00000  Uiso   1.00
O84    O     0.09982   0.13354   0.67696   0.00000  Uiso   1.00
O85    O     0.94569   0.31332   0.98336   0.00000  Uiso   1.00
O86    O     0.86414   0.08836   0.80412   0.00000  Uiso   1.00
N87    N     0.06463   0.14334   0.86993   0.00000  Uiso   1.00
N88    N     0.95480   0.27146   0.08827   0.00000  Uiso   1.00
N89    N     0.89668   0.11116   0.96055   0.00000  Uiso   1.00
N90    N     0.06033   0.14950   0.56704   0.00000  Uiso   1.00
N91    N     0.95049   0.27762   0.78538   0.00000  Uiso   1.00
N92    N     0.89238   0.11732   0.65767   0.00000  Uiso   1.00
C93    C     0.02758   0.82524   0.99956   0.00000  Uiso   1.00
C94    C     0.00322   0.83240   0.88981   0.00000  Uiso   1.00
C95    C     0.98034   0.84185   0.96625   0.00000  Uiso   1.00
C96    C     0.96028   0.84722   0.84224   0.00000  Uiso   1.00
C97    C     0.92204   0.85892   0.70127   0.00000  Uiso   1.00
C98    C     0.03349   0.79708   0.94998   0.00000  Uiso   1.00
C99    C     0.03606   0.77684   0.07703   0.00000  Uiso   1.00
C100   C     0.04148   0.75250   0.00366   0.00000  Uiso   1.00
C101   C     0.05024   0.70938   0.95612   0.00000  Uiso   1.00
C102   C     0.04950   0.84126   0.91478   0.00000  Uiso   1.00
C103   C     0.06554   0.85817   0.01224   0.00000  Uiso   1.00
C104   C     0.08445   0.87101   0.90923   0.00000  Uiso   1.00
C105   C     0.11807   0.89649   0.80705   0.00000  Uiso   1.00
C106   C     0.03264   0.81799   0.64336   0.00000  Uiso   1.00
C107   C     0.00597   0.82846   0.69634   0.00000  Uiso   1.00
C108   C     0.98594   0.83382   0.57217   0.00000  Uiso   1.00
C109   C     0.96303   0.84328   0.64842   0.00000  Uiso   1.00
C110   C     0.03623   0.79314   0.75652   0.00000  Uiso   1.00
C111   C     0.04166   0.76882   0.68295   0.00000  Uiso   1.00
C112   C     0.04423   0.74855   0.80984   0.00000  Uiso   1.00
C113   C     0.05225   0.83733   0.72131   0.00000  Uiso   1.00
C114   C     0.07114   0.85015   0.61815   0.00000  Uiso   1.00
C115   C     0.08720   0.86707   0.71542   0.00000  Uiso   1.00
H116   H     0.02544   0.82830   0.15018   0.00000  Uiso   1.00
H117   H     0.97822   0.84489   0.11599   0.00000  Uiso   1.00
H118   H     0.03393   0.77990   0.22674   0.00000  Uiso   1.00
H119   H     0.06341   0.86121   0.16195   0.00000  Uiso   1.00
H120   H     0.92708   0.86153   0.99277   0.00000  Uiso   1.00
H121   H     0.04456   0.72450   0.22630   0.00000  Uiso   1.00
H122   H     0.10671   0.89596   0.08968   0.00000  Uiso   1.00
H123   H     0.03478   0.81492   0.49273   0.00000  Uiso   1.00
H124   H     0.98807   0.83077   0.42246   0.00000  Uiso   1.00
H125   H     0.04378   0.76578   0.53322   0.00000  Uiso   1.00
H126   H     0.07326   0.84709   0.46843   0.00000  Uiso   1.00
H127   H     0.93507   0.85007   0.42988   0.00000  Uiso   1.00
H128   H     0.05255   0.71304   0.66341   0.00000  Uiso   1.00
H129   H     0.11471   0.88450   0.52679   0.00000  Uiso   1.00
O130   O     0.90018   0.86646   0.67696   0.00000  Uiso   1.00
O131   O     0.05431   0.68668   0.98336   0.00000  Uiso   1.00
O132   O     0.13586   0.91164   0.80412   0.00000  Uiso   1.00
N133   N     0.93537   0.85666   0.86993   0.00000  Uiso   1.00
N134   N     0.04520   0.72854   0.08827   0.00000  Uiso   1.00
N135   N     0.10332   0.88884   0.96055   0.00000  Uiso   1.00
N136   N     0.93967   0.85050   0.56704   0.00000  Uiso   1.00
N137   N     0.04951   0.72238   0.78538   0.00000  Uiso   1.00
N138   N     0.10762   0.88268   0.65767   0.00000  Uiso   1.00
C139   C     0.52758   0.32524   0.49956   0.00000  Uiso   1.00
C140   C     0.50322   0.33240   0.38981   0.00000  Uiso   1.00
C141   C     0.48034   0.34185   0.46625   0.00000  Uiso   1.00
C142   C     0.46028   0.34722   0.34224   0.00000  Uiso   1.00
C143   C     0.42204   0.35892   0.20127   0.00000  Uiso   1.00
C144   C     0.53349   0.29708   0.44998   0.00000  Uiso   1.00
C145   C     0.53606   0.27684   0.57703   0.00000  Uiso   1.00
C146   C     0.54148   0.25250   0.50366   0.00000  Uiso   1.00
C147   C     0.55024   0.20938   0.45612   0.00000  Uiso   1.00
C148   C     0.54950   0.34126   0.41478   0.00000  Uiso   1.00
C149   C     0.56554   0.35817   0.51224   0.00000  Uiso   1.00
C150   C     0.58445   0.37101   0.40923   0.00000  Uiso   1.00
C151   C     0.61807   0.39649   0.30705   0.00000  Uiso   1.00
C152   C     0.53264   0.31799   0.14336   0.00000  Uiso   1.00
C153   C     0.50597   0.32846   0.19634   0.00000  Uiso   1.00
C154   C     0.48594   0.33382   0.07217   0.00000  Uiso   1.00
C155   C     0.46303   0.34328   0.14842   0.00000  Uiso   1.00
C156   C     0.53623   0.29314   0.25652   0.00000  Uiso   1.00
C157   C     0.54166   0.26882   0.18295   0.00000  Uiso   1.00
C158   C     0.54423   0.24855   0.30984   0.00000  Uiso   1.00
C159   C     0.55225   0.33733   0.22131   0.00000  Uiso   1.00
C160   C     0.57114   0.35015   0.11815   0.00000  Uiso   1.00
C161   C     0.58720   0.36707   0.21542   0.00000  Uiso   1.00
H162   H     0.52544   0.32830   0.65018   0.00000  Uiso   1.00
H163   H     0.47822   0.34489   0.61599   0.00000  Uiso   1.00
H164   H     0.53393   0.27990   0.72674   0.00000  Uiso   1.00
H165   H     0.56341   0.36121   0.66195   0.00000  Uiso   1.00
H166   H     0.42708   0.36153   0.49277   0.00000  Uiso   1.00
H167   H     0.54456   0.22450   0.72630   0.00000  Uiso   1.00
H168   H     0.60671   0.39596   0.58968   0.00000  Uiso   1.00
H169   H     0.53478   0.31492   0.99273   0.00000  Uiso   1.00
H170   H     0.48807   0.33077   0.92246   0.00000  Uiso   1.00
H171   H     0.54378   0.26578   0.03322   0.00000  Uiso   1.00
H172   H     0.57326   0.34709   0.96843   0.00000  Uiso   1.00
H173   H     0.43507   0.35007   0.92988   0.00000  Uiso   1.00
H174   H     0.55255   0.21304   0.16341   0.00000  Uiso   1.00
H175   H     0.61471   0.38450   0.02679   0.00000  Uiso   1.00
O176   O     0.40018   0.36646   0.17696   0.00000  Uiso   1.00
O177   O     0.55431   0.18668   0.48336   0.00000  Uiso   1.00
O178   O     0.63586   0.41164   0.30412   0.00000  Uiso   1.00
N179   N     0.43537   0.35666   0.36993   0.00000  Uiso   1.00
N180   N     0.54520   0.22854   0.58827   0.00000  Uiso   1.00
N181   N     0.60332   0.38884   0.46055   0.00000  Uiso   1.00
N182   N     0.43967   0.35050   0.06704   0.00000  Uiso   1.00
N183   N     0.54951   0.22238   0.28538   0.00000  Uiso   1.00
N184   N     0.60762   0.38268   0.15767   0.00000  Uiso   1.00
C185   C     0.32524   0.97242   0.74956   0.00000  Uiso   1.00
C186   C     0.33240   0.99678   0.63981   0.00000  Uiso   1.00
C187   C     0.34185   0.01966   0.71625   0.00000  Uiso   1.00
C188   C     0.34722   0.03972   0.59224   0.00000  Uiso   1.00
C189   C     0.35892   0.07796   0.45127   0.00000  Uiso   1.00
C190   C     0.29708   0.96651   0.69998   0.00000  Uiso   1.00
C191   C     0.27684   0.96394   0.82703   0.00000  Uiso   1.00
C192   C     0.25250   0.95852   0.75366   0.00000  Uiso   1.00
C193   C     0.20938   0.94976   0.70612   0.00000  Uiso   1.00
C194   C     0.34126   0.95050   0.66478   0.00000  Uiso   1.00
C195   C     0.35817   0.93446   0.76224   0.00000  Uiso   1.00
C196   C     0.37101   0.91555   0.65923   0.00000  Uiso   1.00
C197   C     0.39649   0.88193   0.55705   0.00000  Uiso   1.00
C198   C     0.31799   0.96736   0.39336   0.00000  Uiso   1.00
C199   C     0.32846   0.99403   0.44634   0.00000  Uiso   1.00
C200   C     0.33382   0.01406   0.32217   0.00000  Uiso   1.00
C201   C     0.34328   0.03697   0.39842   0.00000  Uiso   1.00
C202   C     0.29314   0.96377   0.50652   0.00000  Uiso   1.00
C203   C     0.26882   0.95834   0.43295   0.00000  Uiso   1.00
C204   C     0.24855   0.95577   0.55984   0.00000  Uiso   1.00
C205   C     0.33733   0.94775   0.47131   0.00000  Uiso   1.00
C206   C     0.35015   0.92886   0.36815   0.00000  Uiso   1.00
C207   C     0.36707   0.91280   0.46542   0.00000  Uiso   1.00
H208   H     0.32830   0.97456   0.90018   0.00000  Uiso   1.00
H209   H     0.34489   0.02178   0.86599   0.00000  Uiso   1.00
H210   H     0.27990   0.96607   0.97674   0.00000  Uiso   1.00
H211   H     0.36121   0.93659   0.91195   0.00000  Uiso   1.00
H212   H     0.36153   0.07292   0.74277   0.00000  Uiso   1.00
H213   H     0.22450   0.95544   0.97630   0.00000  Uiso   1.00
H214   H     0.39596   0.89329   0.83968   0.00000  Uiso   1.00
H215   H     0.31492   0.96522   0.24273   0.00000  Uiso   1.00
H216   H     0.33077   0.01193   0.17246   0.00000  Uiso   1.00
H217   H     0.26578   0.95622   0.28322   0.00000  Uiso   1.00
H218   H     0.34709   0.92674   0.21843   0.00000  Uiso   1.00
H219   H     0.35007   0.06493   0.17988   0.00000  Uiso   1.00
H220   H     0.21304   0.94745   0.41341   0.00000  Uiso   1.00
H221   H     0.38450   0.88529   0.27679   0.00000  Uiso   1.00
O222   O     0.36646   0.09982   0.42696   0.00000  Uiso   1.00
O223   O     0.18668   0.94569   0.73336   0.00000  Uiso   1.00
O224   O     0.41164   0.86414   0.55412   0.00000  Uiso   1.00
N225   N     0.35666   0.06463   0.61993   0.00000  Uiso   1.00
N226   N     0.22854   0.95480   0.83827   0.00000  Uiso   1.00
N227   N     0.38884   0.89668   0.71055   0.00000  Uiso   1.00
N228   N     0.35050   0.06033   0.31704   0.00000  Uiso   1.00
N229   N     0.22238   0.95049   0.53538   0.00000  Uiso   1.00
N230   N     0.38268   0.89238   0.40767   0.00000  Uiso   1.00
C231   C     0.82524   0.47242   0.24956   0.00000  Uiso   1.00
C232   C     0.83240   0.49678   0.13981   0.00000  Uiso   1.00
C233   C     0.84185   0.51966   0.21625   0.00000  Uiso   1.00
C234   C     0.84722   0.53972   0.09224   0.00000  Uiso   1.00
C235   C     0.85892   0.57796   0.95127   0.00000  Uiso   1.00
C236   C     0.79708   0.46651   0.19998   0.00000  Uiso   1.00
C237   C     0.77684   0.46394   0.32703   0.00000  Uiso   1.00
C238   C     0.75250   0.45852   0.25366   0.00000  Uiso   1.00
C239   C     0.70938   0.44976   0.20612   0.00000  Uiso   1.00
C240   C     0.84126   0.45050   0.16478   0.00000  Uiso   1.00
C241   C     0.85817   0.43446   0.26224   0.00000  Uiso   1.00
C242   C     0.87101   0.41555   0.15923   0.00000  Uiso   1.00
C243   C     0.89649   0.38193   0.05705   0.00000  Uiso   1.00
C244   C     0.81799   0.46736   0.89336   0.00000  Uiso   1.00
C245   C     0.82846   0.49403   0.94634   0.00000  Uiso   1.00
C246   C     0.83382   0.51406   0.82217   0.00000  Uiso   1.00
C247   C     0.84328   0.53697   0.89842   0.00000  Uiso   1.00
C248   C     0.79314   0.46377   0.00652   0.00000  Uiso   1.00
C249   C     0.76882   0.45834   0.93295   0.00000  Uiso   1.00
C250   C     0.74855   0.45577   0.05984   0.00000  Uiso   1.00
C251   C     0.83733   0.44775   0.97131   0.00000  Uiso   1.00
C252   C     0.85015   0.42886   0.86815   0.00000  Uiso   1.00
C253   C     0.86707   0.41280   0.96542   0.00000  Uiso   1.00
H254   H     0.82830   0.47456   0.40018   0.00000  Uiso   1.00
H255   H     0.84489   0.52178   0.36599   0.00000  Uiso   1.00
H256   H     0.77990   0.46607   0.47674   0.00000  Uiso   1.00
H257   H     0.86121   0.43659   0.41195   0.00000  Uiso   1.00
H258   H     0.86153   0.57292   0.24277   0.00000  Uiso   1.00
H259   H     0.72450   0.45544   0.47630   0.00000  Uiso   1.00
H260   H     0.89596   0.39329   0.33968   0.00000  Uiso   1.00
H261   H     0.81492   0.46522   0.74273   0.00000  Uiso   1.00
H262   H     0.83077   0.51193   0.67246   0.00000  Uiso   1.00
H263   H     0.76578   0.45622   0.78322   0.00000  Uiso   1.00
H264   H     0.84709   0.42674   0.71843   0.00000  Uiso   1.00
H265   H     0.85007   0.56493   0.67988   0.00000  Uiso   1.00
H266   H     0.71304   0.44745   0.91341   0.00000  Uiso   1.00
H267   H     0.88450   0.38529   0.77679   0.00000  Uiso   1.00
O268   O     0.86646   0.59982   0.92696   0.00000  Uiso   1.00
O269   O     0.68668   0.44569   0.23336   0.00000  Uiso   1.00
O270   O     0.91164   0.36414   0.05412   0.00000  Uiso   1.00
N271   N     0.85666   0.56463   0.11993   0.00000  Uiso   1.00
N272   N     0.72854   0.45480   0.33827   0.00000  Uiso   1.00
N273   N     0.88884   0.39668   0.21055   0.00000  Uiso   1.00
N274   N     0.85050   0.56033   0.81704   0.00000  Uiso   1.00
N275   N     0.72238   0.45049   0.03538   0.00000  Uiso   1.00
N276   N     0.88268   0.39238   0.90767   0.00000  Uiso   1.00
C277   C     0.17476   0.52758   0.24956   0.00000  Uiso   1.00
C278   C     0.16760   0.50322   0.13981   0.00000  Uiso   1.00
C279   C     0.15815   0.48034   0.21625   0.00000  Uiso   1.00
C280   C     0.15278   0.46028   0.09224   0.00000  Uiso   1.00
C281   C     0.14108   0.42204   0.95127   0.00000  Uiso   1.00
C282   C     0.20292   0.53349   0.19998   0.00000  Uiso   1.00
C283   C     0.22316   0.53606   0.32703   0.00000  Uiso   1.00
C284   C     0.24750   0.54148   0.25366   0.00000  Uiso   1.00
C285   C     0.29062   0.55024   0.20612   0.00000  Uiso   1.00
C286   C     0.15874   0.54950   0.16478   0.00000  Uiso   1.00
C287   C     0.14183   0.56554   0.26224   0.00000  Uiso   1.00
C288   C     0.12899   0.58445   0.15923   0.00000  Uiso   1.00
C289   C     0.10351   0.61807   0.05705   0.00000  Uiso   1.00
C290   C     0.18201   0.53264   0.89336   0.00000  Uiso   1.00
C291   C     0.17154   0.50597   0.94634   0.00000  Uiso   1.00
C292   C     0.16618   0.48594   0.82217   0.00000  Uiso   1.00
C293   C     0.15672   0.46303   0.89842   0.00000  Uiso   1.00
C294   C     0.20686   0.53623   0.00652   0.00000  Uiso   1.00
C295   C     0.23118   0.54166   0.93295   0.00000  Uiso   1.00
C296   C     0.25145   0.54423   0.05984   0.00000  Uiso   1.00
C297   C     0.16267   0.55225   0.97131   0.00000  Uiso   1.00
C298   C     0.14985   0.57114   0.86815   0.00000  Uiso   1.00
C299   C     0.13293   0.58720   0.96542   0.00000  Uiso   1.00
H300   H     0.17170   0.52544   0.40018   0.00000  Uiso   1.00
H301   H     0.15511   0.47822   0.36599   0.00000  Uiso   1.00
H302   H     0.22010   0.53393   0.47674   0.00000  Uiso   1.00
H303   H     0.13879   0.56341   0.41195   0.00000  Uiso   1.00
H304   H     0.13847   0.42708   0.24277   0.00000  Uiso   1.00
H305   H     0.27550   0.54456   0.47630   0.00000  Uiso   1.00
H306   H     0.10404   0.60671   0.33968   0.00000  Uiso   1.00
H307   H     0.18508   0.53478   0.74273   0.00000  Uiso   1.00
H308   H     0.16923   0.48807   0.67246   0.00000  Uiso   1.00
H309   H     0.23422   0.54378   0.78322   0.00000  Uiso   1.00
H310   H     0.15291   0.57326   0.71843   0.00000  Uiso   1.00
H311   H     0.14993   0.43507   0.67988   0.00000  Uiso   1.00
H312   H     0.28696   0.55255   0.91341   0.00000  Uiso   1.00
H313   H     0.11550   0.61471   0.77679   0.00000  Uiso   1.00
O314   O     0.13354   0.40018   0.92696   0.00000  Uiso   1.00
O315   O     0.31332   0.55431   0.23336   0.00000  Uiso   1.00
O316   O     0.08836   0.63586   0.05412   0.00000  Uiso   1.00
N317   N     0.14334   0.43537   0.11993   0.00000  Uiso   1.00
N318   N     0.27146   0.54520   0.33827   0.00000  Uiso   1.00
N319   N     0.11116   0.60332   0.21055   0.00000  Uiso   1.00
N320   N     0.14950   0.43967   0.81704   0.00000  Uiso   1.00
N321   N     0.27762   0.54951   0.03538   0.00000  Uiso   1.00
N322   N     0.11732   0.60762   0.90767   0.00000  Uiso   1.00
C323   C     0.67476   0.02758   0.74956   0.00000  Uiso   1.00
C324   C     0.66760   0.00322   0.63981   0.00000  Uiso   1.00
C325   C     0.65815   0.98034   0.71625   0.00000  Uiso   1.00
C326   C     0.65278   0.96028   0.59224   0.00000  Uiso   1.00
C327   C     0.64108   0.92204   0.45127   0.00000  Uiso   1.00
C328   C     0.70292   0.03349   0.69998   0.00000  Uiso   1.00
C329   C     0.72316   0.03606   0.82703   0.00000  Uiso   1.00
C330   C     0.74750   0.04148   0.75366   0.00000  Uiso   1.00
C331   C     0.79062   0.05024   0.70612   0.00000  Uiso   1.00
C332   C     0.65874   0.04950   0.66478   0.00000  Uiso   1.00
C333   C     0.64183   0.06554   0.76224   0.00000  Uiso   1.00
C334   C     0.62899   0.08445   0.65923   0.00000  Uiso   1.00
C335   C     0.60351   0.11807   0.55705   0.00000  Uiso   1.00
C336   C     0.68201   0.03264   0.39336   0.00000  Uiso   1.00
C337   C     0.67154   0.00597   0.44634   0.00000  Uiso   1.00
C338   C     0.66618   0.98594   0.32217   0.00000  Uiso   1.00
C339   C     0.65672   0.96303   0.39842   0.00000  Uiso   1.00
C340   C     0.70686   0.03623   0.50652   0.00000  Uiso   1.00
C341   C     0.73118   0.04166   0.43295   0.00000  Uiso   1.00
C342   C     0.75145   0.04423   0.55984   0.00000  Uiso   1.00
C343   C     0.66267   0.05225   0.47131   0.00000  Uiso   1.00
C344   C     0.64985   0.07114   0.36815   0.00000  Uiso   1.00
C345   C     0.63293   0.08720   0.46542   0.00000  Uiso   1.00
H346   H     0.67170   0.02544   0.90018   0.00000  Uiso   1.00
H347   H     0.65511   0.97822   0.86599   0.00000  Uiso   1.00
H348   H     0.72010   0.03393   0.97674   0.00000  Uiso   1.00
H349   H     0.63879   0.06341   0.91195   0.00000  Uiso   1.00
H350   H     0.63847   0.92708   0.74277   0.00000  Uiso   1.00
H351   H     0.77550   0.04456   0.97630   0.00000  Uiso   1.00
H352   H     0.60404   0.10671   0.83968   0.00000  Uiso   1.00
H353   H     0.68508   0.03478   0.24273   0.00000  Uiso   1.00
H354   H     0.66923   0.98807   0.17246   0.00000  Uiso   1.00
H355   H     0.73422   0.04378   0.28322   0.00000  Uiso   1.00
H356   H     0.65291   0.07326   0.21843   0.00000  Uiso   1.00
H357   H     0.64993   0.93507   0.17988   0.00000  Uiso   1.00
H358   H     0.78696   0.05255   0.41341   0.00000  Uiso   1.00
H359   H     0.61550   0.11471   0.27679   0.00000  Uiso   1.00
O360   O     0.63354   0.90018   0.42696   0.00000  Uiso   1.00
O361   O     0.81332   0.05431   0.73336   0.00000  Uiso   1.00
O362   O     0.58836   0.13586   0.55412   0.00000  Uiso   1.00
N363   N     0.64334   0.93537   0.61993   0.00000  Uiso   1.00
N364   N     0.77146   0.04520   0.83827   0.00000  Uiso   1.00
N365   N     0.61116   0.10332   0.71055   0.00000  Uiso   1.00
N366   N     0.64950   0.93967   0.31704   0.00000  Uiso   1.00
N367   N     0.77762   0.04951   0.53538   0.00000  Uiso   1.00
N368   N     0.61732   0.10762   0.40767   0.00000  Uiso   1.00
C369   C     0.52758   0.82524   0.75044   0.00000  Uiso   1.00
C370   C     0.50322   0.83240   0.86019   0.00000  Uiso   1.00
C371   C     0.48034   0.84185   0.78375   0.00000  Uiso   1.00
C372   C     0.46028   0.84722   0.90776   0.00000  Uiso   1.00
C373   C     0.42204   0.85892   0.04873   0.00000  Uiso   1.00
C374   C     0.53349   0.79708   0.80002   0.00000  Uiso   1.00
C375   C     0.53606   0.77684   0.67297   0.00000  Uiso   1.00
C376   C     0.54148   0.75250   0.74634   0.00000  Uiso   1.00
C377   C     0.55024   0.70938   0.79388   0.00000  Uiso   1.00
C378   C     0.54950   0.84126   0.83522   0.00000  Uiso   1.00
C379   C     0.56554   0.85817   0.73776   0.00000  Uiso   1.00
C380   C     0.58445   0.87101   0.84077   0.00000  Uiso   1.00
C381   C     0.61807   0.89649   0.94295   0.00000  Uiso   1.00
C382   C     0.53264   0.81799   0.10664   0.00000  Uiso   1.00
C383   C     0.50597   0.82846   0.05366   0.00000  Uiso   1.00
C384   C     0.48594   0.83382   0.17783   0.00000  Uiso   1.00
C385   C     0.46303   0.84328   0.10158   0.00000  Uiso   1.00
C386   C     0.53623   0.79314   0.99348   0.00000  Uiso   1.00
C387   C     0.54166   0.76882   0.06705   0.00000  Uiso   1.00
C388   C     0.54423   0.74855   0.94016   0.00000  Uiso   1.00
C389   C     0.55225   0.83733   0.02869   0.00000  Uiso   1.00
C390   C     0.57114   0.85015   0.13185   0.00000  Uiso   1.00
C391   C     0.58720   0.86707   0.03458   0.00000  Uiso   1.00
H392   H     0.52544   0.82830   0.59982   0.00000  Uiso   1.00
H393   H     0.47822   0.84489   0.63401   0.00000  Uiso   1.00
H394   H     0.53393   0.77990   0.52326   0.00000  Uiso   1.00
H395   H     0.56341   0.86121   0.58805   0.00000  Uiso   1.00
H396   H     0.42708   0.86153   0.75723   0.00000  Uiso   1.00
H397   H     0.54456   0.72450   0.52370   0.00000  Uiso   1.00
H398   H     0.60671   0.89596   0.66032   0.00000  Uiso   1.00
H399   H     0.53478   0.81492   0.25727   0.00000  Uiso   1.00
H400   H     0.48807   0.83077   0.32754   0.00000  Uiso   1.00
H401   H     0.54378   0.76578   0.21678   0.00000  Uiso   1.00
H402   H     0.57326   0.84709   0.28157   0.00000  Uiso   1.00
H403   H     0.43507   0.85007   0.32012   0.00000  Uiso   1.00
H404   H     0.55255   0.71304   0.08659   0.00000  Uiso   1.00
H405   H     0.61471   0.88450   0.22321   0.00000  Uiso   1.00
O406   O     0.40018   0.86646   0.07304   0.00000  Uiso   1.00
O407   O     0.55431   0.68668   0.76664   0.00000  Uiso   1.00
O408   O     0.63586   0.91164   0.94588   0.00000  Uiso   1.00
N409   N     0.43537   0.85666   0.88007   0.00000  Uiso   1.00
N410   N     0.54520   0.72854   0.66173   0.00000  Uiso   1.00
N411   N     0.60332   0.88884   0.78945   0.00000  Uiso   1.00
N412   N     0.43967   0.85050   0.18296   0.00000  Uiso   1.00
N413   N     0.54951   0.72238   0.96462   0.00000  Uiso   1.00
N414   N     0.60762   0.88268   0.09233   0.00000  Uiso   1.00
C415   C     0.02758   0.32524   0.25044   0.00000  Uiso   1.00
C416   C     0.00322   0.33240   0.36019   0.00000  Uiso   1.00
C417   C     0.98034   0.34185   0.28375   0.00000  Uiso   1.00
C418   C     0.96028   0.34722   0.40776   0.00000  Uiso   1.00
C419   C     0.92204   0.35892   0.54873   0.00000  Uiso   1.00
C420   C     0.03349   0.29708   0.30002   0.00000  Uiso   1.00
C421   C     0.03606   0.27684   0.17297   0.00000  Uiso   1.00
C422   C     0.04148   0.25250   0.24634   0.00000  Uiso   1.00
C423   C     0.05024   0.20938   0.29388   0.00000  Uiso   1.00
C424   C     0.04950   0.34126   0.33522   0.00000  Uiso   1.00
C425   C     0.06554   0.35817   0.23776   0.00000  Uiso   1.00
C426   C     0.08445   0.37101   0.34077   0.00000  Uiso   1.00
C427   C     0.11807   0.39649   0.44295   0.00000  Uiso   1.00
C428   C     0.03264   0.31799   0.60664   0.00000  Uiso   1.00
C429   C     0.00597   0.32846   0.55366   0.00000  Uiso   1.00
C430   C     0.98594   0.33382   0.67783   0.00000  Uiso   1.00
C431   C     0.96303   0.34328   0.60158   0.00000  Uiso   1.00
C432   C     0.03623   0.29314   0.49348   0.00000  Uiso   1.00
C433   C     0.04166   0.26882   0.56705   0.00000  Uiso   1.00
C434   C     0.04423   0.24855   0.44016   0.00000  Uiso   1.00
C435   C     0.05225   0.33733   0.52869   0.00000  Uiso   1.00
C436   C     0.07114   0.35015   0.63185   0.00000  Uiso   1.00
C437   C     0.08720   0.36707   0.53458   0.00000  Uiso   1.00
H438   H     0.02544   0.32830   0.09982   0.00000  Uiso   1.00
H439   H     0.97822   0.34489   0.13401   0.00000  Uiso   1.00
H440   H     0.03393   0.27990   0.02326   0.00000  Uiso   1.00
H441   H     0.06341   0.36121   0.08805   0.00000  Uiso   1.00
H442   H     0.92708   0.36153   0.25723   0.00000  Uiso   1.00
H443   H     0.04456   0.22450   0.02370   0.00000  Uiso   1.00
H444   H     0.10671   0.39596   0.16032   0.00000  Uiso   1.00
H445   H     0.03478   0.31492   0.75727   0.00000  Uiso   1.00
H446   H     0.98807   0.33077   0.82754   0.00000  Uiso   1.00
H447   H     0.04378   0.26578   0.71678   0.00000  Uiso   1.00
H448   H     0.07326   0.34709   0.78157   0.00000  Uiso   1.00
H449   H     0.93507   0.35007   0.82012   0.00000  Uiso   1.00
H450   H     0.05255   0.21304   0.58659   0.00000  Uiso   1.00
H451   H     0.11471   0.38450   0.72321   0.00000  Uiso   1.00
O452   O     0.90018   0.36646   0.57304   0.00000  Uiso   1.00
O453   O     0.05431   0.18668   0.26664   0.00000  Uiso   1.00
O454   O     0.13586   0.41164   0.44588   0.00000  Uiso   1.00
N455   N     0.93537   0.35666   0.38007   0.00000  Uiso   1.00
N456   N     0.04520   0.22854   0.16173   0.00000  Uiso   1.00
N457   N     0.10332   0.38884   0.28945   0.00000  Uiso   1.00
N458   N     0.93967   0.35050   0.68296   0.00000  Uiso   1.00
N459   N     0.04951   0.22238   0.46462   0.00000  Uiso   1.00
N460   N     0.10762   0.38268   0.59233   0.00000  Uiso   1.00
C461   C     0.97242   0.67476   0.25044   0.00000  Uiso   1.00
C462   C     0.99678   0.66760   0.36019   0.00000  Uiso   1.00
C463   C     0.01966   0.65815   0.28375   0.00000  Uiso   1.00
C464   C     0.03972   0.65278   0.40776   0.00000  Uiso   1.00
C465   C     0.07796   0.64108   0.54873   0.00000  Uiso   1.00
C466   C     0.96651   0.70292   0.30002   0.00000  Uiso   1.00
C467   C     0.96394   0.72316   0.17297   0.00000  Uiso   1.00
C468   C     0.95852   0.74750   0.24634   0.00000  Uiso   1.00
C469   C     0.94976   0.79062   0.29388   0.00000  Uiso   1.00
C470   C     0.95050   0.65874   0.33522   0.00000  Uiso   1.00
C471   C     0.93446   0.64183   0.23776   0.00000  Uiso   1.00
C472   C     0.91555   0.62899   0.34077   0.00000  Uiso   1.00
C473   C     0.88193   0.60351   0.44295   0.00000  Uiso   1.00
C474   C     0.96736   0.68201   0.60664   0.00000  Uiso   1.00
C475   C     0.99403   0.67154   0.55366   0.00000  Uiso   1.00
C476   C     0.01406   0.66618   0.67783   0.00000  Uiso   1.00
C477   C     0.03697   0.65672   0.60158   0.00000  Uiso   1.00
C478   C     0.96377   0.70686   0.49348   0.00000  Uiso   1.00
C479   C     0.95834   0.73118   0.56705   0.00000  Uiso   1.00
C480   C     0.95577   0.75145   0.44016   0.00000  Uiso   1.00
C481   C     0.94775   0.66267   0.52869   0.00000  Uiso   1.00
C482   C     0.92886   0.64985   0.63185   0.00000  Uiso   1.00
C483   C     0.91280   0.63293   0.53458   0.00000  Uiso   1.00
H484   H     0.97456   0.67170   0.09982   0.00000  Uiso   1.00
H485   H     0.02178   0.65511   0.13401   0.00000  Uiso   1.00
H486   H     0.96607   0.72010   0.02326   0.00000  Uiso   1.00
H487   H     0.93659   0.63879   0.08805   0.00000  Uiso   1.00
H488   H     0.07292   0.63847   0.25723   0.00000  Uiso   1.00
H489   H     0.95544   0.77550   0.02370   0.00000  Uiso   1.00
H490   H     0.89329   0.60404   0.16032   0.00000  Uiso   1.00
H491   H     0.96522   0.68508   0.75727   0.00000  Uiso   1.00
H492   H     0.01193   0.66923   0.82754   0.00000  Uiso   1.00
H493   H     0.95622   0.73422   0.71678   0.00000  Uiso   1.00
H494   H     0.92674   0.65291   0.78157   0.00000  Uiso   1.00
H495   H     0.06493   0.64993   0.82012   0.00000  Uiso   1.00
H496   H     0.94745   0.78696   0.58659   0.00000  Uiso   1.00
H497   H     0.88529   0.61550   0.72321   0.00000  Uiso   1.00
O498   O     0.09982   0.63354   0.57304   0.00000  Uiso   1.00
O499   O     0.94569   0.81332   0.26664   0.00000  Uiso   1.00
O500   O     0.86414   0.58836   0.44588   0.00000  Uiso   1.00
N501   N     0.06463   0.64334   0.38007   0.00000  Uiso   1.00
N502   N     0.95480   0.77146   0.16173   0.00000  Uiso   1.00
N503   N     0.89668   0.61116   0.28945   0.00000  Uiso   1.00
N504   N     0.06033   0.64950   0.68296   0.00000  Uiso   1.00
N505   N     0.95049   0.77762   0.46462   0.00000  Uiso   1.00
N506   N     0.89238   0.61732   0.59233   0.00000  Uiso   1.00
C507   C     0.47242   0.17476   0.75044   0.00000  Uiso   1.00
C508   C     0.49678   0.16760   0.86019   0.00000  Uiso   1.00
C509   C     0.51966   0.15815   0.78375   0.00000  Uiso   1.00
C510   C     0.53972   0.15278   0.90776   0.00000  Uiso   1.00
C511   C     0.57796   0.14108   0.04873   0.00000  Uiso   1.00
C512   C     0.46651   0.20292   0.80002   0.00000  Uiso   1.00
C513   C     0.46394   0.22316   0.67297   0.00000  Uiso   1.00
C514   C     0.45852   0.24750   0.74634   0.00000  Uiso   1.00
C515   C     0.44976   0.29062   0.79388   0.00000  Uiso   1.00
C516   C     0.45050   0.15874   0.83522   0.00000  Uiso   1.00
C517   C     0.43446   0.14183   0.73776   0.00000  Uiso   1.00
C518   C     0.41555   0.12899   0.84077   0.00000  Uiso   1.00
C519   C     0.38193   0.10351   0.94295   0.00000  Uiso   1.00
C520   C     0.46736   0.18201   0.10664   0.00000  Uiso   1.00
C521   C     0.49403   0.17154   0.05366   0.00000  Uiso   1.00
C522   C     0.51406   0.16618   0.17783   0.00000  Uiso   1.00
C523   C     0.53697   0.15672   0.10158   0.00000  Uiso   1.00
C524   C     0.46377   0.20686   0.99348   0.00000  Uiso   1.00
C525   C     0.45834   0.23118   0.06705   0.00000  Uiso   1.00
C526   C     0.45577   0.25145   0.94016   0.00000  Uiso   1.00
C527   C     0.44775   0.16267   0.02869   0.00000  Uiso   1.00
C528   C     0.42886   0.14985   0.13185   0.00000  Uiso   1.00
C529   C     0.41280   0.13293   0.03458   0.00000  Uiso   1.00
H530   H     0.47456   0.17170   0.59982   0.00000  Uiso   1.00
H531   H     0.52178   0.15511   0.63401   0.00000  Uiso   1.00
H532   H     0.46607   0.22010   0.52326   0.00000  Uiso   1.00
H533   H     0.43659   0.13879   0.58805   0.00000  Uiso   1.00
H534   H     0.57292   0.13847   0.75723   0.00000  Uiso   1.00
H535   H     0.45544   0.27550   0.52370   0.00000  Uiso   1.00
H536   H     0.39329   0.10404   0.66032   0.00000  Uiso   1.00
H537   H     0.46522   0.18508   0.25727   0.00000  Uiso   1.00
H538   H     0.51193   0.16923   0.32754   0.00000  Uiso   1.00
H539   H     0.45622   0.23422   0.21678   0.00000  Uiso   1.00
H540   H     0.42674   0.15291   0.28157   0.00000  Uiso   1.00
H541   H     0.56493   0.14993   0.32012   0.00000  Uiso   1.00
H542   H     0.44745   0.28696   0.08659   0.00000  Uiso   1.00
H543   H     0.38529   0.11550   0.22321   0.00000  Uiso   1.00
O544   O     0.59982   0.13354   0.07304   0.00000  Uiso   1.00
O545   O     0.44569   0.31332   0.76664   0.00000  Uiso   1.00
O546   O     0.36414   0.08836   0.94588   0.00000  Uiso   1.00
N547   N     0.56463   0.14334   0.88007   0.00000  Uiso   1.00
N548   N     0.45480   0.27146   0.66173   0.00000  Uiso   1.00
N549   N     0.39668   0.11116   0.78945   0.00000  Uiso   1.00
N550   N     0.56033   0.14950   0.18296   0.00000  Uiso   1.00
N551   N     0.45049   0.27762   0.96462   0.00000  Uiso   1.00
N552   N     0.39238   0.11732   0.09233   0.00000  Uiso   1.00
C553   C     0.67476   0.52758   0.50044   0.00000  Uiso   1.00
C554   C     0.66760   0.50322   0.61019   0.00000  Uiso   1.00
C555   C     0.65815   0.48034   0.53375   0.00000  Uiso   1.00
C556   C     0.65278   0.46028   0.65776   0.00000  Uiso   1.00
C557   C     0.64108   0.42204   0.79873   0.00000  Uiso   1.00
C558   C     0.70292   0.53349   0.55002   0.00000  Uiso   1.00
C559   C     0.72316   0.53606   0.42297   0.00000  Uiso   1.00
C560   C     0.74750   0.54148   0.49634   0.00000  Uiso   1.00
C561   C     0.79062   0.55024   0.54388   0.00000  Uiso   1.00
C562   C     0.65874   0.54950   0.58522   0.00000  Uiso   1.00
C563   C     0.64183   0.56554   0.48776   0.00000  Uiso   1.00
C564   C     0.62899   0.58445   0.59077   0.00000  Uiso   1.00
C565   C     0.60351   0.61807   0.69295   0.00000  Uiso   1.00
C566   C     0.68201   0.53264   0.85664   0.00000  Uiso   1.00
C567   C     0.67154   0.50597   0.80366   0.00000  Uiso   1.00
C568   C     0.66618   0.48594   0.92783   0.00000  Uiso   1.00
C569   C     0.65672   0.46303   0.85158   0.00000  Uiso   1.00
C570   C     0.70686   0.53623   0.74348   0.00000  Uiso   1.00
C571   C     0.73118   0.54166   0.81705   0.00000  Uiso   1.00
C572   C     0.75145   0.54423   0.69016   0.00000  Uiso   1.00
C573   C     0.66267   0.55225   0.77869   0.00000  Uiso   1.00
C574   C     0.64985   0.57114   0.88185   0.00000  Uiso   1.00
C575   C     0.63293   0.58720   0.78458   0.00000  Uiso   1.00
H576   H     0.67170   0.52544   0.34982   0.00000  Uiso   1.00
H577   H     0.65511   0.47822   0.38401   0.00000  Uiso   1.00
H578   H     0.72010   0.53393   0.27326   0.00000  Uiso   1.00
H579   H     0.63879   0.56341   0.33805   0.00000  Uiso   1.00
H580   H     0.63847   0.42708   0.50723   0.00000  Uiso   1.00
H581   H     0.77550   0.54456   0.27370   0.00000  Uiso   1.00
H582   H     0.60404   0.60671   0.41032   0.00000  Uiso   1.00
H583   H     0.68508   0.53478   0.00727   0.00000  Uiso   1.00
H584   H     0.66923   0.48807   0.07754   0.00000  Uiso   1.00
H585   H     0.73422   0.54378   0.96678   0.00000  Uiso   1.00
H586   H     0.65291   0.57326   0.03157   0.00000  Uiso   1.00
H587   H     0.64993   0.43507   0.07012   0.00000  Uiso   1.00
H588   H     0.78696   0.55255   0.83659   0.00000  Uiso   1.00
H589   H     0.61550   0.61471   0.97321   0.00000  Uiso   1.00
O590   O     0.63354   0.40018   0.82304   0.00000  Uiso   1.00
O591   O     0.81332   0.55431   0.51664   0.00000  Uiso   1.00
O592   O     0.58836   0.63586   0.69588   0.00000  Uiso   1.00
N593   N     0.64334   0.43537   0.63007   0.00000  Uiso   1.00
N594   N     0.77146   0.54520   0.41173   0.00000  Uiso   1.00
N595   N     0.61116   0.60332   0.53945   0.00000  Uiso   1.00
N596   N     0.64950   0.43967   0.93296   0.00000  Uiso   1.00
N597   N     0.77762   0.54951   0.71462   0.00000  Uiso   1.00
N598   N     0.61732   0.60762   0.84233   0.00000  Uiso   1.00
C599   C     0.17476   0.02758   0.00044   0.00000  Uiso   1.00
C600   C     0.16760   0.00322   0.11019   0.00000  Uiso   1.00
C601   C     0.15815   0.98034   0.03375   0.00000  Uiso   1.00
C602   C     0.15278   0.96028   0.15776   0.00000  Uiso   1.00
C603   C     0.14108   0.92204   0.29873   0.00000  Uiso   1.00
C604   C     0.20292   0.03349   0.05002   0.00000  Uiso   1.00
C605   C     0.22316   0.03606   0.92297   0.00000  Uiso   1.00
C606   C     0.24750   0.04148   0.99634   0.00000  Uiso   1.00
C607   C     0.29062   0.05024   0.04388   0.00000  Uiso   1.00
C608   C     0.15874   0.04950   0.08522   0.00000  Uiso   1.00
C609   C     0.14183   0.06554   0.98776   0.00000  Uiso   1.00
C610   C     0.12899   0.08445   0.09077   0.00000  Uiso   1.00
C611   C     0.10351   0.11807   0.19295   0.00000  Uiso   1.00
C612   C     0.18201   0.03264   0.35664   0.00000  Uiso   1.00
C613   C     0.17154   0.00597   0.30366   0.00000  Uiso   1.00
C614   C     0.16618   0.98594   0.42783   0.00000  Uiso   1.00
C615   C     0.15672   0.96303   0.35158   0.00000  Uiso   1.00
C616   C     0.20686   0.03623   0.24348   0.00000  Uiso   1.00
C617   C     0.23118   0.04166   0.31705   0.00000  Uiso   1.00
C618   C     0.25145   0.04423   0.19016   0.00000  Uiso   1.00
C619   C     0.16267   0.05225   0.27869   0.00000  Uiso   1.00
C620   C     0.14985   0.07114   0.38185   0.00000  Uiso   1.00
C621   C     0.13293   0.08720   0.28458   0.00000  Uiso   1.00
H622   H     0.17170   0.02544   0.84982   0.00000  Uiso   1.00
H623   H     0.15511   0.97822   0.88401   0.00000  Uiso   1.00
H624   H     0.22010   0.03393   0.77326   0.00000  Uiso   1.00
H625   H     0.13879   0.06341   0.83805   0.00000  Uiso   1.00
H626   H     0.13847   0.92708   0.00723   0.00000  Uiso   1.00
H627   H     0.27550   0.04456   0.77370   0.00000  Uiso   1.00
H628   H     0.10404   0.10671   0.91032   0.00000  Uiso   1.00
H629   H     0.18508   0.03478   0.50727   0.00000  Uiso   1.00
H630   H     0.16923   0.98807   0.57754   0.00000  Uiso   1.00
H631   H     0.23422   0.04378   0.46678   0.00000  Uiso   1.00
H632   H     0.15291   0.07326   0.53157   0.00000  Uiso   1.00
H633   H     0.14993   0.93507   0.57012   0.00000  Uiso   1.00
H634   H     0.28696   0.05255   0.33659   0.00000  Uiso   1.00
H635   H     0.11550   0.11471   0.47321   0.00000  Uiso   1.00
O636   O     0.13354   0.90018   0.32304   0.00000  Uiso   1.00
O637   O     0.31332   0.05431   0.01664   0.00000  Uiso   1.00
O638   O     0.08836   0.13586   0.19588   0.00000  Uiso   1.00
N639   N     0.14334   0.93537   0.13007   0.00000  Uiso   1.00
N640   N     0.27146   0.04520   0.91173   0.00000  Uiso   1.00
N641   N     0.11116   0.10332   0.03945   0.00000  Uiso   1.00
N642   N     0.14950   0.93967   0.43296   0.00000  Uiso   1.00
N643   N     0.27762   0.04951   0.21462   0.00000  Uiso   1.00
N644   N     0.11732   0.10762   0.34233   0.00000  Uiso   1.00
C645   C     0.82524   0.97242   0.00044   0.00000  Uiso   1.00
C646   C     0.83240   0.99678   0.11019   0.00000  Uiso   1.00
C647   C     0.84185   0.01966   0.03375   0.00000  Uiso   1.00
C648   C     0.84722   0.03972   0.15776   0.00000  Uiso   1.00
C649   C     0.85892   0.07796   0.29873   0.00000  Uiso   1.00
C650   C     0.79708   0.96651   0.05002   0.00000  Uiso   1.00
C651   C     0.77684   0.96394   0.92297   0.00000  Uiso   1.00
C652   C     0.75250   0.95852   0.99634   0.00000  Uiso   1.00
C653   C     0.70938   0.94976   0.04388   0.00000  Uiso   1.00
C654   C     0.84126   0.95050   0.08522   0.00000  Uiso   1.00
C655   C     0.85817   0.93446   0.98776   0.00000  Uiso   1.00
C656   C     0.87101   0.91555   0.09077   0.00000  Uiso   1.00
C657   C     0.89649   0.88193   0.19295   0.00000  Uiso   1.00
C658   C     0.81799   0.96736   0.35664   0.00000  Uiso   1.00
C659   C     0.82846   0.99403   0.30366   0.00000  Uiso   1.00
C660   C     0.83382   0.01406   0.42783   0.00000  Uiso   1.00
C661   C     0.84328   0.03697   0.35158   0.00000  Uiso   1.00
C662   C     0.79314   0.96377   0.24348   0.00000  Uiso   1.00
C663   C     0.76882   0.95834   0.31705   0.00000  Uiso   1.00
C664   C     0.74855   0.95577   0.19016   0.00000  Uiso   1.00
C665   C     0.83733   0.94775   0.27869   0.00000  Uiso   1.00
C666   C     0.85015   0.92886   0.38185   0.00000  Uiso   1.00
C667   C     0.86707   0.91280   0.28458   0.00000  Uiso   1.00
H668   H     0.82830   0.97456   0.84982   0.00000  Uiso   1.00
H669   H     0.84489   0.02178   0.88401   0.00000  Uiso   1.00
H670   H     0.77990   0.96607   0.77326   0.00000  Uiso   1.00
H671   H     0.86121   0.93659   0.83805   0.00000  Uiso   1.00
H672   H     0.86153   0.07292   0.00723   0.00000  Uiso   1.00
H673   H     0.72450   0.95544   0.77370   0.00000  Uiso   1.00
H674   H     0.89596   0.89329   0.91032   0.00000  Uiso   1.00
H675   H     0.81492   0.96522   0.50727   0.00000  Uiso   1.00
H676   H     0.83077   0.01193   0.57754   0.00000  Uiso   1.00
H677   H     0.76578   0.95622   0.46678   0.00000  Uiso   1.00
H678   H     0.84709   0.92674   0.53157   0.00000  Uiso   1.00
H679   H     0.85007   0.06493   0.57012   0.00000  Uiso   1.00
H680   H     0.71304   0.94745   0.33659   0.00000  Uiso   1.00
H681   H     0.88450   0.88529   0.47321   0.00000  Uiso   1.00
O682   O     0.86646   0.09982   0.32304   0.00000  Uiso   1.00
O683   O     0.68668   0.94569   0.01664   0.00000  Uiso   1.00
O684   O     0.91164   0.86414   0.19588   0.00000  Uiso   1.00
N685   N     0.85666   0.06463   0.13007   0.00000  Uiso   1.00
N686   N     0.72854   0.95480   0.91173   0.00000  Uiso   1.00
N687   N     0.88884   0.89668   0.03945   0.00000  Uiso   1.00
N688   N     0.85050   0.06033   0.43296   0.00000  Uiso   1.00
N689   N     0.72238   0.95049   0.21462   0.00000  Uiso   1.00
N690   N     0.88268   0.89238   0.34233   0.00000  Uiso   1.00
C691   C     0.32524   0.47242   0.50044   0.00000  Uiso   1.00
C692   C     0.33240   0.49678   0.61019   0.00000  Uiso   1.00
C693   C     0.34185   0.51966   0.53375   0.00000  Uiso   1.00
C694   C     0.34722   0.53972   0.65776   0.00000  Uiso   1.00
C695   C     0.35892   0.57796   0.79873   0.00000  Uiso   1.00
C696   C     0.29708   0.46651   0.55002   0.00000  Uiso   1.00
C697   C     0.27684   0.46394   0.42297   0.00000  Uiso   1.00
C698   C     0.25250   0.45852   0.49634   0.00000  Uiso   1.00
C699   C     0.20938   0.44976   0.54388   0.00000  Uiso   1.00
C700   C     0.34126   0.45050   0.58522   0.00000  Uiso   1.00
C701   C     0.35817   0.43446   0.48776   0.00000  Uiso   1.00
C702   C     0.37101   0.41555   0.59077   0.00000  Uiso   1.00
C703   C     0.39649   0.38193   0.69295   0.00000  Uiso   1.00
C704   C     0.31799   0.46736   0.85664   0.00000  Uiso   1.00
C705   C     0.32846   0.49403   0.80366   0.00000  Uiso   1.00
C706   C     0.33382   0.51406   0.92783   0.00000  Uiso   1.00
C707   C     0.34328   0.53697   0.85158   0.00000  Uiso   1.00
C708   C     0.29314   0.46377   0.74348   0.00000  Uiso   1.00
C709   C     0.26882   0.45834   0.81705   0.00000  Uiso   1.00
C710   C     0.24855   0.45577   0.69016   0.00000  Uiso   1.00
C711   C     0.33733   0.44775   0.77869   0.00000  Uiso   1.00
C712   C     0.35015   0.42886   0.88185   0.00000  Uiso   1.00
C713   C     0.36707   0.41280   0.78458   0.00000  Uiso   1.00
H714   H     0.32830   0.47456   0.34982   0.00000  Uiso   1.00
H715   H     0.34489   0.52178   0.38401   0.00000  Uiso   1.00
H716   H     0.27990   0.46607   0.27326   0.00000  Uiso   1.00
H717   H     0.36121   0.43659   0.33805   0.00000  Uiso   1.00
H718   H     0.36153   0.57292   0.50723   0.00000  Uiso   1.00
H719   H     0.22450   0.45544   0.27370   0.00000  Uiso   1.00
H720   H     0.39596   0.39329   0.41032   0.00000  Uiso   1.00
H721   H     0.31492   0.46522   0.00727   0.00000  Uiso   1.00
H722   H     0.33077   0.51193   0.07754   0.00000  Uiso   1.00
H723   H     0.26578   0.45622   0.96678   0.00000  Uiso   1.00
H724   H     0.34709   0.42674   0.03157   0.00000  Uiso   1.00
H725   H     0.35007   0.56493   0.07012   0.00000  Uiso   1.00
H726   H     0.21304   0.44745   0.83659   0.00000  Uiso   1.00
H727   H     0.38450   0.38529   0.97321   0.00000  Uiso   1.00
O728   O     0.36646   0.59982   0.82304   0.00000  Uiso   1.00
O729   O     0.18668   0.44569   0.51664   0.00000  Uiso   1.00
O730   O     0.41164   0.36414   0.69588   0.00000  Uiso   1.00
N731   N     0.35666   0.56463   0.63007   0.00000  Uiso   1.00
N732   N     0.22854   0.45480   0.41173   0.00000  Uiso   1.00
N733   N     0.38884   0.39668   0.53945   0.00000  Uiso   1.00
N734   N     0.35050   0.56033   0.93296   0.00000  Uiso   1.00
N735   N     0.22238   0.45049   0.71462   0.00000  Uiso   1.00
N736   N     0.38268   0.39238   0.84233   0.00000  Uiso   1.00
