data_job_05067
_audit_creation_date              2018-12-19
_audit_creation_method            'Materials Studio'
_symmetry_space_group_name_H-M    'P1'
_symmetry_Int_Tables_number       1
_symmetry_cell_setting            triclinic
loop_
_symmetry_equiv_pos_as_xyz
  x,y,z
_cell_length_a                    42.8698
_cell_length_b                    14.2528
_cell_length_c                    15.0269
_cell_angle_alpha                 90.0000
_cell_angle_beta                  90.0000
_cell_angle_gamma                 90.0000
loop_
_atom_site_label
_atom_site_type_symbol
_atom_site_fract_x
_atom_site_fract_y
_atom_site_fract_z
_atom_site_U_iso_or_equiv
_atom_site_adp_type
_atom_site_occupancy
C1     C     0.26012   0.50708   0.68241   0.00000  Uiso   1.00
C2     C     0.28502   0.57919   0.70636   0.00000  Uiso   1.00
C3     C     0.29182   0.65997   0.65858   0.00000  Uiso   1.00
C4     C     0.31544   0.71689   0.69146   0.00000  Uiso   1.00
C5     C     0.35165   0.83236   0.71678   0.00000  Uiso   1.00
C6     C     0.27696   0.41311   0.67569   0.00000  Uiso   1.00
C7     C     0.27698   0.35424   0.60212   0.00000  Uiso   1.00
C8     C     0.29381   0.27134   0.60920   0.00000  Uiso   1.00
C9     C     0.31748   0.12892   0.58692   0.00000  Uiso   1.00
C10    C     0.23884   0.49978   0.76343   0.00000  Uiso   1.00
C11    C     0.20681   0.51376   0.76364   0.00000  Uiso   1.00
C12    C     0.19154   0.50382   0.84459   0.00000  Uiso   1.00
C13    C     0.15603   0.49598   0.95854   0.00000  Uiso   1.00
C14    C     0.28998   0.46454   0.82579   0.00000  Uiso   1.00
C15    C     0.30124   0.55608   0.78424   0.00000  Uiso   1.00
C16    C     0.32485   0.61290   0.81721   0.00000  Uiso   1.00
C17    C     0.33168   0.69375   0.76948   0.00000  Uiso   1.00
C18    C     0.29318   0.39000   0.75356   0.00000  Uiso   1.00
C19    C     0.31001   0.30717   0.76075   0.00000  Uiso   1.00
C20    C     0.31006   0.24819   0.68721   0.00000  Uiso   1.00
C21    C     0.25506   0.47668   0.84131   0.00000  Uiso   1.00
C22    C     0.23984   0.46670   0.92227   0.00000  Uiso   1.00
C23    C     0.20779   0.48067   0.92260   0.00000  Uiso   1.00
H24    H     0.24750   0.52507   0.62178   0.00000  Uiso   1.00
H25    H     0.27927   0.67782   0.59831   0.00000  Uiso   1.00
H26    H     0.26442   0.37213   0.54187   0.00000  Uiso   1.00
H27    H     0.19426   0.53164   0.70337   0.00000  Uiso   1.00
H28    H     0.32165   0.83698   0.60662   0.00000  Uiso   1.00
H29    H     0.29034   0.19240   0.48762   0.00000  Uiso   1.00
H30    H     0.14240   0.52875   0.82816   0.00000  Uiso   1.00
H31    H     0.30261   0.44654   0.88642   0.00000  Uiso   1.00
H32    H     0.33740   0.59500   0.87747   0.00000  Uiso   1.00
H33    H     0.32256   0.28931   0.82102   0.00000  Uiso   1.00
H34    H     0.25240   0.44881   0.98252   0.00000  Uiso   1.00
H35    H     0.36883   0.76975   0.83319   0.00000  Uiso   1.00
H36    H     0.33753   0.12517   0.71419   0.00000  Uiso   1.00
H37    H     0.18958   0.46152   0.05473   0.00000  Uiso   1.00
O38    O     0.36714   0.90242   0.70922   0.00000  Uiso   1.00
O39    O     0.32607   0.05675   0.55311   0.00000  Uiso   1.00
O40    O     0.13196   0.49804   0.99989   0.00000  Uiso   1.00
N41    N     0.32797   0.80079   0.66118   0.00000  Uiso   1.00
N42    N     0.29871   0.19815   0.54991   0.00000  Uiso   1.00
N43    N     0.16039   0.51259   0.86829   0.00000  Uiso   1.00
N44    N     0.35336   0.76462   0.78309   0.00000  Uiso   1.00
N45    N     0.32410   0.16198   0.67183   0.00000  Uiso   1.00
N46    N     0.18578   0.47642   0.99020   0.00000  Uiso   1.00
C47    C     0.26012   0.00708   0.18241   0.00000  Uiso   1.00
C48    C     0.28502   0.07919   0.20636   0.00000  Uiso   1.00
C49    C     0.29182   0.15997   0.15858   0.00000  Uiso   1.00
C50    C     0.31544   0.21689   0.19146   0.00000  Uiso   1.00
C51    C     0.35165   0.33236   0.21678   0.00000  Uiso   1.00
C52    C     0.27696   0.91311   0.17569   0.00000  Uiso   1.00
C53    C     0.27698   0.85424   0.10212   0.00000  Uiso   1.00
C54    C     0.29381   0.77134   0.10920   0.00000  Uiso   1.00
C55    C     0.31748   0.62892   0.08692   0.00000  Uiso   1.00
C56    C     0.23884   0.99978   0.26343   0.00000  Uiso   1.00
C57    C     0.20681   0.01376   0.26364   0.00000  Uiso   1.00
C58    C     0.19154   0.00382   0.34459   0.00000  Uiso   1.00
C59    C     0.15603   0.99598   0.45854   0.00000  Uiso   1.00
C60    C     0.28998   0.96454   0.32579   0.00000  Uiso   1.00
C61    C     0.30124   0.05608   0.28424   0.00000  Uiso   1.00
C62    C     0.32485   0.11290   0.31721   0.00000  Uiso   1.00
C63    C     0.33168   0.19375   0.26948   0.00000  Uiso   1.00
C64    C     0.29318   0.89000   0.25356   0.00000  Uiso   1.00
C65    C     0.31001   0.80717   0.26075   0.00000  Uiso   1.00
C66    C     0.31006   0.74819   0.18721   0.00000  Uiso   1.00
C67    C     0.25506   0.97668   0.34131   0.00000  Uiso   1.00
C68    C     0.23984   0.96670   0.42227   0.00000  Uiso   1.00
C69    C     0.20779   0.98067   0.42260   0.00000  Uiso   1.00
H70    H     0.24750   0.02507   0.12178   0.00000  Uiso   1.00
H71    H     0.27927   0.17782   0.09831   0.00000  Uiso   1.00
H72    H     0.26442   0.87213   0.04187   0.00000  Uiso   1.00
H73    H     0.19426   0.03164   0.20337   0.00000  Uiso   1.00
H74    H     0.32165   0.33698   0.10662   0.00000  Uiso   1.00
H75    H     0.29034   0.69240   0.98762   0.00000  Uiso   1.00
H76    H     0.14240   0.02875   0.32816   0.00000  Uiso   1.00
H77    H     0.30261   0.94654   0.38642   0.00000  Uiso   1.00
H78    H     0.33740   0.09500   0.37747   0.00000  Uiso   1.00
H79    H     0.32256   0.78931   0.32102   0.00000  Uiso   1.00
H80    H     0.25240   0.94881   0.48252   0.00000  Uiso   1.00
H81    H     0.36883   0.26975   0.33319   0.00000  Uiso   1.00
H82    H     0.33753   0.62517   0.21419   0.00000  Uiso   1.00
H83    H     0.18958   0.96152   0.55473   0.00000  Uiso   1.00
O84    O     0.36714   0.40242   0.20922   0.00000  Uiso   1.00
O85    O     0.32607   0.55675   0.05311   0.00000  Uiso   1.00
O86    O     0.13196   0.99804   0.49989   0.00000  Uiso   1.00
N87    N     0.32797   0.30079   0.16118   0.00000  Uiso   1.00
N88    N     0.29871   0.69815   0.04991   0.00000  Uiso   1.00
N89    N     0.16039   0.01259   0.36829   0.00000  Uiso   1.00
N90    N     0.35336   0.26462   0.28309   0.00000  Uiso   1.00
N91    N     0.32410   0.66198   0.17183   0.00000  Uiso   1.00
N92    N     0.18578   0.97642   0.49020   0.00000  Uiso   1.00
C93    C     0.76012   0.50708   0.18241   0.00000  Uiso   1.00
C94    C     0.78502   0.57919   0.20636   0.00000  Uiso   1.00
C95    C     0.79182   0.65997   0.15858   0.00000  Uiso   1.00
C96    C     0.81544   0.71689   0.19146   0.00000  Uiso   1.00
C97    C     0.85165   0.83236   0.21678   0.00000  Uiso   1.00
C98    C     0.77696   0.41311   0.17569   0.00000  Uiso   1.00
C99    C     0.77698   0.35424   0.10212   0.00000  Uiso   1.00
C100   C     0.79381   0.27134   0.10920   0.00000  Uiso   1.00
C101   C     0.81748   0.12892   0.08692   0.00000  Uiso   1.00
C102   C     0.73884   0.49978   0.26343   0.00000  Uiso   1.00
C103   C     0.70681   0.51376   0.26364   0.00000  Uiso   1.00
C104   C     0.69154   0.50382   0.34459   0.00000  Uiso   1.00
C105   C     0.65603   0.49598   0.45854   0.00000  Uiso   1.00
C106   C     0.78998   0.46454   0.32579   0.00000  Uiso   1.00
C107   C     0.80124   0.55608   0.28424   0.00000  Uiso   1.00
C108   C     0.82485   0.61290   0.31721   0.00000  Uiso   1.00
C109   C     0.83168   0.69375   0.26948   0.00000  Uiso   1.00
C110   C     0.79318   0.39000   0.25356   0.00000  Uiso   1.00
C111   C     0.81001   0.30717   0.26075   0.00000  Uiso   1.00
C112   C     0.81006   0.24819   0.18721   0.00000  Uiso   1.00
C113   C     0.75506   0.47668   0.34131   0.00000  Uiso   1.00
C114   C     0.73984   0.46670   0.42227   0.00000  Uiso   1.00
C115   C     0.70779   0.48067   0.42260   0.00000  Uiso   1.00
H116   H     0.74750   0.52507   0.12178   0.00000  Uiso   1.00
H117   H     0.77927   0.67782   0.09831   0.00000  Uiso   1.00
H118   H     0.76442   0.37213   0.04187   0.00000  Uiso   1.00
H119   H     0.69426   0.53164   0.20337   0.00000  Uiso   1.00
H120   H     0.82165   0.83698   0.10662   0.00000  Uiso   1.00
H121   H     0.79034   0.19240   0.98762   0.00000  Uiso   1.00
H122   H     0.64240   0.52875   0.32816   0.00000  Uiso   1.00
H123   H     0.80261   0.44654   0.38642   0.00000  Uiso   1.00
H124   H     0.83740   0.59500   0.37747   0.00000  Uiso   1.00
H125   H     0.82256   0.28931   0.32102   0.00000  Uiso   1.00
H126   H     0.75240   0.44881   0.48252   0.00000  Uiso   1.00
H127   H     0.86883   0.76975   0.33319   0.00000  Uiso   1.00
H128   H     0.83753   0.12517   0.21419   0.00000  Uiso   1.00
H129   H     0.68958   0.46152   0.55473   0.00000  Uiso   1.00
O130   O     0.86714   0.90242   0.20922   0.00000  Uiso   1.00
O131   O     0.82607   0.05675   0.05311   0.00000  Uiso   1.00
O132   O     0.63196   0.49804   0.49989   0.00000  Uiso   1.00
N133   N     0.82797   0.80079   0.16118   0.00000  Uiso   1.00
N134   N     0.79871   0.19815   0.04991   0.00000  Uiso   1.00
N135   N     0.66039   0.51259   0.36829   0.00000  Uiso   1.00
N136   N     0.85336   0.76462   0.28309   0.00000  Uiso   1.00
N137   N     0.82410   0.16198   0.17183   0.00000  Uiso   1.00
N138   N     0.68578   0.47642   0.49020   0.00000  Uiso   1.00
C139   C     0.76012   0.00708   0.68241   0.00000  Uiso   1.00
C140   C     0.78502   0.07919   0.70636   0.00000  Uiso   1.00
C141   C     0.79182   0.15997   0.65858   0.00000  Uiso   1.00
C142   C     0.81544   0.21689   0.69146   0.00000  Uiso   1.00
C143   C     0.85165   0.33236   0.71678   0.00000  Uiso   1.00
C144   C     0.77696   0.91311   0.67569   0.00000  Uiso   1.00
C145   C     0.77698   0.85424   0.60212   0.00000  Uiso   1.00
C146   C     0.79381   0.77134   0.60920   0.00000  Uiso   1.00
C147   C     0.81748   0.62892   0.58692   0.00000  Uiso   1.00
C148   C     0.73884   0.99978   0.76343   0.00000  Uiso   1.00
C149   C     0.70681   0.01376   0.76364   0.00000  Uiso   1.00
C150   C     0.69154   0.00382   0.84459   0.00000  Uiso   1.00
C151   C     0.65603   0.99598   0.95854   0.00000  Uiso   1.00
C152   C     0.78998   0.96454   0.82579   0.00000  Uiso   1.00
C153   C     0.80124   0.05608   0.78424   0.00000  Uiso   1.00
C154   C     0.82485   0.11290   0.81721   0.00000  Uiso   1.00
C155   C     0.83168   0.19375   0.76948   0.00000  Uiso   1.00
C156   C     0.79318   0.89000   0.75356   0.00000  Uiso   1.00
C157   C     0.81001   0.80717   0.76075   0.00000  Uiso   1.00
C158   C     0.81006   0.74819   0.68721   0.00000  Uiso   1.00
C159   C     0.75506   0.97668   0.84131   0.00000  Uiso   1.00
C160   C     0.73984   0.96670   0.92227   0.00000  Uiso   1.00
C161   C     0.70779   0.98067   0.92260   0.00000  Uiso   1.00
H162   H     0.74750   0.02507   0.62178   0.00000  Uiso   1.00
H163   H     0.77927   0.17782   0.59831   0.00000  Uiso   1.00
H164   H     0.76442   0.87213   0.54187   0.00000  Uiso   1.00
H165   H     0.69426   0.03164   0.70337   0.00000  Uiso   1.00
H166   H     0.82165   0.33698   0.60662   0.00000  Uiso   1.00
H167   H     0.79034   0.69240   0.48762   0.00000  Uiso   1.00
H168   H     0.64240   0.02875   0.82816   0.00000  Uiso   1.00
H169   H     0.80261   0.94654   0.88642   0.00000  Uiso   1.00
H170   H     0.83740   0.09500   0.87747   0.00000  Uiso   1.00
H171   H     0.82256   0.78931   0.82102   0.00000  Uiso   1.00
H172   H     0.75240   0.94881   0.98252   0.00000  Uiso   1.00
H173   H     0.86883   0.26975   0.83319   0.00000  Uiso   1.00
H174   H     0.83753   0.62517   0.71419   0.00000  Uiso   1.00
H175   H     0.68958   0.96152   0.05473   0.00000  Uiso   1.00
O176   O     0.86714   0.40242   0.70922   0.00000  Uiso   1.00
O177   O     0.82607   0.55675   0.55311   0.00000  Uiso   1.00
O178   O     0.63196   0.99804   0.99989   0.00000  Uiso   1.00
N179   N     0.82797   0.30079   0.66118   0.00000  Uiso   1.00
N180   N     0.79871   0.69815   0.54991   0.00000  Uiso   1.00
N181   N     0.66039   0.01259   0.86829   0.00000  Uiso   1.00
N182   N     0.85336   0.26462   0.78309   0.00000  Uiso   1.00
N183   N     0.82410   0.66198   0.67183   0.00000  Uiso   1.00
N184   N     0.68578   0.97642   0.99020   0.00000  Uiso   1.00
C185   C     0.73988   0.49292   0.68241   0.00000  Uiso   1.00
C186   C     0.71498   0.42081   0.70636   0.00000  Uiso   1.00
C187   C     0.70818   0.34003   0.65858   0.00000  Uiso   1.00
C188   C     0.68456   0.28311   0.69146   0.00000  Uiso   1.00
C189   C     0.64835   0.16764   0.71678   0.00000  Uiso   1.00
C190   C     0.72304   0.58689   0.67569   0.00000  Uiso   1.00
C191   C     0.72302   0.64576   0.60212   0.00000  Uiso   1.00
C192   C     0.70619   0.72866   0.60920   0.00000  Uiso   1.00
C193   C     0.68252   0.87108   0.58692   0.00000  Uiso   1.00
C194   C     0.76116   0.50022   0.76343   0.00000  Uiso   1.00
C195   C     0.79319   0.48624   0.76364   0.00000  Uiso   1.00
C196   C     0.80846   0.49618   0.84459   0.00000  Uiso   1.00
C197   C     0.84397   0.50402   0.95854   0.00000  Uiso   1.00
C198   C     0.71002   0.53546   0.82579   0.00000  Uiso   1.00
C199   C     0.69876   0.44392   0.78424   0.00000  Uiso   1.00
C200   C     0.67515   0.38710   0.81721   0.00000  Uiso   1.00
C201   C     0.66832   0.30625   0.76948   0.00000  Uiso   1.00
C202   C     0.70682   0.61000   0.75356   0.00000  Uiso   1.00
C203   C     0.68999   0.69283   0.76075   0.00000  Uiso   1.00
C204   C     0.68994   0.75181   0.68721   0.00000  Uiso   1.00
C205   C     0.74494   0.52332   0.84131   0.00000  Uiso   1.00
C206   C     0.76016   0.53330   0.92227   0.00000  Uiso   1.00
C207   C     0.79221   0.51933   0.92260   0.00000  Uiso   1.00
H208   H     0.75250   0.47493   0.62178   0.00000  Uiso   1.00
H209   H     0.72073   0.32218   0.59831   0.00000  Uiso   1.00
H210   H     0.73558   0.62787   0.54187   0.00000  Uiso   1.00
H211   H     0.80574   0.46836   0.70337   0.00000  Uiso   1.00
H212   H     0.67835   0.16302   0.60662   0.00000  Uiso   1.00
H213   H     0.70966   0.80760   0.48762   0.00000  Uiso   1.00
H214   H     0.85760   0.47125   0.82816   0.00000  Uiso   1.00
H215   H     0.69739   0.55346   0.88642   0.00000  Uiso   1.00
H216   H     0.66260   0.40500   0.87747   0.00000  Uiso   1.00
H217   H     0.67744   0.71069   0.82102   0.00000  Uiso   1.00
H218   H     0.74760   0.55119   0.98252   0.00000  Uiso   1.00
H219   H     0.63117   0.23025   0.83319   0.00000  Uiso   1.00
H220   H     0.66247   0.87483   0.71419   0.00000  Uiso   1.00
H221   H     0.81042   0.53848   0.05473   0.00000  Uiso   1.00
O222   O     0.63286   0.09758   0.70922   0.00000  Uiso   1.00
O223   O     0.67393   0.94325   0.55311   0.00000  Uiso   1.00
O224   O     0.86804   0.50196   0.99989   0.00000  Uiso   1.00
N225   N     0.67203   0.19921   0.66118   0.00000  Uiso   1.00
N226   N     0.70129   0.80185   0.54991   0.00000  Uiso   1.00
N227   N     0.83961   0.48741   0.86829   0.00000  Uiso   1.00
N228   N     0.64664   0.23538   0.78309   0.00000  Uiso   1.00
N229   N     0.67590   0.83802   0.67183   0.00000  Uiso   1.00
N230   N     0.81422   0.52358   0.99020   0.00000  Uiso   1.00
C231   C     0.73988   0.99292   0.18241   0.00000  Uiso   1.00
C232   C     0.71498   0.92081   0.20636   0.00000  Uiso   1.00
C233   C     0.70818   0.84003   0.15858   0.00000  Uiso   1.00
C234   C     0.68456   0.78311   0.19146   0.00000  Uiso   1.00
C235   C     0.64835   0.66764   0.21678   0.00000  Uiso   1.00
C236   C     0.72304   0.08689   0.17569   0.00000  Uiso   1.00
C237   C     0.72302   0.14576   0.10212   0.00000  Uiso   1.00
C238   C     0.70619   0.22866   0.10920   0.00000  Uiso   1.00
C239   C     0.68252   0.37108   0.08692   0.00000  Uiso   1.00
C240   C     0.76116   0.00022   0.26343   0.00000  Uiso   1.00
C241   C     0.79319   0.98624   0.26364   0.00000  Uiso   1.00
C242   C     0.80846   0.99618   0.34459   0.00000  Uiso   1.00
C243   C     0.84397   0.00402   0.45854   0.00000  Uiso   1.00
C244   C     0.71002   0.03546   0.32579   0.00000  Uiso   1.00
C245   C     0.69876   0.94392   0.28424   0.00000  Uiso   1.00
C246   C     0.67515   0.88710   0.31721   0.00000  Uiso   1.00
C247   C     0.66832   0.80625   0.26948   0.00000  Uiso   1.00
C248   C     0.70682   0.11000   0.25356   0.00000  Uiso   1.00
C249   C     0.68999   0.19283   0.26075   0.00000  Uiso   1.00
C250   C     0.68994   0.25181   0.18721   0.00000  Uiso   1.00
C251   C     0.74494   0.02332   0.34131   0.00000  Uiso   1.00
C252   C     0.76016   0.03330   0.42227   0.00000  Uiso   1.00
C253   C     0.79221   0.01933   0.42260   0.00000  Uiso   1.00
H254   H     0.75250   0.97493   0.12178   0.00000  Uiso   1.00
H255   H     0.72073   0.82218   0.09831   0.00000  Uiso   1.00
H256   H     0.73558   0.12787   0.04187   0.00000  Uiso   1.00
H257   H     0.80574   0.96836   0.20337   0.00000  Uiso   1.00
H258   H     0.67835   0.66302   0.10662   0.00000  Uiso   1.00
H259   H     0.70966   0.30760   0.98762   0.00000  Uiso   1.00
H260   H     0.85760   0.97125   0.32816   0.00000  Uiso   1.00
H261   H     0.69739   0.05346   0.38642   0.00000  Uiso   1.00
H262   H     0.66260   0.90500   0.37747   0.00000  Uiso   1.00
H263   H     0.67744   0.21069   0.32102   0.00000  Uiso   1.00
H264   H     0.74760   0.05119   0.48252   0.00000  Uiso   1.00
H265   H     0.63117   0.73025   0.33319   0.00000  Uiso   1.00
H266   H     0.66247   0.37483   0.21419   0.00000  Uiso   1.00
H267   H     0.81042   0.03848   0.55473   0.00000  Uiso   1.00
O268   O     0.63286   0.59758   0.20922   0.00000  Uiso   1.00
O269   O     0.67393   0.44325   0.05311   0.00000  Uiso   1.00
O270   O     0.86804   0.00196   0.49989   0.00000  Uiso   1.00
N271   N     0.67203   0.69921   0.16118   0.00000  Uiso   1.00
N272   N     0.70129   0.30185   0.04991   0.00000  Uiso   1.00
N273   N     0.83961   0.98741   0.36829   0.00000  Uiso   1.00
N274   N     0.64664   0.73538   0.28309   0.00000  Uiso   1.00
N275   N     0.67590   0.33802   0.17183   0.00000  Uiso   1.00
N276   N     0.81422   0.02358   0.49020   0.00000  Uiso   1.00
C277   C     0.23988   0.49292   0.18241   0.00000  Uiso   1.00
C278   C     0.21498   0.42081   0.20636   0.00000  Uiso   1.00
C279   C     0.20818   0.34003   0.15858   0.00000  Uiso   1.00
C280   C     0.18456   0.28311   0.19146   0.00000  Uiso   1.00
C281   C     0.14835   0.16764   0.21678   0.00000  Uiso   1.00
C282   C     0.22304   0.58689   0.17569   0.00000  Uiso   1.00
C283   C     0.22302   0.64576   0.10212   0.00000  Uiso   1.00
C284   C     0.20619   0.72866   0.10920   0.00000  Uiso   1.00
C285   C     0.18252   0.87108   0.08692   0.00000  Uiso   1.00
C286   C     0.26116   0.50022   0.26343   0.00000  Uiso   1.00
C287   C     0.29319   0.48624   0.26364   0.00000  Uiso   1.00
C288   C     0.30846   0.49618   0.34459   0.00000  Uiso   1.00
C289   C     0.34397   0.50402   0.45854   0.00000  Uiso   1.00
C290   C     0.21002   0.53546   0.32579   0.00000  Uiso   1.00
C291   C     0.19876   0.44392   0.28424   0.00000  Uiso   1.00
C292   C     0.17515   0.38710   0.31721   0.00000  Uiso   1.00
C293   C     0.16832   0.30625   0.26948   0.00000  Uiso   1.00
C294   C     0.20682   0.61000   0.25356   0.00000  Uiso   1.00
C295   C     0.18999   0.69283   0.26075   0.00000  Uiso   1.00
C296   C     0.18994   0.75181   0.18721   0.00000  Uiso   1.00
C297   C     0.24494   0.52332   0.34131   0.00000  Uiso   1.00
C298   C     0.26016   0.53330   0.42227   0.00000  Uiso   1.00
C299   C     0.29221   0.51933   0.42260   0.00000  Uiso   1.00
H300   H     0.25250   0.47493   0.12178   0.00000  Uiso   1.00
H301   H     0.22073   0.32218   0.09831   0.00000  Uiso   1.00
H302   H     0.23558   0.62787   0.04187   0.00000  Uiso   1.00
H303   H     0.30574   0.46836   0.20337   0.00000  Uiso   1.00
H304   H     0.17835   0.16302   0.10662   0.00000  Uiso   1.00
H305   H     0.20966   0.80760   0.98762   0.00000  Uiso   1.00
H306   H     0.35760   0.47125   0.32816   0.00000  Uiso   1.00
H307   H     0.19739   0.55346   0.38642   0.00000  Uiso   1.00
H308   H     0.16260   0.40500   0.37747   0.00000  Uiso   1.00
H309   H     0.17744   0.71069   0.32102   0.00000  Uiso   1.00
H310   H     0.24760   0.55119   0.48252   0.00000  Uiso   1.00
H311   H     0.13117   0.23025   0.33319   0.00000  Uiso   1.00
H312   H     0.16247   0.87483   0.21419   0.00000  Uiso   1.00
H313   H     0.31042   0.53848   0.55473   0.00000  Uiso   1.00
O314   O     0.13286   0.09758   0.20922   0.00000  Uiso   1.00
O315   O     0.17393   0.94325   0.05311   0.00000  Uiso   1.00
O316   O     0.36804   0.50196   0.49989   0.00000  Uiso   1.00
N317   N     0.17203   0.19921   0.16118   0.00000  Uiso   1.00
N318   N     0.20129   0.80185   0.04991   0.00000  Uiso   1.00
N319   N     0.33961   0.48741   0.36829   0.00000  Uiso   1.00
N320   N     0.14664   0.23538   0.28309   0.00000  Uiso   1.00
N321   N     0.17590   0.83802   0.17183   0.00000  Uiso   1.00
N322   N     0.31422   0.52358   0.49020   0.00000  Uiso   1.00
C323   C     0.23988   0.99292   0.68241   0.00000  Uiso   1.00
C324   C     0.21498   0.92081   0.70636   0.00000  Uiso   1.00
C325   C     0.20818   0.84003   0.65858   0.00000  Uiso   1.00
C326   C     0.18456   0.78311   0.69146   0.00000  Uiso   1.00
C327   C     0.14835   0.66764   0.71678   0.00000  Uiso   1.00
C328   C     0.22304   0.08689   0.67569   0.00000  Uiso   1.00
C329   C     0.22302   0.14576   0.60212   0.00000  Uiso   1.00
C330   C     0.20619   0.22866   0.60920   0.00000  Uiso   1.00
C331   C     0.18252   0.37108   0.58692   0.00000  Uiso   1.00
C332   C     0.26116   0.00022   0.76343   0.00000  Uiso   1.00
C333   C     0.29319   0.98624   0.76364   0.00000  Uiso   1.00
C334   C     0.30846   0.99618   0.84459   0.00000  Uiso   1.00
C335   C     0.34397   0.00402   0.95854   0.00000  Uiso   1.00
C336   C     0.21002   0.03546   0.82579   0.00000  Uiso   1.00
C337   C     0.19876   0.94392   0.78424   0.00000  Uiso   1.00
C338   C     0.17515   0.88710   0.81721   0.00000  Uiso   1.00
C339   C     0.16832   0.80625   0.76948   0.00000  Uiso   1.00
C340   C     0.20682   0.11000   0.75356   0.00000  Uiso   1.00
C341   C     0.18999   0.19283   0.76075   0.00000  Uiso   1.00
C342   C     0.18994   0.25181   0.68721   0.00000  Uiso   1.00
C343   C     0.24494   0.02332   0.84131   0.00000  Uiso   1.00
C344   C     0.26016   0.03330   0.92227   0.00000  Uiso   1.00
C345   C     0.29221   0.01933   0.92260   0.00000  Uiso   1.00
H346   H     0.25250   0.97493   0.62178   0.00000  Uiso   1.00
H347   H     0.22073   0.82218   0.59831   0.00000  Uiso   1.00
H348   H     0.23558   0.12787   0.54187   0.00000  Uiso   1.00
H349   H     0.30574   0.96836   0.70337   0.00000  Uiso   1.00
H350   H     0.17835   0.66302   0.60662   0.00000  Uiso   1.00
H351   H     0.20966   0.30760   0.48762   0.00000  Uiso   1.00
H352   H     0.35760   0.97125   0.82816   0.00000  Uiso   1.00
H353   H     0.19739   0.05346   0.88642   0.00000  Uiso   1.00
H354   H     0.16260   0.90500   0.87747   0.00000  Uiso   1.00
H355   H     0.17744   0.21069   0.82102   0.00000  Uiso   1.00
H356   H     0.24760   0.05119   0.98252   0.00000  Uiso   1.00
H357   H     0.13117   0.73025   0.83319   0.00000  Uiso   1.00
H358   H     0.16247   0.37483   0.71419   0.00000  Uiso   1.00
H359   H     0.31042   0.03848   0.05473   0.00000  Uiso   1.00
O360   O     0.13286   0.59758   0.70922   0.00000  Uiso   1.00
O361   O     0.17393   0.44325   0.55311   0.00000  Uiso   1.00
O362   O     0.36804   0.00196   0.99989   0.00000  Uiso   1.00
N363   N     0.17203   0.69921   0.66118   0.00000  Uiso   1.00
N364   N     0.20129   0.30185   0.54991   0.00000  Uiso   1.00
N365   N     0.33961   0.98741   0.86829   0.00000  Uiso   1.00
N366   N     0.14664   0.73538   0.78309   0.00000  Uiso   1.00
N367   N     0.17590   0.33802   0.67183   0.00000  Uiso   1.00
N368   N     0.31422   0.02358   0.99020   0.00000  Uiso   1.00
C369   C     0.51012   0.74292   0.93241   0.00000  Uiso   1.00
C370   C     0.53502   0.67081   0.95636   0.00000  Uiso   1.00
C371   C     0.54182   0.59003   0.90858   0.00000  Uiso   1.00
C372   C     0.56544   0.53311   0.94146   0.00000  Uiso   1.00
C373   C     0.60165   0.41764   0.96678   0.00000  Uiso   1.00
C374   C     0.52696   0.83689   0.92569   0.00000  Uiso   1.00
C375   C     0.52698   0.89576   0.85212   0.00000  Uiso   1.00
C376   C     0.54381   0.97866   0.85920   0.00000  Uiso   1.00
C377   C     0.56748   0.12108   0.83692   0.00000  Uiso   1.00
C378   C     0.48884   0.75022   0.01343   0.00000  Uiso   1.00
C379   C     0.45681   0.73624   0.01364   0.00000  Uiso   1.00
C380   C     0.44154   0.74618   0.09459   0.00000  Uiso   1.00
C381   C     0.40603   0.75402   0.20854   0.00000  Uiso   1.00
C382   C     0.53998   0.78546   0.07579   0.00000  Uiso   1.00
C383   C     0.55124   0.69392   0.03424   0.00000  Uiso   1.00
C384   C     0.57485   0.63710   0.06721   0.00000  Uiso   1.00
C385   C     0.58168   0.55625   0.01948   0.00000  Uiso   1.00
C386   C     0.54318   0.86000   0.00356   0.00000  Uiso   1.00
C387   C     0.56001   0.94283   0.01075   0.00000  Uiso   1.00
C388   C     0.56006   0.00181   0.93721   0.00000  Uiso   1.00
C389   C     0.50506   0.77332   0.09131   0.00000  Uiso   1.00
C390   C     0.48984   0.78330   0.17227   0.00000  Uiso   1.00
C391   C     0.45779   0.76933   0.17260   0.00000  Uiso   1.00
H392   H     0.49750   0.72493   0.87178   0.00000  Uiso   1.00
H393   H     0.52927   0.57218   0.84831   0.00000  Uiso   1.00
H394   H     0.51442   0.87787   0.79187   0.00000  Uiso   1.00
H395   H     0.44426   0.71836   0.95337   0.00000  Uiso   1.00
H396   H     0.57165   0.41302   0.85662   0.00000  Uiso   1.00
H397   H     0.54034   0.05760   0.73762   0.00000  Uiso   1.00
H398   H     0.39240   0.72125   0.07816   0.00000  Uiso   1.00
H399   H     0.55261   0.80346   0.13642   0.00000  Uiso   1.00
H400   H     0.58740   0.65500   0.12747   0.00000  Uiso   1.00
H401   H     0.57256   0.96069   0.07102   0.00000  Uiso   1.00
H402   H     0.50240   0.80119   0.23252   0.00000  Uiso   1.00
H403   H     0.61883   0.48025   0.08319   0.00000  Uiso   1.00
H404   H     0.58753   0.12483   0.96419   0.00000  Uiso   1.00
H405   H     0.43958   0.78848   0.30473   0.00000  Uiso   1.00
O406   O     0.61714   0.34758   0.95922   0.00000  Uiso   1.00
O407   O     0.57607   0.19325   0.80311   0.00000  Uiso   1.00
O408   O     0.38196   0.75196   0.24989   0.00000  Uiso   1.00
N409   N     0.57797   0.44921   0.91118   0.00000  Uiso   1.00
N410   N     0.54871   0.05185   0.79991   0.00000  Uiso   1.00
N411   N     0.41039   0.73741   0.11829   0.00000  Uiso   1.00
N412   N     0.60336   0.48538   0.03309   0.00000  Uiso   1.00
N413   N     0.57410   0.08802   0.92183   0.00000  Uiso   1.00
N414   N     0.43578   0.77358   0.24020   0.00000  Uiso   1.00
C415   C     0.51012   0.24292   0.43241   0.00000  Uiso   1.00
C416   C     0.53502   0.17081   0.45636   0.00000  Uiso   1.00
C417   C     0.54182   0.09003   0.40858   0.00000  Uiso   1.00
C418   C     0.56544   0.03311   0.44146   0.00000  Uiso   1.00
C419   C     0.60165   0.91764   0.46678   0.00000  Uiso   1.00
C420   C     0.52696   0.33689   0.42569   0.00000  Uiso   1.00
C421   C     0.52698   0.39576   0.35212   0.00000  Uiso   1.00
C422   C     0.54381   0.47866   0.35920   0.00000  Uiso   1.00
C423   C     0.56748   0.62108   0.33692   0.00000  Uiso   1.00
C424   C     0.48884   0.25022   0.51343   0.00000  Uiso   1.00
C425   C     0.45681   0.23624   0.51364   0.00000  Uiso   1.00
C426   C     0.44154   0.24618   0.59459   0.00000  Uiso   1.00
C427   C     0.40603   0.25402   0.70854   0.00000  Uiso   1.00
C428   C     0.53998   0.28546   0.57579   0.00000  Uiso   1.00
C429   C     0.55124   0.19392   0.53424   0.00000  Uiso   1.00
C430   C     0.57485   0.13710   0.56721   0.00000  Uiso   1.00
C431   C     0.58168   0.05625   0.51948   0.00000  Uiso   1.00
C432   C     0.54318   0.36000   0.50356   0.00000  Uiso   1.00
C433   C     0.56001   0.44283   0.51075   0.00000  Uiso   1.00
C434   C     0.56006   0.50181   0.43721   0.00000  Uiso   1.00
C435   C     0.50506   0.27332   0.59131   0.00000  Uiso   1.00
C436   C     0.48984   0.28330   0.67227   0.00000  Uiso   1.00
C437   C     0.45779   0.26933   0.67260   0.00000  Uiso   1.00
H438   H     0.49750   0.22493   0.37178   0.00000  Uiso   1.00
H439   H     0.52927   0.07218   0.34831   0.00000  Uiso   1.00
H440   H     0.51442   0.37787   0.29187   0.00000  Uiso   1.00
H441   H     0.44426   0.21836   0.45337   0.00000  Uiso   1.00
H442   H     0.57165   0.91302   0.35662   0.00000  Uiso   1.00
H443   H     0.54034   0.55760   0.23762   0.00000  Uiso   1.00
H444   H     0.39240   0.22125   0.57816   0.00000  Uiso   1.00
H445   H     0.55261   0.30346   0.63642   0.00000  Uiso   1.00
H446   H     0.58740   0.15500   0.62747   0.00000  Uiso   1.00
H447   H     0.57256   0.46069   0.57102   0.00000  Uiso   1.00
H448   H     0.50240   0.30119   0.73252   0.00000  Uiso   1.00
H449   H     0.61883   0.98025   0.58319   0.00000  Uiso   1.00
H450   H     0.58753   0.62483   0.46419   0.00000  Uiso   1.00
H451   H     0.43958   0.28848   0.80473   0.00000  Uiso   1.00
O452   O     0.61714   0.84758   0.45922   0.00000  Uiso   1.00
O453   O     0.57607   0.69325   0.30311   0.00000  Uiso   1.00
O454   O     0.38196   0.25196   0.74989   0.00000  Uiso   1.00
N455   N     0.57797   0.94921   0.41118   0.00000  Uiso   1.00
N456   N     0.54871   0.55185   0.29991   0.00000  Uiso   1.00
N457   N     0.41039   0.23741   0.61829   0.00000  Uiso   1.00
N458   N     0.60336   0.98538   0.53309   0.00000  Uiso   1.00
N459   N     0.57410   0.58802   0.42183   0.00000  Uiso   1.00
N460   N     0.43578   0.27358   0.74020   0.00000  Uiso   1.00
C461   C     0.01012   0.74292   0.43241   0.00000  Uiso   1.00
C462   C     0.03502   0.67081   0.45636   0.00000  Uiso   1.00
C463   C     0.04182   0.59003   0.40858   0.00000  Uiso   1.00
C464   C     0.06544   0.53311   0.44146   0.00000  Uiso   1.00
C465   C     0.10165   0.41764   0.46678   0.00000  Uiso   1.00
C466   C     0.02696   0.83689   0.42569   0.00000  Uiso   1.00
C467   C     0.02698   0.89576   0.35212   0.00000  Uiso   1.00
C468   C     0.04381   0.97866   0.35920   0.00000  Uiso   1.00
C469   C     0.06748   0.12108   0.33692   0.00000  Uiso   1.00
C470   C     0.98884   0.75022   0.51343   0.00000  Uiso   1.00
C471   C     0.95681   0.73624   0.51364   0.00000  Uiso   1.00
C472   C     0.94154   0.74618   0.59459   0.00000  Uiso   1.00
C473   C     0.90603   0.75402   0.70854   0.00000  Uiso   1.00
C474   C     0.03998   0.78546   0.57579   0.00000  Uiso   1.00
C475   C     0.05124   0.69392   0.53424   0.00000  Uiso   1.00
C476   C     0.07485   0.63710   0.56721   0.00000  Uiso   1.00
C477   C     0.08168   0.55625   0.51948   0.00000  Uiso   1.00
C478   C     0.04318   0.86000   0.50356   0.00000  Uiso   1.00
C479   C     0.06001   0.94283   0.51075   0.00000  Uiso   1.00
C480   C     0.06006   0.00181   0.43721   0.00000  Uiso   1.00
C481   C     0.00506   0.77332   0.59131   0.00000  Uiso   1.00
C482   C     0.98984   0.78330   0.67227   0.00000  Uiso   1.00
C483   C     0.95779   0.76933   0.67260   0.00000  Uiso   1.00
H484   H     0.99750   0.72493   0.37178   0.00000  Uiso   1.00
H485   H     0.02927   0.57218   0.34831   0.00000  Uiso   1.00
H486   H     0.01442   0.87787   0.29187   0.00000  Uiso   1.00
H487   H     0.94426   0.71836   0.45337   0.00000  Uiso   1.00
H488   H     0.07165   0.41302   0.35662   0.00000  Uiso   1.00
H489   H     0.04034   0.05760   0.23762   0.00000  Uiso   1.00
H490   H     0.89240   0.72125   0.57816   0.00000  Uiso   1.00
H491   H     0.05261   0.80346   0.63642   0.00000  Uiso   1.00
H492   H     0.08740   0.65500   0.62747   0.00000  Uiso   1.00
H493   H     0.07256   0.96069   0.57102   0.00000  Uiso   1.00
H494   H     0.00240   0.80119   0.73252   0.00000  Uiso   1.00
H495   H     0.11883   0.48025   0.58319   0.00000  Uiso   1.00
H496   H     0.08753   0.12483   0.46419   0.00000  Uiso   1.00
H497   H     0.93958   0.78848   0.80473   0.00000  Uiso   1.00
O498   O     0.11714   0.34758   0.45922   0.00000  Uiso   1.00
O499   O     0.07607   0.19325   0.30311   0.00000  Uiso   1.00
O500   O     0.88196   0.75196   0.74989   0.00000  Uiso   1.00
N501   N     0.07797   0.44921   0.41118   0.00000  Uiso   1.00
N502   N     0.04871   0.05185   0.29991   0.00000  Uiso   1.00
N503   N     0.91039   0.73741   0.61829   0.00000  Uiso   1.00
N504   N     0.10336   0.48538   0.53309   0.00000  Uiso   1.00
N505   N     0.07410   0.08802   0.42183   0.00000  Uiso   1.00
N506   N     0.93578   0.77358   0.74020   0.00000  Uiso   1.00
C507   C     0.01012   0.24292   0.93241   0.00000  Uiso   1.00
C508   C     0.03502   0.17081   0.95636   0.00000  Uiso   1.00
C509   C     0.04182   0.09003   0.90858   0.00000  Uiso   1.00
C510   C     0.06544   0.03311   0.94146   0.00000  Uiso   1.00
C511   C     0.10165   0.91764   0.96678   0.00000  Uiso   1.00
C512   C     0.02696   0.33689   0.92569   0.00000  Uiso   1.00
C513   C     0.02698   0.39576   0.85212   0.00000  Uiso   1.00
C514   C     0.04381   0.47866   0.85920   0.00000  Uiso   1.00
C515   C     0.06748   0.62108   0.83692   0.00000  Uiso   1.00
C516   C     0.98884   0.25022   0.01343   0.00000  Uiso   1.00
C517   C     0.95681   0.23624   0.01364   0.00000  Uiso   1.00
C518   C     0.94154   0.24618   0.09459   0.00000  Uiso   1.00
C519   C     0.90603   0.25402   0.20854   0.00000  Uiso   1.00
C520   C     0.03998   0.28546   0.07579   0.00000  Uiso   1.00
C521   C     0.05124   0.19392   0.03424   0.00000  Uiso   1.00
C522   C     0.07485   0.13710   0.06721   0.00000  Uiso   1.00
C523   C     0.08168   0.05625   0.01948   0.00000  Uiso   1.00
C524   C     0.04318   0.36000   0.00356   0.00000  Uiso   1.00
C525   C     0.06001   0.44283   0.01075   0.00000  Uiso   1.00
C526   C     0.06006   0.50181   0.93721   0.00000  Uiso   1.00
C527   C     0.00506   0.27332   0.09131   0.00000  Uiso   1.00
C528   C     0.98984   0.28330   0.17227   0.00000  Uiso   1.00
C529   C     0.95779   0.26933   0.17260   0.00000  Uiso   1.00
H530   H     0.99750   0.22493   0.87178   0.00000  Uiso   1.00
H531   H     0.02927   0.07218   0.84831   0.00000  Uiso   1.00
H532   H     0.01442   0.37787   0.79187   0.00000  Uiso   1.00
H533   H     0.94426   0.21836   0.95337   0.00000  Uiso   1.00
H534   H     0.07165   0.91302   0.85662   0.00000  Uiso   1.00
H535   H     0.04034   0.55760   0.73762   0.00000  Uiso   1.00
H536   H     0.89240   0.22125   0.07816   0.00000  Uiso   1.00
H537   H     0.05261   0.30346   0.13642   0.00000  Uiso   1.00
H538   H     0.08740   0.15500   0.12747   0.00000  Uiso   1.00
H539   H     0.07256   0.46069   0.07102   0.00000  Uiso   1.00
H540   H     0.00240   0.30119   0.23252   0.00000  Uiso   1.00
H541   H     0.11883   0.98025   0.08319   0.00000  Uiso   1.00
H542   H     0.08753   0.62483   0.96419   0.00000  Uiso   1.00
H543   H     0.93958   0.28848   0.30473   0.00000  Uiso   1.00
O544   O     0.11714   0.84758   0.95922   0.00000  Uiso   1.00
O545   O     0.07607   0.69325   0.80311   0.00000  Uiso   1.00
O546   O     0.88196   0.25196   0.24989   0.00000  Uiso   1.00
N547   N     0.07797   0.94921   0.91118   0.00000  Uiso   1.00
N548   N     0.04871   0.55185   0.79991   0.00000  Uiso   1.00
N549   N     0.91039   0.23741   0.11829   0.00000  Uiso   1.00
N550   N     0.10336   0.98538   0.03309   0.00000  Uiso   1.00
N551   N     0.07410   0.58802   0.92183   0.00000  Uiso   1.00
N552   N     0.93578   0.27358   0.24020   0.00000  Uiso   1.00
C553   C     0.98988   0.75708   0.93241   0.00000  Uiso   1.00
C554   C     0.96498   0.82919   0.95636   0.00000  Uiso   1.00
C555   C     0.95818   0.90997   0.90858   0.00000  Uiso   1.00
C556   C     0.93456   0.96689   0.94146   0.00000  Uiso   1.00
C557   C     0.89835   0.08236   0.96678   0.00000  Uiso   1.00
C558   C     0.97304   0.66311   0.92569   0.00000  Uiso   1.00
C559   C     0.97302   0.60424   0.85212   0.00000  Uiso   1.00
C560   C     0.95619   0.52134   0.85920   0.00000  Uiso   1.00
C561   C     0.93252   0.37892   0.83692   0.00000  Uiso   1.00
C562   C     0.01116   0.74978   0.01343   0.00000  Uiso   1.00
C563   C     0.04319   0.76376   0.01364   0.00000  Uiso   1.00
C564   C     0.05846   0.75382   0.09459   0.00000  Uiso   1.00
C565   C     0.09397   0.74598   0.20854   0.00000  Uiso   1.00
C566   C     0.96002   0.71454   0.07579   0.00000  Uiso   1.00
C567   C     0.94876   0.80608   0.03424   0.00000  Uiso   1.00
C568   C     0.92515   0.86290   0.06721   0.00000  Uiso   1.00
C569   C     0.91832   0.94375   0.01948   0.00000  Uiso   1.00
C570   C     0.95682   0.64000   0.00356   0.00000  Uiso   1.00
C571   C     0.93999   0.55717   0.01075   0.00000  Uiso   1.00
C572   C     0.93994   0.49819   0.93721   0.00000  Uiso   1.00
C573   C     0.99494   0.72668   0.09131   0.00000  Uiso   1.00
C574   C     0.01016   0.71670   0.17227   0.00000  Uiso   1.00
C575   C     0.04221   0.73067   0.17260   0.00000  Uiso   1.00
H576   H     0.00250   0.77507   0.87178   0.00000  Uiso   1.00
H577   H     0.97073   0.92782   0.84831   0.00000  Uiso   1.00
H578   H     0.98558   0.62213   0.79187   0.00000  Uiso   1.00
H579   H     0.05574   0.78164   0.95337   0.00000  Uiso   1.00
H580   H     0.92835   0.08698   0.85662   0.00000  Uiso   1.00
H581   H     0.95966   0.44240   0.73762   0.00000  Uiso   1.00
H582   H     0.10760   0.77875   0.07816   0.00000  Uiso   1.00
H583   H     0.94739   0.69654   0.13642   0.00000  Uiso   1.00
H584   H     0.91260   0.84500   0.12747   0.00000  Uiso   1.00
H585   H     0.92744   0.53931   0.07102   0.00000  Uiso   1.00
H586   H     0.99760   0.69881   0.23252   0.00000  Uiso   1.00
H587   H     0.88117   0.01975   0.08319   0.00000  Uiso   1.00
H588   H     0.91247   0.37517   0.96419   0.00000  Uiso   1.00
H589   H     0.06042   0.71152   0.30473   0.00000  Uiso   1.00
O590   O     0.88286   0.15242   0.95922   0.00000  Uiso   1.00
O591   O     0.92393   0.30675   0.80311   0.00000  Uiso   1.00
O592   O     0.11804   0.74804   0.24989   0.00000  Uiso   1.00
N593   N     0.92203   0.05079   0.91118   0.00000  Uiso   1.00
N594   N     0.95129   0.44815   0.79991   0.00000  Uiso   1.00
N595   N     0.08961   0.76259   0.11829   0.00000  Uiso   1.00
N596   N     0.89664   0.01462   0.03309   0.00000  Uiso   1.00
N597   N     0.92590   0.41198   0.92183   0.00000  Uiso   1.00
N598   N     0.06422   0.72642   0.24020   0.00000  Uiso   1.00
C599   C     0.98988   0.25708   0.43241   0.00000  Uiso   1.00
C600   C     0.96498   0.32919   0.45636   0.00000  Uiso   1.00
C601   C     0.95818   0.40997   0.40858   0.00000  Uiso   1.00
C602   C     0.93456   0.46689   0.44146   0.00000  Uiso   1.00
C603   C     0.89835   0.58236   0.46678   0.00000  Uiso   1.00
C604   C     0.97304   0.16311   0.42569   0.00000  Uiso   1.00
C605   C     0.97302   0.10424   0.35212   0.00000  Uiso   1.00
C606   C     0.95619   0.02134   0.35920   0.00000  Uiso   1.00
C607   C     0.93252   0.87892   0.33692   0.00000  Uiso   1.00
C608   C     0.01116   0.24978   0.51343   0.00000  Uiso   1.00
C609   C     0.04319   0.26376   0.51364   0.00000  Uiso   1.00
C610   C     0.05846   0.25382   0.59459   0.00000  Uiso   1.00
C611   C     0.09397   0.24598   0.70854   0.00000  Uiso   1.00
C612   C     0.96002   0.21454   0.57579   0.00000  Uiso   1.00
C613   C     0.94876   0.30608   0.53424   0.00000  Uiso   1.00
C614   C     0.92515   0.36290   0.56721   0.00000  Uiso   1.00
C615   C     0.91832   0.44375   0.51948   0.00000  Uiso   1.00
C616   C     0.95682   0.14000   0.50356   0.00000  Uiso   1.00
C617   C     0.93999   0.05717   0.51075   0.00000  Uiso   1.00
C618   C     0.93994   0.99819   0.43721   0.00000  Uiso   1.00
C619   C     0.99494   0.22668   0.59131   0.00000  Uiso   1.00
C620   C     0.01016   0.21670   0.67227   0.00000  Uiso   1.00
C621   C     0.04221   0.23067   0.67260   0.00000  Uiso   1.00
H622   H     0.00250   0.27507   0.37178   0.00000  Uiso   1.00
H623   H     0.97073   0.42782   0.34831   0.00000  Uiso   1.00
H624   H     0.98558   0.12213   0.29187   0.00000  Uiso   1.00
H625   H     0.05574   0.28164   0.45337   0.00000  Uiso   1.00
H626   H     0.92835   0.58698   0.35662   0.00000  Uiso   1.00
H627   H     0.95966   0.94240   0.23762   0.00000  Uiso   1.00
H628   H     0.10760   0.27875   0.57816   0.00000  Uiso   1.00
H629   H     0.94739   0.19654   0.63642   0.00000  Uiso   1.00
H630   H     0.91260   0.34500   0.62747   0.00000  Uiso   1.00
H631   H     0.92744   0.03931   0.57102   0.00000  Uiso   1.00
H632   H     0.99760   0.19881   0.73252   0.00000  Uiso   1.00
H633   H     0.88117   0.51975   0.58319   0.00000  Uiso   1.00
H634   H     0.91247   0.87517   0.46419   0.00000  Uiso   1.00
H635   H     0.06042   0.21152   0.80473   0.00000  Uiso   1.00
O636   O     0.88286   0.65242   0.45922   0.00000  Uiso   1.00
O637   O     0.92393   0.80675   0.30311   0.00000  Uiso   1.00
O638   O     0.11804   0.24804   0.74989   0.00000  Uiso   1.00
N639   N     0.92203   0.55079   0.41118   0.00000  Uiso   1.00
N640   N     0.95129   0.94815   0.29991   0.00000  Uiso   1.00
N641   N     0.08961   0.26259   0.61829   0.00000  Uiso   1.00
N642   N     0.89664   0.51462   0.53309   0.00000  Uiso   1.00
N643   N     0.92590   0.91198   0.42183   0.00000  Uiso   1.00
N644   N     0.06422   0.22642   0.74020   0.00000  Uiso   1.00
C645   C     0.48988   0.75708   0.43241   0.00000  Uiso   1.00
C646   C     0.46498   0.82919   0.45636   0.00000  Uiso   1.00
C647   C     0.45818   0.90997   0.40858   0.00000  Uiso   1.00
C648   C     0.43456   0.96689   0.44146   0.00000  Uiso   1.00
C649   C     0.39835   0.08236   0.46678   0.00000  Uiso   1.00
C650   C     0.47304   0.66311   0.42569   0.00000  Uiso   1.00
C651   C     0.47302   0.60424   0.35212   0.00000  Uiso   1.00
C652   C     0.45619   0.52134   0.35920   0.00000  Uiso   1.00
C653   C     0.43252   0.37892   0.33692   0.00000  Uiso   1.00
C654   C     0.51116   0.74978   0.51343   0.00000  Uiso   1.00
C655   C     0.54319   0.76376   0.51364   0.00000  Uiso   1.00
C656   C     0.55846   0.75382   0.59459   0.00000  Uiso   1.00
C657   C     0.59397   0.74598   0.70854   0.00000  Uiso   1.00
C658   C     0.46002   0.71454   0.57579   0.00000  Uiso   1.00
C659   C     0.44876   0.80608   0.53424   0.00000  Uiso   1.00
C660   C     0.42515   0.86290   0.56721   0.00000  Uiso   1.00
C661   C     0.41832   0.94375   0.51948   0.00000  Uiso   1.00
C662   C     0.45682   0.64000   0.50356   0.00000  Uiso   1.00
C663   C     0.43999   0.55717   0.51075   0.00000  Uiso   1.00
C664   C     0.43994   0.49819   0.43721   0.00000  Uiso   1.00
C665   C     0.49494   0.72668   0.59131   0.00000  Uiso   1.00
C666   C     0.51016   0.71670   0.67227   0.00000  Uiso   1.00
C667   C     0.54221   0.73067   0.67260   0.00000  Uiso   1.00
H668   H     0.50250   0.77507   0.37178   0.00000  Uiso   1.00
H669   H     0.47073   0.92782   0.34831   0.00000  Uiso   1.00
H670   H     0.48558   0.62213   0.29187   0.00000  Uiso   1.00
H671   H     0.55574   0.78164   0.45337   0.00000  Uiso   1.00
H672   H     0.42835   0.08698   0.35662   0.00000  Uiso   1.00
H673   H     0.45966   0.44240   0.23762   0.00000  Uiso   1.00
H674   H     0.60760   0.77875   0.57816   0.00000  Uiso   1.00
H675   H     0.44739   0.69654   0.63642   0.00000  Uiso   1.00
H676   H     0.41260   0.84500   0.62747   0.00000  Uiso   1.00
H677   H     0.42744   0.53931   0.57102   0.00000  Uiso   1.00
H678   H     0.49760   0.69881   0.73252   0.00000  Uiso   1.00
H679   H     0.38117   0.01975   0.58319   0.00000  Uiso   1.00
H680   H     0.41247   0.37517   0.46419   0.00000  Uiso   1.00
H681   H     0.56042   0.71152   0.80473   0.00000  Uiso   1.00
O682   O     0.38286   0.15242   0.45922   0.00000  Uiso   1.00
O683   O     0.42393   0.30675   0.30311   0.00000  Uiso   1.00
O684   O     0.61804   0.74804   0.74989   0.00000  Uiso   1.00
N685   N     0.42203   0.05079   0.41118   0.00000  Uiso   1.00
N686   N     0.45129   0.44815   0.29991   0.00000  Uiso   1.00
N687   N     0.58961   0.76259   0.61829   0.00000  Uiso   1.00
N688   N     0.39664   0.01462   0.53309   0.00000  Uiso   1.00
N689   N     0.42590   0.41198   0.42183   0.00000  Uiso   1.00
N690   N     0.56422   0.72642   0.74020   0.00000  Uiso   1.00
C691   C     0.48988   0.25708   0.93241   0.00000  Uiso   1.00
C692   C     0.46498   0.32919   0.95636   0.00000  Uiso   1.00
C693   C     0.45818   0.40997   0.90858   0.00000  Uiso   1.00
C694   C     0.43456   0.46689   0.94146   0.00000  Uiso   1.00
C695   C     0.39835   0.58236   0.96678   0.00000  Uiso   1.00
C696   C     0.47304   0.16311   0.92569   0.00000  Uiso   1.00
C697   C     0.47302   0.10424   0.85212   0.00000  Uiso   1.00
C698   C     0.45619   0.02134   0.85920   0.00000  Uiso   1.00
C699   C     0.43252   0.87892   0.83692   0.00000  Uiso   1.00
C700   C     0.51116   0.24978   0.01343   0.00000  Uiso   1.00
C701   C     0.54319   0.26376   0.01364   0.00000  Uiso   1.00
C702   C     0.55846   0.25382   0.09459   0.00000  Uiso   1.00
C703   C     0.59397   0.24598   0.20854   0.00000  Uiso   1.00
C704   C     0.46002   0.21454   0.07579   0.00000  Uiso   1.00
C705   C     0.44876   0.30608   0.03424   0.00000  Uiso   1.00
C706   C     0.42515   0.36290   0.06721   0.00000  Uiso   1.00
C707   C     0.41832   0.44375   0.01948   0.00000  Uiso   1.00
C708   C     0.45682   0.14000   0.00356   0.00000  Uiso   1.00
C709   C     0.43999   0.05717   0.01075   0.00000  Uiso   1.00
C710   C     0.43994   0.99819   0.93721   0.00000  Uiso   1.00
C711   C     0.49494   0.22668   0.09131   0.00000  Uiso   1.00
C712   C     0.51016   0.21670   0.17227   0.00000  Uiso   1.00
C713   C     0.54221   0.23067   0.17260   0.00000  Uiso   1.00
H714   H     0.50250   0.27507   0.87178   0.00000  Uiso   1.00
H715   H     0.47073   0.42782   0.84831   0.00000  Uiso   1.00
H716   H     0.48558   0.12213   0.79187   0.00000  Uiso   1.00
H717   H     0.55574   0.28164   0.95337   0.00000  Uiso   1.00
H718   H     0.42835   0.58698   0.85662   0.00000  Uiso   1.00
H719   H     0.45966   0.94240   0.73762   0.00000  Uiso   1.00
H720   H     0.60760   0.27875   0.07816   0.00000  Uiso   1.00
H721   H     0.44739   0.19654   0.13642   0.00000  Uiso   1.00
H722   H     0.41260   0.34500   0.12747   0.00000  Uiso   1.00
H723   H     0.42744   0.03931   0.07102   0.00000  Uiso   1.00
H724   H     0.49760   0.19881   0.23252   0.00000  Uiso   1.00
H725   H     0.38117   0.51975   0.08319   0.00000  Uiso   1.00
H726   H     0.41247   0.87517   0.96419   0.00000  Uiso   1.00
H727   H     0.56042   0.21152   0.30473   0.00000  Uiso   1.00
O728   O     0.38286   0.65242   0.95922   0.00000  Uiso   1.00
O729   O     0.42393   0.80675   0.80311   0.00000  Uiso   1.00
O730   O     0.61804   0.24804   0.24989   0.00000  Uiso   1.00
N731   N     0.42203   0.55079   0.91118   0.00000  Uiso   1.00
N732   N     0.45129   0.94815   0.79991   0.00000  Uiso   1.00
N733   N     0.58961   0.26259   0.11829   0.00000  Uiso   1.00
N734   N     0.39664   0.51462   0.03309   0.00000  Uiso   1.00
N735   N     0.42590   0.91198   0.92183   0.00000  Uiso   1.00
N736   N     0.56422   0.22642   0.24020   0.00000  Uiso   1.00
