data_job_00873
_audit_creation_date              2018-12-19
_audit_creation_method            'Materials Studio'
_symmetry_space_group_name_H-M    'P1'
_symmetry_Int_Tables_number       1
_symmetry_cell_setting            triclinic
loop_
_symmetry_equiv_pos_as_xyz
  x,y,z
_cell_length_a                    33.4047
_cell_length_b                    33.4047
_cell_length_c                    11.7564
_cell_angle_alpha                 90.0000
_cell_angle_beta                  90.0000
_cell_angle_gamma                 90.0000
loop_
_atom_site_label
_atom_site_type_symbol
_atom_site_fract_x
_atom_site_fract_y
_atom_site_fract_z
_atom_site_U_iso_or_equiv
_atom_site_adp_type
_atom_site_occupancy
C1     C     0.64253   0.09086   0.30151   0.00000  Uiso   1.00
C2     C     0.61366   0.12408   0.26712   0.00000  Uiso   1.00
C3     C     0.62141   0.16485   0.27251   0.00000  Uiso   1.00
C4     C     0.59109   0.19042   0.23715   0.00000  Uiso   1.00
C5     C     0.55184   0.24424   0.18979   0.00000  Uiso   1.00
C6     C     0.62061   0.06589   0.39047   0.00000  Uiso   1.00
C7     C     0.63422   0.05773   0.49957   0.00000  Uiso   1.00
C8     C     0.60976   0.03431   0.56804   0.00000  Uiso   1.00
C9     C     0.58133   0.99777   0.71216   0.00000  Uiso   1.00
C10    C     0.64697   0.06403   0.19733   0.00000  Uiso   1.00
C11    C     0.68274   0.05430   0.14405   0.00000  Uiso   1.00
C12    C     0.68048   0.02929   0.04991   0.00000  Uiso   1.00
C13    C     0.69297   0.98987   0.89415   0.00000  Uiso   1.00
C14    C     0.57490   0.06376   0.22910   0.00000  Uiso   1.00
C15    C     0.57692   0.10936   0.22779   0.00000  Uiso   1.00
C16    C     0.54659   0.13487   0.19241   0.00000  Uiso   1.00
C17    C     0.55430   0.17567   0.19775   0.00000  Uiso   1.00
C18    C     0.58388   0.05117   0.35115   0.00000  Uiso   1.00
C19    C     0.55940   0.02775   0.41947   0.00000  Uiso   1.00
C20    C     0.57296   0.01956   0.52865   0.00000  Uiso   1.00
C21    C     0.61024   0.04931   0.15800   0.00000  Uiso   1.00
C22    C     0.60792   0.02432   0.06394   0.00000  Uiso   1.00
C23    C     0.64368   0.01455   0.01052   0.00000  Uiso   1.00
H24    H     0.67113   0.10232   0.33213   0.00000  Uiso   1.00
H25    H     0.64984   0.17623   0.30296   0.00000  Uiso   1.00
H26    H     0.66265   0.06912   0.52998   0.00000  Uiso   1.00
H27    H     0.71116   0.06569   0.17450   0.00000  Uiso   1.00
H28    H     0.61004   0.25169   0.25332   0.00000  Uiso   1.00
H29    H     0.63705   0.02584   0.73199   0.00000  Uiso   1.00
H30    H     0.73936   0.01860   0.98240   0.00000  Uiso   1.00
H31    H     0.54630   0.05230   0.19849   0.00000  Uiso   1.00
H32    H     0.51816   0.12347   0.16198   0.00000  Uiso   1.00
H33    H     0.53097   0.01636   0.38900   0.00000  Uiso   1.00
H34    H     0.57949   0.01293   0.03353   0.00000  Uiso   1.00
H35    H     0.50316   0.20887   0.13890   0.00000  Uiso   1.00
H36    H     0.53018   0.98301   0.61757   0.00000  Uiso   1.00
H37    H     0.63248   0.97578   0.86798   0.00000  Uiso   1.00
O38    O     0.54034   0.27800   0.17454   0.00000  Uiso   1.00
O39    O     0.57579   0.98169   0.80253   0.00000  Uiso   1.00
O40    O     0.71001   0.97219   0.81908   0.00000  Uiso   1.00
N41    N     0.58875   0.23184   0.23138   0.00000  Uiso   1.00
N42    N     0.61400   0.02069   0.67891   0.00000  Uiso   1.00
N43    N     0.70965   0.01391   0.97813   0.00000  Uiso   1.00
N44    N     0.53124   0.20880   0.16981   0.00000  Uiso   1.00
N45    N     0.55650   0.99765   0.61734   0.00000  Uiso   1.00
N46    N     0.65214   0.99087   0.91656   0.00000  Uiso   1.00
C47    C     0.14253   0.59086   0.80151   0.00000  Uiso   1.00
C48    C     0.11366   0.62408   0.76712   0.00000  Uiso   1.00
C49    C     0.12141   0.66485   0.77251   0.00000  Uiso   1.00
C50    C     0.09109   0.69042   0.73715   0.00000  Uiso   1.00
C51    C     0.05184   0.74424   0.68979   0.00000  Uiso   1.00
C52    C     0.12061   0.56589   0.89047   0.00000  Uiso   1.00
C53    C     0.13422   0.55773   0.99957   0.00000  Uiso   1.00
C54    C     0.10976   0.53431   0.06804   0.00000  Uiso   1.00
C55    C     0.08133   0.49777   0.21216   0.00000  Uiso   1.00
C56    C     0.14697   0.56403   0.69733   0.00000  Uiso   1.00
C57    C     0.18274   0.55430   0.64405   0.00000  Uiso   1.00
C58    C     0.18048   0.52929   0.54991   0.00000  Uiso   1.00
C59    C     0.19297   0.48987   0.39415   0.00000  Uiso   1.00
C60    C     0.07490   0.56376   0.72910   0.00000  Uiso   1.00
C61    C     0.07692   0.60936   0.72779   0.00000  Uiso   1.00
C62    C     0.04659   0.63487   0.69241   0.00000  Uiso   1.00
C63    C     0.05430   0.67567   0.69775   0.00000  Uiso   1.00
C64    C     0.08388   0.55117   0.85115   0.00000  Uiso   1.00
C65    C     0.05940   0.52775   0.91947   0.00000  Uiso   1.00
C66    C     0.07296   0.51956   0.02865   0.00000  Uiso   1.00
C67    C     0.11024   0.54931   0.65800   0.00000  Uiso   1.00
C68    C     0.10792   0.52432   0.56394   0.00000  Uiso   1.00
C69    C     0.14368   0.51455   0.51052   0.00000  Uiso   1.00
H70    H     0.17113   0.60232   0.83213   0.00000  Uiso   1.00
H71    H     0.14984   0.67623   0.80296   0.00000  Uiso   1.00
H72    H     0.16265   0.56912   0.02998   0.00000  Uiso   1.00
H73    H     0.21116   0.56569   0.67450   0.00000  Uiso   1.00
H74    H     0.11004   0.75169   0.75332   0.00000  Uiso   1.00
H75    H     0.13705   0.52584   0.23199   0.00000  Uiso   1.00
H76    H     0.23936   0.51860   0.48240   0.00000  Uiso   1.00
H77    H     0.04630   0.55230   0.69849   0.00000  Uiso   1.00
H78    H     0.01816   0.62347   0.66198   0.00000  Uiso   1.00
H79    H     0.03097   0.51636   0.88900   0.00000  Uiso   1.00
H80    H     0.07949   0.51293   0.53353   0.00000  Uiso   1.00
H81    H     0.00316   0.70887   0.63890   0.00000  Uiso   1.00
H82    H     0.03018   0.48301   0.11757   0.00000  Uiso   1.00
H83    H     0.13248   0.47578   0.36798   0.00000  Uiso   1.00
O84    O     0.04034   0.77800   0.67454   0.00000  Uiso   1.00
O85    O     0.07579   0.48169   0.30253   0.00000  Uiso   1.00
O86    O     0.21001   0.47219   0.31908   0.00000  Uiso   1.00
N87    N     0.08875   0.73184   0.73138   0.00000  Uiso   1.00
N88    N     0.11400   0.52069   0.17891   0.00000  Uiso   1.00
N89    N     0.20965   0.51391   0.47813   0.00000  Uiso   1.00
N90    N     0.03124   0.70880   0.66981   0.00000  Uiso   1.00
N91    N     0.05650   0.49765   0.11734   0.00000  Uiso   1.00
N92    N     0.15214   0.49087   0.41656   0.00000  Uiso   1.00
C93    C     0.85747   0.40914   0.80151   0.00000  Uiso   1.00
C94    C     0.88634   0.37592   0.76712   0.00000  Uiso   1.00
C95    C     0.87859   0.33515   0.77251   0.00000  Uiso   1.00
C96    C     0.90891   0.30958   0.73715   0.00000  Uiso   1.00
C97    C     0.94816   0.25576   0.68979   0.00000  Uiso   1.00
C98    C     0.87939   0.43411   0.89047   0.00000  Uiso   1.00
C99    C     0.86578   0.44227   0.99957   0.00000  Uiso   1.00
C100   C     0.89024   0.46569   0.06804   0.00000  Uiso   1.00
C101   C     0.91867   0.50223   0.21216   0.00000  Uiso   1.00
C102   C     0.85303   0.43597   0.69733   0.00000  Uiso   1.00
C103   C     0.81726   0.44570   0.64405   0.00000  Uiso   1.00
C104   C     0.81952   0.47071   0.54991   0.00000  Uiso   1.00
C105   C     0.80703   0.51013   0.39415   0.00000  Uiso   1.00
C106   C     0.92510   0.43624   0.72910   0.00000  Uiso   1.00
C107   C     0.92308   0.39064   0.72779   0.00000  Uiso   1.00
C108   C     0.95341   0.36513   0.69241   0.00000  Uiso   1.00
C109   C     0.94570   0.32433   0.69775   0.00000  Uiso   1.00
C110   C     0.91612   0.44883   0.85115   0.00000  Uiso   1.00
C111   C     0.94060   0.47225   0.91947   0.00000  Uiso   1.00
C112   C     0.92704   0.48044   0.02865   0.00000  Uiso   1.00
C113   C     0.88976   0.45069   0.65800   0.00000  Uiso   1.00
C114   C     0.89208   0.47568   0.56394   0.00000  Uiso   1.00
C115   C     0.85632   0.48545   0.51052   0.00000  Uiso   1.00
H116   H     0.82887   0.39768   0.83213   0.00000  Uiso   1.00
H117   H     0.85016   0.32377   0.80296   0.00000  Uiso   1.00
H118   H     0.83735   0.43088   0.02998   0.00000  Uiso   1.00
H119   H     0.78884   0.43431   0.67450   0.00000  Uiso   1.00
H120   H     0.88996   0.24831   0.75332   0.00000  Uiso   1.00
H121   H     0.86295   0.47416   0.23199   0.00000  Uiso   1.00
H122   H     0.76064   0.48140   0.48240   0.00000  Uiso   1.00
H123   H     0.95370   0.44770   0.69849   0.00000  Uiso   1.00
H124   H     0.98184   0.37653   0.66198   0.00000  Uiso   1.00
H125   H     0.96903   0.48364   0.88900   0.00000  Uiso   1.00
H126   H     0.92051   0.48707   0.53353   0.00000  Uiso   1.00
H127   H     0.99684   0.29113   0.63890   0.00000  Uiso   1.00
H128   H     0.96982   0.51699   0.11757   0.00000  Uiso   1.00
H129   H     0.86752   0.52422   0.36798   0.00000  Uiso   1.00
O130   O     0.95966   0.22200   0.67454   0.00000  Uiso   1.00
O131   O     0.92421   0.51831   0.30253   0.00000  Uiso   1.00
O132   O     0.78999   0.52781   0.31908   0.00000  Uiso   1.00
N133   N     0.91125   0.26816   0.73138   0.00000  Uiso   1.00
N134   N     0.88600   0.47931   0.17891   0.00000  Uiso   1.00
N135   N     0.79035   0.48609   0.47813   0.00000  Uiso   1.00
N136   N     0.96876   0.29120   0.66981   0.00000  Uiso   1.00
N137   N     0.94350   0.50235   0.11734   0.00000  Uiso   1.00
N138   N     0.84786   0.50913   0.41656   0.00000  Uiso   1.00
C139   C     0.35747   0.90914   0.30151   0.00000  Uiso   1.00
C140   C     0.38634   0.87592   0.26712   0.00000  Uiso   1.00
C141   C     0.37859   0.83515   0.27251   0.00000  Uiso   1.00
C142   C     0.40891   0.80958   0.23715   0.00000  Uiso   1.00
C143   C     0.44816   0.75576   0.18979   0.00000  Uiso   1.00
C144   C     0.37939   0.93411   0.39047   0.00000  Uiso   1.00
C145   C     0.36578   0.94227   0.49957   0.00000  Uiso   1.00
C146   C     0.39024   0.96569   0.56804   0.00000  Uiso   1.00
C147   C     0.41867   0.00223   0.71216   0.00000  Uiso   1.00
C148   C     0.35303   0.93597   0.19733   0.00000  Uiso   1.00
C149   C     0.31726   0.94570   0.14405   0.00000  Uiso   1.00
C150   C     0.31952   0.97071   0.04991   0.00000  Uiso   1.00
C151   C     0.30703   0.01013   0.89415   0.00000  Uiso   1.00
C152   C     0.42510   0.93624   0.22910   0.00000  Uiso   1.00
C153   C     0.42308   0.89064   0.22779   0.00000  Uiso   1.00
C154   C     0.45341   0.86513   0.19241   0.00000  Uiso   1.00
C155   C     0.44570   0.82433   0.19775   0.00000  Uiso   1.00
C156   C     0.41612   0.94883   0.35115   0.00000  Uiso   1.00
C157   C     0.44060   0.97225   0.41947   0.00000  Uiso   1.00
C158   C     0.42704   0.98044   0.52865   0.00000  Uiso   1.00
C159   C     0.38976   0.95069   0.15800   0.00000  Uiso   1.00
C160   C     0.39208   0.97568   0.06394   0.00000  Uiso   1.00
C161   C     0.35632   0.98545   0.01052   0.00000  Uiso   1.00
H162   H     0.32887   0.89768   0.33213   0.00000  Uiso   1.00
H163   H     0.35016   0.82377   0.30296   0.00000  Uiso   1.00
H164   H     0.33735   0.93088   0.52998   0.00000  Uiso   1.00
H165   H     0.28884   0.93431   0.17450   0.00000  Uiso   1.00
H166   H     0.38996   0.74831   0.25332   0.00000  Uiso   1.00
H167   H     0.36295   0.97416   0.73199   0.00000  Uiso   1.00
H168   H     0.26064   0.98140   0.98240   0.00000  Uiso   1.00
H169   H     0.45370   0.94770   0.19849   0.00000  Uiso   1.00
H170   H     0.48184   0.87653   0.16198   0.00000  Uiso   1.00
H171   H     0.46903   0.98364   0.38900   0.00000  Uiso   1.00
H172   H     0.42051   0.98707   0.03353   0.00000  Uiso   1.00
H173   H     0.49684   0.79113   0.13890   0.00000  Uiso   1.00
H174   H     0.46982   0.01699   0.61757   0.00000  Uiso   1.00
H175   H     0.36752   0.02422   0.86798   0.00000  Uiso   1.00
O176   O     0.45966   0.72200   0.17454   0.00000  Uiso   1.00
O177   O     0.42421   0.01831   0.80253   0.00000  Uiso   1.00
O178   O     0.28999   0.02781   0.81908   0.00000  Uiso   1.00
N179   N     0.41125   0.76816   0.23138   0.00000  Uiso   1.00
N180   N     0.38600   0.97931   0.67891   0.00000  Uiso   1.00
N181   N     0.29035   0.98609   0.97813   0.00000  Uiso   1.00
N182   N     0.46876   0.79120   0.16981   0.00000  Uiso   1.00
N183   N     0.44350   0.00235   0.61734   0.00000  Uiso   1.00
N184   N     0.34786   0.00913   0.91656   0.00000  Uiso   1.00
C185   C     0.90914   0.14253   0.55151   0.00000  Uiso   1.00
C186   C     0.87592   0.11366   0.51712   0.00000  Uiso   1.00
C187   C     0.83515   0.12141   0.52251   0.00000  Uiso   1.00
C188   C     0.80958   0.09109   0.48715   0.00000  Uiso   1.00
C189   C     0.75576   0.05184   0.43979   0.00000  Uiso   1.00
C190   C     0.93411   0.12061   0.64047   0.00000  Uiso   1.00
C191   C     0.94227   0.13422   0.74957   0.00000  Uiso   1.00
C192   C     0.96569   0.10976   0.81804   0.00000  Uiso   1.00
C193   C     0.00223   0.08133   0.96216   0.00000  Uiso   1.00
C194   C     0.93597   0.14697   0.44733   0.00000  Uiso   1.00
C195   C     0.94570   0.18274   0.39405   0.00000  Uiso   1.00
C196   C     0.97071   0.18048   0.29991   0.00000  Uiso   1.00
C197   C     0.01013   0.19297   0.14415   0.00000  Uiso   1.00
C198   C     0.93624   0.07490   0.47910   0.00000  Uiso   1.00
C199   C     0.89064   0.07692   0.47779   0.00000  Uiso   1.00
C200   C     0.86513   0.04659   0.44241   0.00000  Uiso   1.00
C201   C     0.82433   0.05430   0.44775   0.00000  Uiso   1.00
C202   C     0.94883   0.08388   0.60115   0.00000  Uiso   1.00
C203   C     0.97225   0.05940   0.66947   0.00000  Uiso   1.00
C204   C     0.98044   0.07296   0.77865   0.00000  Uiso   1.00
C205   C     0.95069   0.11024   0.40800   0.00000  Uiso   1.00
C206   C     0.97568   0.10792   0.31394   0.00000  Uiso   1.00
C207   C     0.98545   0.14368   0.26052   0.00000  Uiso   1.00
H208   H     0.89768   0.17113   0.58213   0.00000  Uiso   1.00
H209   H     0.82377   0.14984   0.55296   0.00000  Uiso   1.00
H210   H     0.93088   0.16265   0.77998   0.00000  Uiso   1.00
H211   H     0.93431   0.21116   0.42450   0.00000  Uiso   1.00
H212   H     0.74831   0.11004   0.50332   0.00000  Uiso   1.00
H213   H     0.97416   0.13705   0.98199   0.00000  Uiso   1.00
H214   H     0.98140   0.23936   0.23240   0.00000  Uiso   1.00
H215   H     0.94770   0.04630   0.44849   0.00000  Uiso   1.00
H216   H     0.87653   0.01816   0.41198   0.00000  Uiso   1.00
H217   H     0.98364   0.03097   0.63900   0.00000  Uiso   1.00
H218   H     0.98707   0.07949   0.28353   0.00000  Uiso   1.00
H219   H     0.79113   0.00316   0.38890   0.00000  Uiso   1.00
H220   H     0.01699   0.03018   0.86757   0.00000  Uiso   1.00
H221   H     0.02422   0.13248   0.11798   0.00000  Uiso   1.00
O222   O     0.72200   0.04034   0.42454   0.00000  Uiso   1.00
O223   O     0.01831   0.07579   0.05253   0.00000  Uiso   1.00
O224   O     0.02781   0.21001   0.06908   0.00000  Uiso   1.00
N225   N     0.76816   0.08875   0.48138   0.00000  Uiso   1.00
N226   N     0.97931   0.11400   0.92891   0.00000  Uiso   1.00
N227   N     0.98609   0.20965   0.22813   0.00000  Uiso   1.00
N228   N     0.79120   0.03124   0.41981   0.00000  Uiso   1.00
N229   N     0.00235   0.05650   0.86734   0.00000  Uiso   1.00
N230   N     0.00913   0.15214   0.16656   0.00000  Uiso   1.00
C231   C     0.40914   0.64253   0.05151   0.00000  Uiso   1.00
C232   C     0.37592   0.61366   0.01712   0.00000  Uiso   1.00
C233   C     0.33515   0.62141   0.02251   0.00000  Uiso   1.00
C234   C     0.30958   0.59109   0.98715   0.00000  Uiso   1.00
C235   C     0.25576   0.55184   0.93979   0.00000  Uiso   1.00
C236   C     0.43411   0.62061   0.14047   0.00000  Uiso   1.00
C237   C     0.44227   0.63422   0.24957   0.00000  Uiso   1.00
C238   C     0.46569   0.60976   0.31804   0.00000  Uiso   1.00
C239   C     0.50223   0.58133   0.46216   0.00000  Uiso   1.00
C240   C     0.43597   0.64697   0.94733   0.00000  Uiso   1.00
C241   C     0.44570   0.68274   0.89405   0.00000  Uiso   1.00
C242   C     0.47071   0.68048   0.79991   0.00000  Uiso   1.00
C243   C     0.51013   0.69297   0.64415   0.00000  Uiso   1.00
C244   C     0.43624   0.57490   0.97910   0.00000  Uiso   1.00
C245   C     0.39064   0.57692   0.97779   0.00000  Uiso   1.00
C246   C     0.36513   0.54659   0.94241   0.00000  Uiso   1.00
C247   C     0.32433   0.55430   0.94775   0.00000  Uiso   1.00
C248   C     0.44883   0.58388   0.10115   0.00000  Uiso   1.00
C249   C     0.47225   0.55940   0.16947   0.00000  Uiso   1.00
C250   C     0.48044   0.57296   0.27865   0.00000  Uiso   1.00
C251   C     0.45069   0.61024   0.90800   0.00000  Uiso   1.00
C252   C     0.47568   0.60792   0.81394   0.00000  Uiso   1.00
C253   C     0.48545   0.64368   0.76052   0.00000  Uiso   1.00
H254   H     0.39768   0.67113   0.08213   0.00000  Uiso   1.00
H255   H     0.32377   0.64984   0.05296   0.00000  Uiso   1.00
H256   H     0.43088   0.66265   0.27998   0.00000  Uiso   1.00
H257   H     0.43431   0.71116   0.92450   0.00000  Uiso   1.00
H258   H     0.24831   0.61004   0.00332   0.00000  Uiso   1.00
H259   H     0.47416   0.63705   0.48199   0.00000  Uiso   1.00
H260   H     0.48140   0.73936   0.73240   0.00000  Uiso   1.00
H261   H     0.44770   0.54630   0.94849   0.00000  Uiso   1.00
H262   H     0.37653   0.51816   0.91198   0.00000  Uiso   1.00
H263   H     0.48364   0.53097   0.13900   0.00000  Uiso   1.00
H264   H     0.48707   0.57949   0.78353   0.00000  Uiso   1.00
H265   H     0.29113   0.50316   0.88890   0.00000  Uiso   1.00
H266   H     0.51699   0.53018   0.36757   0.00000  Uiso   1.00
H267   H     0.52422   0.63248   0.61798   0.00000  Uiso   1.00
O268   O     0.22200   0.54034   0.92454   0.00000  Uiso   1.00
O269   O     0.51831   0.57579   0.55253   0.00000  Uiso   1.00
O270   O     0.52781   0.71001   0.56908   0.00000  Uiso   1.00
N271   N     0.26816   0.58875   0.98138   0.00000  Uiso   1.00
N272   N     0.47931   0.61400   0.42891   0.00000  Uiso   1.00
N273   N     0.48609   0.70965   0.72813   0.00000  Uiso   1.00
N274   N     0.29120   0.53124   0.91981   0.00000  Uiso   1.00
N275   N     0.50235   0.55650   0.36734   0.00000  Uiso   1.00
N276   N     0.50913   0.65214   0.66656   0.00000  Uiso   1.00
C277   C     0.59086   0.35747   0.05151   0.00000  Uiso   1.00
C278   C     0.62408   0.38634   0.01712   0.00000  Uiso   1.00
C279   C     0.66485   0.37859   0.02251   0.00000  Uiso   1.00
C280   C     0.69042   0.40891   0.98715   0.00000  Uiso   1.00
C281   C     0.74424   0.44816   0.93979   0.00000  Uiso   1.00
C282   C     0.56589   0.37939   0.14047   0.00000  Uiso   1.00
C283   C     0.55773   0.36578   0.24957   0.00000  Uiso   1.00
C284   C     0.53431   0.39024   0.31804   0.00000  Uiso   1.00
C285   C     0.49777   0.41867   0.46216   0.00000  Uiso   1.00
C286   C     0.56403   0.35303   0.94733   0.00000  Uiso   1.00
C287   C     0.55430   0.31726   0.89405   0.00000  Uiso   1.00
C288   C     0.52929   0.31952   0.79991   0.00000  Uiso   1.00
C289   C     0.48987   0.30703   0.64415   0.00000  Uiso   1.00
C290   C     0.56376   0.42510   0.97910   0.00000  Uiso   1.00
C291   C     0.60936   0.42308   0.97779   0.00000  Uiso   1.00
C292   C     0.63487   0.45341   0.94241   0.00000  Uiso   1.00
C293   C     0.67567   0.44570   0.94775   0.00000  Uiso   1.00
C294   C     0.55117   0.41612   0.10115   0.00000  Uiso   1.00
C295   C     0.52775   0.44060   0.16947   0.00000  Uiso   1.00
C296   C     0.51956   0.42704   0.27865   0.00000  Uiso   1.00
C297   C     0.54931   0.38976   0.90800   0.00000  Uiso   1.00
C298   C     0.52432   0.39208   0.81394   0.00000  Uiso   1.00
C299   C     0.51455   0.35632   0.76052   0.00000  Uiso   1.00
H300   H     0.60232   0.32887   0.08213   0.00000  Uiso   1.00
H301   H     0.67623   0.35016   0.05296   0.00000  Uiso   1.00
H302   H     0.56912   0.33735   0.27998   0.00000  Uiso   1.00
H303   H     0.56569   0.28884   0.92450   0.00000  Uiso   1.00
H304   H     0.75169   0.38996   0.00332   0.00000  Uiso   1.00
H305   H     0.52584   0.36295   0.48199   0.00000  Uiso   1.00
H306   H     0.51860   0.26064   0.73240   0.00000  Uiso   1.00
H307   H     0.55230   0.45370   0.94849   0.00000  Uiso   1.00
H308   H     0.62347   0.48184   0.91198   0.00000  Uiso   1.00
H309   H     0.51636   0.46903   0.13900   0.00000  Uiso   1.00
H310   H     0.51293   0.42051   0.78353   0.00000  Uiso   1.00
H311   H     0.70887   0.49684   0.88890   0.00000  Uiso   1.00
H312   H     0.48301   0.46982   0.36757   0.00000  Uiso   1.00
H313   H     0.47578   0.36752   0.61798   0.00000  Uiso   1.00
O314   O     0.77800   0.45966   0.92454   0.00000  Uiso   1.00
O315   O     0.48169   0.42421   0.55253   0.00000  Uiso   1.00
O316   O     0.47219   0.28999   0.56908   0.00000  Uiso   1.00
N317   N     0.73184   0.41125   0.98138   0.00000  Uiso   1.00
N318   N     0.52069   0.38600   0.42891   0.00000  Uiso   1.00
N319   N     0.51391   0.29035   0.72813   0.00000  Uiso   1.00
N320   N     0.70880   0.46876   0.91981   0.00000  Uiso   1.00
N321   N     0.49765   0.44350   0.36734   0.00000  Uiso   1.00
N322   N     0.49087   0.34786   0.66656   0.00000  Uiso   1.00
C323   C     0.09086   0.85747   0.55151   0.00000  Uiso   1.00
C324   C     0.12408   0.88634   0.51712   0.00000  Uiso   1.00
C325   C     0.16485   0.87859   0.52251   0.00000  Uiso   1.00
C326   C     0.19042   0.90891   0.48715   0.00000  Uiso   1.00
C327   C     0.24424   0.94816   0.43979   0.00000  Uiso   1.00
C328   C     0.06589   0.87939   0.64047   0.00000  Uiso   1.00
C329   C     0.05773   0.86578   0.74957   0.00000  Uiso   1.00
C330   C     0.03431   0.89024   0.81804   0.00000  Uiso   1.00
C331   C     0.99777   0.91867   0.96216   0.00000  Uiso   1.00
C332   C     0.06403   0.85303   0.44733   0.00000  Uiso   1.00
C333   C     0.05430   0.81726   0.39405   0.00000  Uiso   1.00
C334   C     0.02929   0.81952   0.29991   0.00000  Uiso   1.00
C335   C     0.98987   0.80703   0.14415   0.00000  Uiso   1.00
C336   C     0.06376   0.92510   0.47910   0.00000  Uiso   1.00
C337   C     0.10936   0.92308   0.47779   0.00000  Uiso   1.00
C338   C     0.13487   0.95341   0.44241   0.00000  Uiso   1.00
C339   C     0.17567   0.94570   0.44775   0.00000  Uiso   1.00
C340   C     0.05117   0.91612   0.60115   0.00000  Uiso   1.00
C341   C     0.02775   0.94060   0.66947   0.00000  Uiso   1.00
C342   C     0.01956   0.92704   0.77865   0.00000  Uiso   1.00
C343   C     0.04931   0.88976   0.40800   0.00000  Uiso   1.00
C344   C     0.02432   0.89208   0.31394   0.00000  Uiso   1.00
C345   C     0.01455   0.85632   0.26052   0.00000  Uiso   1.00
H346   H     0.10232   0.82887   0.58213   0.00000  Uiso   1.00
H347   H     0.17623   0.85016   0.55296   0.00000  Uiso   1.00
H348   H     0.06912   0.83735   0.77998   0.00000  Uiso   1.00
H349   H     0.06569   0.78884   0.42450   0.00000  Uiso   1.00
H350   H     0.25169   0.88996   0.50332   0.00000  Uiso   1.00
H351   H     0.02584   0.86295   0.98199   0.00000  Uiso   1.00
H352   H     0.01860   0.76064   0.23240   0.00000  Uiso   1.00
H353   H     0.05230   0.95370   0.44849   0.00000  Uiso   1.00
H354   H     0.12347   0.98184   0.41198   0.00000  Uiso   1.00
H355   H     0.01636   0.96903   0.63900   0.00000  Uiso   1.00
H356   H     0.01293   0.92051   0.28353   0.00000  Uiso   1.00
H357   H     0.20887   0.99684   0.38890   0.00000  Uiso   1.00
H358   H     0.98301   0.96982   0.86757   0.00000  Uiso   1.00
H359   H     0.97578   0.86752   0.11798   0.00000  Uiso   1.00
O360   O     0.27800   0.95966   0.42454   0.00000  Uiso   1.00
O361   O     0.98169   0.92421   0.05253   0.00000  Uiso   1.00
O362   O     0.97219   0.78999   0.06908   0.00000  Uiso   1.00
N363   N     0.23184   0.91125   0.48138   0.00000  Uiso   1.00
N364   N     0.02069   0.88600   0.92891   0.00000  Uiso   1.00
N365   N     0.01391   0.79035   0.22813   0.00000  Uiso   1.00
N366   N     0.20880   0.96876   0.41981   0.00000  Uiso   1.00
N367   N     0.99765   0.94350   0.86734   0.00000  Uiso   1.00
N368   N     0.99087   0.84786   0.16656   0.00000  Uiso   1.00
C369   C     0.35747   0.40914   0.94849   0.00000  Uiso   1.00
C370   C     0.38634   0.37592   0.98288   0.00000  Uiso   1.00
C371   C     0.37859   0.33515   0.97749   0.00000  Uiso   1.00
C372   C     0.40891   0.30958   0.01285   0.00000  Uiso   1.00
C373   C     0.44816   0.25576   0.06021   0.00000  Uiso   1.00
C374   C     0.37939   0.43411   0.85953   0.00000  Uiso   1.00
C375   C     0.36578   0.44227   0.75043   0.00000  Uiso   1.00
C376   C     0.39024   0.46569   0.68196   0.00000  Uiso   1.00
C377   C     0.41867   0.50223   0.53784   0.00000  Uiso   1.00
C378   C     0.35303   0.43597   0.05267   0.00000  Uiso   1.00
C379   C     0.31726   0.44570   0.10595   0.00000  Uiso   1.00
C380   C     0.31952   0.47071   0.20009   0.00000  Uiso   1.00
C381   C     0.30703   0.51013   0.35585   0.00000  Uiso   1.00
C382   C     0.42510   0.43624   0.02090   0.00000  Uiso   1.00
C383   C     0.42308   0.39064   0.02221   0.00000  Uiso   1.00
C384   C     0.45341   0.36513   0.05759   0.00000  Uiso   1.00
C385   C     0.44570   0.32433   0.05225   0.00000  Uiso   1.00
C386   C     0.41612   0.44883   0.89885   0.00000  Uiso   1.00
C387   C     0.44060   0.47225   0.83053   0.00000  Uiso   1.00
C388   C     0.42704   0.48044   0.72135   0.00000  Uiso   1.00
C389   C     0.38976   0.45069   0.09200   0.00000  Uiso   1.00
C390   C     0.39208   0.47568   0.18606   0.00000  Uiso   1.00
C391   C     0.35632   0.48545   0.23948   0.00000  Uiso   1.00
H392   H     0.32887   0.39768   0.91787   0.00000  Uiso   1.00
H393   H     0.35016   0.32377   0.94704   0.00000  Uiso   1.00
H394   H     0.33735   0.43088   0.72002   0.00000  Uiso   1.00
H395   H     0.28884   0.43431   0.07550   0.00000  Uiso   1.00
H396   H     0.38996   0.24831   0.99668   0.00000  Uiso   1.00
H397   H     0.36295   0.47416   0.51801   0.00000  Uiso   1.00
H398   H     0.26064   0.48140   0.26760   0.00000  Uiso   1.00
H399   H     0.45370   0.44770   0.05151   0.00000  Uiso   1.00
H400   H     0.48184   0.37653   0.08802   0.00000  Uiso   1.00
H401   H     0.46903   0.48364   0.86100   0.00000  Uiso   1.00
H402   H     0.42051   0.48707   0.21647   0.00000  Uiso   1.00
H403   H     0.49684   0.29113   0.11110   0.00000  Uiso   1.00
H404   H     0.46982   0.51699   0.63243   0.00000  Uiso   1.00
H405   H     0.36752   0.52422   0.38202   0.00000  Uiso   1.00
O406   O     0.45966   0.22200   0.07546   0.00000  Uiso   1.00
O407   O     0.42421   0.51831   0.44747   0.00000  Uiso   1.00
O408   O     0.28999   0.52781   0.43092   0.00000  Uiso   1.00
N409   N     0.41125   0.26816   0.01862   0.00000  Uiso   1.00
N410   N     0.38600   0.47931   0.57109   0.00000  Uiso   1.00
N411   N     0.29035   0.48609   0.27187   0.00000  Uiso   1.00
N412   N     0.46876   0.29120   0.08019   0.00000  Uiso   1.00
N413   N     0.44350   0.50235   0.63266   0.00000  Uiso   1.00
N414   N     0.34786   0.50913   0.33344   0.00000  Uiso   1.00
C415   C     0.85747   0.90914   0.44849   0.00000  Uiso   1.00
C416   C     0.88634   0.87592   0.48288   0.00000  Uiso   1.00
C417   C     0.87859   0.83515   0.47749   0.00000  Uiso   1.00
C418   C     0.90891   0.80958   0.51285   0.00000  Uiso   1.00
C419   C     0.94816   0.75576   0.56021   0.00000  Uiso   1.00
C420   C     0.87939   0.93411   0.35953   0.00000  Uiso   1.00
C421   C     0.86578   0.94227   0.25043   0.00000  Uiso   1.00
C422   C     0.89024   0.96569   0.18196   0.00000  Uiso   1.00
C423   C     0.91867   0.00223   0.03784   0.00000  Uiso   1.00
C424   C     0.85303   0.93597   0.55267   0.00000  Uiso   1.00
C425   C     0.81726   0.94570   0.60595   0.00000  Uiso   1.00
C426   C     0.81952   0.97071   0.70009   0.00000  Uiso   1.00
C427   C     0.80703   0.01013   0.85585   0.00000  Uiso   1.00
C428   C     0.92510   0.93624   0.52090   0.00000  Uiso   1.00
C429   C     0.92308   0.89064   0.52221   0.00000  Uiso   1.00
C430   C     0.95341   0.86513   0.55759   0.00000  Uiso   1.00
C431   C     0.94570   0.82433   0.55225   0.00000  Uiso   1.00
C432   C     0.91612   0.94883   0.39885   0.00000  Uiso   1.00
C433   C     0.94060   0.97225   0.33053   0.00000  Uiso   1.00
C434   C     0.92704   0.98044   0.22135   0.00000  Uiso   1.00
C435   C     0.88976   0.95069   0.59200   0.00000  Uiso   1.00
C436   C     0.89208   0.97568   0.68606   0.00000  Uiso   1.00
C437   C     0.85632   0.98545   0.73948   0.00000  Uiso   1.00
H438   H     0.82887   0.89768   0.41787   0.00000  Uiso   1.00
H439   H     0.85016   0.82377   0.44704   0.00000  Uiso   1.00
H440   H     0.83735   0.93088   0.22002   0.00000  Uiso   1.00
H441   H     0.78884   0.93431   0.57550   0.00000  Uiso   1.00
H442   H     0.88996   0.74831   0.49668   0.00000  Uiso   1.00
H443   H     0.86295   0.97416   0.01801   0.00000  Uiso   1.00
H444   H     0.76064   0.98140   0.76760   0.00000  Uiso   1.00
H445   H     0.95370   0.94770   0.55151   0.00000  Uiso   1.00
H446   H     0.98184   0.87653   0.58802   0.00000  Uiso   1.00
H447   H     0.96903   0.98364   0.36100   0.00000  Uiso   1.00
H448   H     0.92051   0.98707   0.71647   0.00000  Uiso   1.00
H449   H     0.99684   0.79113   0.61110   0.00000  Uiso   1.00
H450   H     0.96982   0.01699   0.13243   0.00000  Uiso   1.00
H451   H     0.86752   0.02422   0.88202   0.00000  Uiso   1.00
O452   O     0.95966   0.72200   0.57546   0.00000  Uiso   1.00
O453   O     0.92421   0.01831   0.94747   0.00000  Uiso   1.00
O454   O     0.78999   0.02781   0.93092   0.00000  Uiso   1.00
N455   N     0.91125   0.76816   0.51862   0.00000  Uiso   1.00
N456   N     0.88600   0.97931   0.07109   0.00000  Uiso   1.00
N457   N     0.79035   0.98609   0.77187   0.00000  Uiso   1.00
N458   N     0.96876   0.79120   0.58019   0.00000  Uiso   1.00
N459   N     0.94350   0.00235   0.13266   0.00000  Uiso   1.00
N460   N     0.84786   0.00913   0.83344   0.00000  Uiso   1.00
C461   C     0.14253   0.09086   0.44849   0.00000  Uiso   1.00
C462   C     0.11366   0.12408   0.48288   0.00000  Uiso   1.00
C463   C     0.12141   0.16485   0.47749   0.00000  Uiso   1.00
C464   C     0.09109   0.19042   0.51285   0.00000  Uiso   1.00
C465   C     0.05184   0.24424   0.56021   0.00000  Uiso   1.00
C466   C     0.12061   0.06589   0.35953   0.00000  Uiso   1.00
C467   C     0.13422   0.05773   0.25043   0.00000  Uiso   1.00
C468   C     0.10976   0.03431   0.18196   0.00000  Uiso   1.00
C469   C     0.08133   0.99777   0.03784   0.00000  Uiso   1.00
C470   C     0.14697   0.06403   0.55267   0.00000  Uiso   1.00
C471   C     0.18274   0.05430   0.60595   0.00000  Uiso   1.00
C472   C     0.18048   0.02929   0.70009   0.00000  Uiso   1.00
C473   C     0.19297   0.98987   0.85585   0.00000  Uiso   1.00
C474   C     0.07490   0.06376   0.52090   0.00000  Uiso   1.00
C475   C     0.07692   0.10936   0.52221   0.00000  Uiso   1.00
C476   C     0.04659   0.13487   0.55759   0.00000  Uiso   1.00
C477   C     0.05430   0.17567   0.55225   0.00000  Uiso   1.00
C478   C     0.08388   0.05117   0.39885   0.00000  Uiso   1.00
C479   C     0.05940   0.02775   0.33053   0.00000  Uiso   1.00
C480   C     0.07296   0.01956   0.22135   0.00000  Uiso   1.00
C481   C     0.11024   0.04931   0.59200   0.00000  Uiso   1.00
C482   C     0.10792   0.02432   0.68606   0.00000  Uiso   1.00
C483   C     0.14368   0.01455   0.73948   0.00000  Uiso   1.00
H484   H     0.17113   0.10232   0.41787   0.00000  Uiso   1.00
H485   H     0.14984   0.17623   0.44704   0.00000  Uiso   1.00
H486   H     0.16265   0.06912   0.22002   0.00000  Uiso   1.00
H487   H     0.21116   0.06569   0.57550   0.00000  Uiso   1.00
H488   H     0.11004   0.25169   0.49668   0.00000  Uiso   1.00
H489   H     0.13705   0.02584   0.01801   0.00000  Uiso   1.00
H490   H     0.23936   0.01860   0.76760   0.00000  Uiso   1.00
H491   H     0.04630   0.05230   0.55151   0.00000  Uiso   1.00
H492   H     0.01816   0.12347   0.58802   0.00000  Uiso   1.00
H493   H     0.03097   0.01636   0.36100   0.00000  Uiso   1.00
H494   H     0.07949   0.01293   0.71647   0.00000  Uiso   1.00
H495   H     0.00316   0.20887   0.61110   0.00000  Uiso   1.00
H496   H     0.03018   0.98301   0.13243   0.00000  Uiso   1.00
H497   H     0.13248   0.97578   0.88202   0.00000  Uiso   1.00
O498   O     0.04034   0.27800   0.57546   0.00000  Uiso   1.00
O499   O     0.07579   0.98169   0.94747   0.00000  Uiso   1.00
O500   O     0.21001   0.97219   0.93092   0.00000  Uiso   1.00
N501   N     0.08875   0.23184   0.51862   0.00000  Uiso   1.00
N502   N     0.11400   0.02069   0.07109   0.00000  Uiso   1.00
N503   N     0.20965   0.01391   0.77187   0.00000  Uiso   1.00
N504   N     0.03124   0.20880   0.58019   0.00000  Uiso   1.00
N505   N     0.05650   0.99765   0.13266   0.00000  Uiso   1.00
N506   N     0.15214   0.99087   0.83344   0.00000  Uiso   1.00
C507   C     0.64253   0.59086   0.94849   0.00000  Uiso   1.00
C508   C     0.61366   0.62408   0.98288   0.00000  Uiso   1.00
C509   C     0.62141   0.66485   0.97749   0.00000  Uiso   1.00
C510   C     0.59109   0.69042   0.01285   0.00000  Uiso   1.00
C511   C     0.55184   0.74424   0.06021   0.00000  Uiso   1.00
C512   C     0.62061   0.56589   0.85953   0.00000  Uiso   1.00
C513   C     0.63422   0.55773   0.75043   0.00000  Uiso   1.00
C514   C     0.60976   0.53431   0.68196   0.00000  Uiso   1.00
C515   C     0.58133   0.49777   0.53784   0.00000  Uiso   1.00
C516   C     0.64697   0.56403   0.05267   0.00000  Uiso   1.00
C517   C     0.68274   0.55430   0.10595   0.00000  Uiso   1.00
C518   C     0.68048   0.52929   0.20009   0.00000  Uiso   1.00
C519   C     0.69297   0.48987   0.35585   0.00000  Uiso   1.00
C520   C     0.57490   0.56376   0.02090   0.00000  Uiso   1.00
C521   C     0.57692   0.60936   0.02221   0.00000  Uiso   1.00
C522   C     0.54659   0.63487   0.05759   0.00000  Uiso   1.00
C523   C     0.55430   0.67567   0.05225   0.00000  Uiso   1.00
C524   C     0.58388   0.55117   0.89885   0.00000  Uiso   1.00
C525   C     0.55940   0.52775   0.83053   0.00000  Uiso   1.00
C526   C     0.57296   0.51956   0.72135   0.00000  Uiso   1.00
C527   C     0.61024   0.54931   0.09200   0.00000  Uiso   1.00
C528   C     0.60792   0.52432   0.18606   0.00000  Uiso   1.00
C529   C     0.64368   0.51455   0.23948   0.00000  Uiso   1.00
H530   H     0.67113   0.60232   0.91787   0.00000  Uiso   1.00
H531   H     0.64984   0.67623   0.94704   0.00000  Uiso   1.00
H532   H     0.66265   0.56912   0.72002   0.00000  Uiso   1.00
H533   H     0.71116   0.56569   0.07550   0.00000  Uiso   1.00
H534   H     0.61004   0.75169   0.99668   0.00000  Uiso   1.00
H535   H     0.63705   0.52584   0.51801   0.00000  Uiso   1.00
H536   H     0.73936   0.51860   0.26760   0.00000  Uiso   1.00
H537   H     0.54630   0.55230   0.05151   0.00000  Uiso   1.00
H538   H     0.51816   0.62347   0.08802   0.00000  Uiso   1.00
H539   H     0.53097   0.51636   0.86100   0.00000  Uiso   1.00
H540   H     0.57949   0.51293   0.21647   0.00000  Uiso   1.00
H541   H     0.50316   0.70887   0.11110   0.00000  Uiso   1.00
H542   H     0.53018   0.48301   0.63243   0.00000  Uiso   1.00
H543   H     0.63248   0.47578   0.38202   0.00000  Uiso   1.00
O544   O     0.54034   0.77800   0.07546   0.00000  Uiso   1.00
O545   O     0.57579   0.48169   0.44747   0.00000  Uiso   1.00
O546   O     0.71001   0.47219   0.43092   0.00000  Uiso   1.00
N547   N     0.58875   0.73184   0.01862   0.00000  Uiso   1.00
N548   N     0.61400   0.52069   0.57109   0.00000  Uiso   1.00
N549   N     0.70965   0.51391   0.27187   0.00000  Uiso   1.00
N550   N     0.53124   0.70880   0.08019   0.00000  Uiso   1.00
N551   N     0.55650   0.49765   0.63266   0.00000  Uiso   1.00
N552   N     0.65214   0.49087   0.33344   0.00000  Uiso   1.00
C553   C     0.09086   0.35747   0.69849   0.00000  Uiso   1.00
C554   C     0.12408   0.38634   0.73288   0.00000  Uiso   1.00
C555   C     0.16485   0.37859   0.72749   0.00000  Uiso   1.00
C556   C     0.19042   0.40891   0.76285   0.00000  Uiso   1.00
C557   C     0.24424   0.44816   0.81021   0.00000  Uiso   1.00
C558   C     0.06589   0.37939   0.60953   0.00000  Uiso   1.00
C559   C     0.05773   0.36578   0.50043   0.00000  Uiso   1.00
C560   C     0.03431   0.39024   0.43196   0.00000  Uiso   1.00
C561   C     0.99777   0.41867   0.28784   0.00000  Uiso   1.00
C562   C     0.06403   0.35303   0.80267   0.00000  Uiso   1.00
C563   C     0.05430   0.31726   0.85595   0.00000  Uiso   1.00
C564   C     0.02929   0.31952   0.95009   0.00000  Uiso   1.00
C565   C     0.98987   0.30703   0.10585   0.00000  Uiso   1.00
C566   C     0.06376   0.42510   0.77090   0.00000  Uiso   1.00
C567   C     0.10936   0.42308   0.77221   0.00000  Uiso   1.00
C568   C     0.13487   0.45341   0.80759   0.00000  Uiso   1.00
C569   C     0.17567   0.44570   0.80225   0.00000  Uiso   1.00
C570   C     0.05117   0.41612   0.64885   0.00000  Uiso   1.00
C571   C     0.02775   0.44060   0.58053   0.00000  Uiso   1.00
C572   C     0.01956   0.42704   0.47135   0.00000  Uiso   1.00
C573   C     0.04931   0.38976   0.84200   0.00000  Uiso   1.00
C574   C     0.02432   0.39208   0.93606   0.00000  Uiso   1.00
C575   C     0.01455   0.35632   0.98948   0.00000  Uiso   1.00
H576   H     0.10232   0.32887   0.66787   0.00000  Uiso   1.00
H577   H     0.17623   0.35016   0.69704   0.00000  Uiso   1.00
H578   H     0.06912   0.33735   0.47002   0.00000  Uiso   1.00
H579   H     0.06569   0.28884   0.82550   0.00000  Uiso   1.00
H580   H     0.25169   0.38996   0.74668   0.00000  Uiso   1.00
H581   H     0.02584   0.36295   0.26801   0.00000  Uiso   1.00
H582   H     0.01860   0.26064   0.01760   0.00000  Uiso   1.00
H583   H     0.05230   0.45370   0.80151   0.00000  Uiso   1.00
H584   H     0.12347   0.48184   0.83802   0.00000  Uiso   1.00
H585   H     0.01636   0.46903   0.61100   0.00000  Uiso   1.00
H586   H     0.01293   0.42051   0.96647   0.00000  Uiso   1.00
H587   H     0.20887   0.49684   0.86110   0.00000  Uiso   1.00
H588   H     0.98301   0.46982   0.38243   0.00000  Uiso   1.00
H589   H     0.97578   0.36752   0.13202   0.00000  Uiso   1.00
O590   O     0.27800   0.45966   0.82546   0.00000  Uiso   1.00
O591   O     0.98169   0.42421   0.19747   0.00000  Uiso   1.00
O592   O     0.97219   0.28999   0.18092   0.00000  Uiso   1.00
N593   N     0.23184   0.41125   0.76862   0.00000  Uiso   1.00
N594   N     0.02069   0.38600   0.32109   0.00000  Uiso   1.00
N595   N     0.01391   0.29035   0.02187   0.00000  Uiso   1.00
N596   N     0.20880   0.46876   0.83019   0.00000  Uiso   1.00
N597   N     0.99765   0.44350   0.38266   0.00000  Uiso   1.00
N598   N     0.99087   0.34786   0.08344   0.00000  Uiso   1.00
C599   C     0.59086   0.85747   0.19849   0.00000  Uiso   1.00
C600   C     0.62408   0.88634   0.23288   0.00000  Uiso   1.00
C601   C     0.66485   0.87859   0.22749   0.00000  Uiso   1.00
C602   C     0.69042   0.90891   0.26285   0.00000  Uiso   1.00
C603   C     0.74424   0.94816   0.31021   0.00000  Uiso   1.00
C604   C     0.56589   0.87939   0.10953   0.00000  Uiso   1.00
C605   C     0.55773   0.86578   0.00043   0.00000  Uiso   1.00
C606   C     0.53431   0.89024   0.93196   0.00000  Uiso   1.00
C607   C     0.49777   0.91867   0.78784   0.00000  Uiso   1.00
C608   C     0.56403   0.85303   0.30267   0.00000  Uiso   1.00
C609   C     0.55430   0.81726   0.35595   0.00000  Uiso   1.00
C610   C     0.52929   0.81952   0.45009   0.00000  Uiso   1.00
C611   C     0.48987   0.80703   0.60585   0.00000  Uiso   1.00
C612   C     0.56376   0.92510   0.27090   0.00000  Uiso   1.00
C613   C     0.60936   0.92308   0.27221   0.00000  Uiso   1.00
C614   C     0.63487   0.95341   0.30759   0.00000  Uiso   1.00
C615   C     0.67567   0.94570   0.30225   0.00000  Uiso   1.00
C616   C     0.55117   0.91612   0.14885   0.00000  Uiso   1.00
C617   C     0.52775   0.94060   0.08053   0.00000  Uiso   1.00
C618   C     0.51956   0.92704   0.97135   0.00000  Uiso   1.00
C619   C     0.54931   0.88976   0.34200   0.00000  Uiso   1.00
C620   C     0.52432   0.89208   0.43606   0.00000  Uiso   1.00
C621   C     0.51455   0.85632   0.48948   0.00000  Uiso   1.00
H622   H     0.60232   0.82887   0.16787   0.00000  Uiso   1.00
H623   H     0.67623   0.85016   0.19704   0.00000  Uiso   1.00
H624   H     0.56912   0.83735   0.97002   0.00000  Uiso   1.00
H625   H     0.56569   0.78884   0.32550   0.00000  Uiso   1.00
H626   H     0.75169   0.88996   0.24668   0.00000  Uiso   1.00
H627   H     0.52584   0.86295   0.76801   0.00000  Uiso   1.00
H628   H     0.51860   0.76064   0.51760   0.00000  Uiso   1.00
H629   H     0.55230   0.95370   0.30151   0.00000  Uiso   1.00
H630   H     0.62347   0.98184   0.33802   0.00000  Uiso   1.00
H631   H     0.51636   0.96903   0.11100   0.00000  Uiso   1.00
H632   H     0.51293   0.92051   0.46647   0.00000  Uiso   1.00
H633   H     0.70887   0.99684   0.36110   0.00000  Uiso   1.00
H634   H     0.48301   0.96982   0.88243   0.00000  Uiso   1.00
H635   H     0.47578   0.86752   0.63202   0.00000  Uiso   1.00
O636   O     0.77800   0.95966   0.32546   0.00000  Uiso   1.00
O637   O     0.48169   0.92421   0.69747   0.00000  Uiso   1.00
O638   O     0.47219   0.78999   0.68092   0.00000  Uiso   1.00
N639   N     0.73184   0.91125   0.26862   0.00000  Uiso   1.00
N640   N     0.52069   0.88600   0.82109   0.00000  Uiso   1.00
N641   N     0.51391   0.79035   0.52187   0.00000  Uiso   1.00
N642   N     0.70880   0.96876   0.33019   0.00000  Uiso   1.00
N643   N     0.49765   0.94350   0.88266   0.00000  Uiso   1.00
N644   N     0.49087   0.84786   0.58344   0.00000  Uiso   1.00
C645   C     0.40914   0.14253   0.19849   0.00000  Uiso   1.00
C646   C     0.37592   0.11366   0.23288   0.00000  Uiso   1.00
C647   C     0.33515   0.12141   0.22749   0.00000  Uiso   1.00
C648   C     0.30958   0.09109   0.26285   0.00000  Uiso   1.00
C649   C     0.25576   0.05184   0.31021   0.00000  Uiso   1.00
C650   C     0.43411   0.12061   0.10953   0.00000  Uiso   1.00
C651   C     0.44227   0.13422   0.00043   0.00000  Uiso   1.00
C652   C     0.46569   0.10976   0.93196   0.00000  Uiso   1.00
C653   C     0.50223   0.08133   0.78784   0.00000  Uiso   1.00
C654   C     0.43597   0.14697   0.30267   0.00000  Uiso   1.00
C655   C     0.44570   0.18274   0.35595   0.00000  Uiso   1.00
C656   C     0.47071   0.18048   0.45009   0.00000  Uiso   1.00
C657   C     0.51013   0.19297   0.60585   0.00000  Uiso   1.00
C658   C     0.43624   0.07490   0.27090   0.00000  Uiso   1.00
C659   C     0.39064   0.07692   0.27221   0.00000  Uiso   1.00
C660   C     0.36513   0.04659   0.30759   0.00000  Uiso   1.00
C661   C     0.32433   0.05430   0.30225   0.00000  Uiso   1.00
C662   C     0.44883   0.08388   0.14885   0.00000  Uiso   1.00
C663   C     0.47225   0.05940   0.08053   0.00000  Uiso   1.00
C664   C     0.48044   0.07296   0.97135   0.00000  Uiso   1.00
C665   C     0.45069   0.11024   0.34200   0.00000  Uiso   1.00
C666   C     0.47568   0.10792   0.43606   0.00000  Uiso   1.00
C667   C     0.48545   0.14368   0.48948   0.00000  Uiso   1.00
H668   H     0.39768   0.17113   0.16787   0.00000  Uiso   1.00
H669   H     0.32377   0.14984   0.19704   0.00000  Uiso   1.00
H670   H     0.43088   0.16265   0.97002   0.00000  Uiso   1.00
H671   H     0.43431   0.21116   0.32550   0.00000  Uiso   1.00
H672   H     0.24831   0.11004   0.24668   0.00000  Uiso   1.00
H673   H     0.47416   0.13705   0.76801   0.00000  Uiso   1.00
H674   H     0.48140   0.23936   0.51760   0.00000  Uiso   1.00
H675   H     0.44770   0.04630   0.30151   0.00000  Uiso   1.00
H676   H     0.37653   0.01816   0.33802   0.00000  Uiso   1.00
H677   H     0.48364   0.03097   0.11100   0.00000  Uiso   1.00
H678   H     0.48707   0.07949   0.46647   0.00000  Uiso   1.00
H679   H     0.29113   0.00316   0.36110   0.00000  Uiso   1.00
H680   H     0.51699   0.03018   0.88243   0.00000  Uiso   1.00
H681   H     0.52422   0.13248   0.63202   0.00000  Uiso   1.00
O682   O     0.22200   0.04034   0.32546   0.00000  Uiso   1.00
O683   O     0.51831   0.07579   0.69747   0.00000  Uiso   1.00
O684   O     0.52781   0.21001   0.68092   0.00000  Uiso   1.00
N685   N     0.26816   0.08875   0.26862   0.00000  Uiso   1.00
N686   N     0.47931   0.11400   0.82109   0.00000  Uiso   1.00
N687   N     0.48609   0.20965   0.52187   0.00000  Uiso   1.00
N688   N     0.29120   0.03124   0.33019   0.00000  Uiso   1.00
N689   N     0.50235   0.05650   0.88266   0.00000  Uiso   1.00
N690   N     0.50913   0.15214   0.58344   0.00000  Uiso   1.00
C691   C     0.90914   0.64253   0.69849   0.00000  Uiso   1.00
C692   C     0.87592   0.61366   0.73288   0.00000  Uiso   1.00
C693   C     0.83515   0.62141   0.72749   0.00000  Uiso   1.00
C694   C     0.80958   0.59109   0.76285   0.00000  Uiso   1.00
C695   C     0.75576   0.55184   0.81021   0.00000  Uiso   1.00
C696   C     0.93411   0.62061   0.60953   0.00000  Uiso   1.00
C697   C     0.94227   0.63422   0.50043   0.00000  Uiso   1.00
C698   C     0.96569   0.60976   0.43196   0.00000  Uiso   1.00
C699   C     0.00223   0.58133   0.28784   0.00000  Uiso   1.00
C700   C     0.93597   0.64697   0.80267   0.00000  Uiso   1.00
C701   C     0.94570   0.68274   0.85595   0.00000  Uiso   1.00
C702   C     0.97071   0.68048   0.95009   0.00000  Uiso   1.00
C703   C     0.01013   0.69297   0.10585   0.00000  Uiso   1.00
C704   C     0.93624   0.57490   0.77090   0.00000  Uiso   1.00
C705   C     0.89064   0.57692   0.77221   0.00000  Uiso   1.00
C706   C     0.86513   0.54659   0.80759   0.00000  Uiso   1.00
C707   C     0.82433   0.55430   0.80225   0.00000  Uiso   1.00
C708   C     0.94883   0.58388   0.64885   0.00000  Uiso   1.00
C709   C     0.97225   0.55940   0.58053   0.00000  Uiso   1.00
C710   C     0.98044   0.57296   0.47135   0.00000  Uiso   1.00
C711   C     0.95069   0.61024   0.84200   0.00000  Uiso   1.00
C712   C     0.97568   0.60792   0.93606   0.00000  Uiso   1.00
C713   C     0.98545   0.64368   0.98948   0.00000  Uiso   1.00
H714   H     0.89768   0.67113   0.66787   0.00000  Uiso   1.00
H715   H     0.82377   0.64984   0.69704   0.00000  Uiso   1.00
H716   H     0.93088   0.66265   0.47002   0.00000  Uiso   1.00
H717   H     0.93431   0.71116   0.82550   0.00000  Uiso   1.00
H718   H     0.74831   0.61004   0.74668   0.00000  Uiso   1.00
H719   H     0.97416   0.63705   0.26801   0.00000  Uiso   1.00
H720   H     0.98140   0.73936   0.01760   0.00000  Uiso   1.00
H721   H     0.94770   0.54630   0.80151   0.00000  Uiso   1.00
H722   H     0.87653   0.51816   0.83802   0.00000  Uiso   1.00
H723   H     0.98364   0.53097   0.61100   0.00000  Uiso   1.00
H724   H     0.98707   0.57949   0.96647   0.00000  Uiso   1.00
H725   H     0.79113   0.50316   0.86110   0.00000  Uiso   1.00
H726   H     0.01699   0.53018   0.38243   0.00000  Uiso   1.00
H727   H     0.02422   0.63248   0.13202   0.00000  Uiso   1.00
O728   O     0.72200   0.54034   0.82546   0.00000  Uiso   1.00
O729   O     0.01831   0.57579   0.19747   0.00000  Uiso   1.00
O730   O     0.02781   0.71001   0.18092   0.00000  Uiso   1.00
N731   N     0.76816   0.58875   0.76862   0.00000  Uiso   1.00
N732   N     0.97931   0.61400   0.32109   0.00000  Uiso   1.00
N733   N     0.98609   0.70965   0.02187   0.00000  Uiso   1.00
N734   N     0.79120   0.53124   0.83019   0.00000  Uiso   1.00
N735   N     0.00235   0.55650   0.38266   0.00000  Uiso   1.00
N736   N     0.00913   0.65214   0.08344   0.00000  Uiso   1.00
