data_job_07078
_audit_creation_date              2018-12-19
_audit_creation_method            'Materials Studio'
_symmetry_space_group_name_H-M    'P1'
_symmetry_Int_Tables_number       1
_symmetry_cell_setting            triclinic
loop_
_symmetry_equiv_pos_as_xyz
  x,y,z
_cell_length_a                    29.1824
_cell_length_b                    29.1824
_cell_length_c                    51.8760
_cell_angle_alpha                 90.0000
_cell_angle_beta                  90.0000
_cell_angle_gamma                 120.0000
loop_
_atom_site_label
_atom_site_type_symbol
_atom_site_fract_x
_atom_site_fract_y
_atom_site_fract_z
_atom_site_U_iso_or_equiv
_atom_site_adp_type
_atom_site_occupancy
C1     C     0.75560   0.97069   0.65351   0.00000  Uiso   1.00
C2     C     0.74914   0.93379   0.63125   0.00000  Uiso   1.00
C3     C     0.75205   0.88787   0.63309   0.00000  Uiso   1.00
C4     C     0.74505   0.85961   0.61049   0.00000  Uiso   1.00
C5     C     0.73650   0.79974   0.57951   0.00000  Uiso   1.00
C6     C     0.80023   0.02531   0.64570   0.00000  Uiso   1.00
C7     C     0.17943   0.72300   0.32636   0.00000  Uiso   1.00
C8     C     0.21544   0.77178   0.31592   0.00000  Uiso   1.00
C9     C     0.95287   0.18734   0.64072   0.00000  Uiso   1.00
C10    C     0.70537   0.97453   0.65384   0.00000  Uiso   1.00
C11    C     0.67148   0.96287   0.67468   0.00000  Uiso   1.00
C12    C     0.62764   0.96891   0.67111   0.00000  Uiso   1.00
C13    C     0.55112   0.97228   0.67521   0.00000  Uiso   1.00
C14    C     0.73800   0.00216   0.61011   0.00000  Uiso   1.00
C15    C     0.73958   0.95089   0.60767   0.00000  Uiso   1.00
C16    C     0.73258   0.92269   0.58507   0.00000  Uiso   1.00
C17    C     0.73548   0.87673   0.58687   0.00000  Uiso   1.00
C18    C     0.79068   0.04240   0.62212   0.00000  Uiso   1.00
C19    C     0.49330   0.42448   0.94500   0.00000  Uiso   1.00
C20    C     0.87254   0.12224   0.62564   0.00000  Uiso   1.00
C21    C     0.69582   0.99162   0.63027   0.00000  Uiso   1.00
C22    C     0.65202   0.99768   0.62666   0.00000  Uiso   1.00
C23    C     0.61807   0.98603   0.64749   0.00000  Uiso   1.00
H24    H     0.76304   0.95738   0.67186   0.00000  Uiso   1.00
H25    H     0.75945   0.87466   0.65133   0.00000  Uiso   1.00
H26    H     0.18681   0.70977   0.34460   0.00000  Uiso   1.00
H27    H     0.67889   0.94964   0.69292   0.00000  Uiso   1.00
H28    H     0.75127   0.79050   0.61818   0.00000  Uiso   1.00
H29    H     0.28286   0.81233   0.34093   0.00000  Uiso   1.00
H30    H     0.58138   0.94860   0.70587   0.00000  Uiso   1.00
H31    H     0.73057   0.01547   0.59175   0.00000  Uiso   1.00
H32    H     0.72519   0.93593   0.56683   0.00000  Uiso   1.00
H33    H     0.48589   0.43770   0.92676   0.00000  Uiso   1.00
H34    H     0.64464   0.01091   0.60841   0.00000  Uiso   1.00
H35    H     0.72347   0.84022   0.54959   0.00000  Uiso   1.00
H36    H     0.92173   0.19539   0.60568   0.00000  Uiso   1.00
H37    H     0.55358   0.99832   0.63728   0.00000  Uiso   1.00
O38    O     0.73443   0.76200   0.56893   0.00000  Uiso   1.00
O39    O     0.99454   0.22797   0.64252   0.00000  Uiso   1.00
O40    O     0.51154   0.96942   0.68398   0.00000  Uiso   1.00
N41    N     0.74545   0.81311   0.60545   0.00000  Uiso   1.00
N42    N     0.93082   0.14517   0.65789   0.00000  Uiso   1.00
N43    N     0.58664   0.96094   0.68744   0.00000  Uiso   1.00
N44    N     0.73049   0.83987   0.56855   0.00000  Uiso   1.00
N45    N     0.91586   0.17192   0.62099   0.00000  Uiso   1.00
N46    N     0.57168   0.98770   0.65054   0.00000  Uiso   1.00
C47    C     0.42226   0.30402   0.98684   0.00000  Uiso   1.00
C48    C     0.41580   0.26713   0.96458   0.00000  Uiso   1.00
C49    C     0.41871   0.22121   0.96642   0.00000  Uiso   1.00
C50    C     0.41172   0.19295   0.94382   0.00000  Uiso   1.00
C51    C     0.40317   0.13307   0.91284   0.00000  Uiso   1.00
C52    C     0.46690   0.35864   0.97903   0.00000  Uiso   1.00
C53    C     0.84609   0.05634   0.65969   0.00000  Uiso   1.00
C54    C     0.88211   0.10512   0.64926   0.00000  Uiso   1.00
C55    C     0.61953   0.52067   0.97405   0.00000  Uiso   1.00
C56    C     0.37204   0.30786   0.98717   0.00000  Uiso   1.00
C57    C     0.33815   0.29620   0.00801   0.00000  Uiso   1.00
C58    C     0.29431   0.30224   0.00444   0.00000  Uiso   1.00
C59    C     0.21778   0.30562   0.00854   0.00000  Uiso   1.00
C60    C     0.40467   0.33549   0.94344   0.00000  Uiso   1.00
C61    C     0.40625   0.28422   0.94101   0.00000  Uiso   1.00
C62    C     0.39925   0.25602   0.91840   0.00000  Uiso   1.00
C63    C     0.40215   0.21007   0.92021   0.00000  Uiso   1.00
C64    C     0.45734   0.37574   0.95546   0.00000  Uiso   1.00
C65    C     0.15996   0.75782   0.27834   0.00000  Uiso   1.00
C66    C     0.53920   0.45557   0.95897   0.00000  Uiso   1.00
C67    C     0.36248   0.32495   0.96360   0.00000  Uiso   1.00
C68    C     0.31869   0.33102   0.95999   0.00000  Uiso   1.00
C69    C     0.28474   0.31936   0.98082   0.00000  Uiso   1.00
H70    H     0.42971   0.29072   0.00520   0.00000  Uiso   1.00
H71    H     0.42611   0.20800   0.98467   0.00000  Uiso   1.00
H72    H     0.85348   0.04310   0.67793   0.00000  Uiso   1.00
H73    H     0.34556   0.28298   0.02625   0.00000  Uiso   1.00
H74    H     0.41793   0.12383   0.95151   0.00000  Uiso   1.00
H75    H     0.94953   0.14566   0.67427   0.00000  Uiso   1.00
H76    H     0.24805   0.28193   0.03920   0.00000  Uiso   1.00
H77    H     0.39723   0.34880   0.92509   0.00000  Uiso   1.00
H78    H     0.39185   0.26926   0.90016   0.00000  Uiso   1.00
H79    H     0.15255   0.77103   0.26009   0.00000  Uiso   1.00
H80    H     0.31130   0.34424   0.94175   0.00000  Uiso   1.00
H81    H     0.39013   0.17356   0.88292   0.00000  Uiso   1.00
H82    H     0.58839   0.52873   0.93901   0.00000  Uiso   1.00
H83    H     0.22025   0.33166   0.97061   0.00000  Uiso   1.00
O84    O     0.40110   0.09533   0.90226   0.00000  Uiso   1.00
O85    O     0.66120   0.56130   0.97585   0.00000  Uiso   1.00
O86    O     0.17821   0.30275   0.01732   0.00000  Uiso   1.00
N87    N     0.41212   0.14644   0.93879   0.00000  Uiso   1.00
N88    N     0.59748   0.47850   0.99123   0.00000  Uiso   1.00
N89    N     0.25331   0.29427   0.02078   0.00000  Uiso   1.00
N90    N     0.39716   0.17320   0.90188   0.00000  Uiso   1.00
N91    N     0.58252   0.50526   0.95432   0.00000  Uiso   1.00
N92    N     0.23835   0.32103   0.98387   0.00000  Uiso   1.00
C93    C     0.08893   0.63735   0.32018   0.00000  Uiso   1.00
C94    C     0.08247   0.60046   0.29791   0.00000  Uiso   1.00
C95    C     0.08538   0.55454   0.29975   0.00000  Uiso   1.00
C96    C     0.07839   0.52628   0.27716   0.00000  Uiso   1.00
C97    C     0.06984   0.46641   0.24617   0.00000  Uiso   1.00
C98    C     0.13356   0.69198   0.31236   0.00000  Uiso   1.00
C99    C     0.51276   0.38967   0.99302   0.00000  Uiso   1.00
C100   C     0.54878   0.43845   0.98259   0.00000  Uiso   1.00
C101   C     0.28620   0.85401   0.30738   0.00000  Uiso   1.00
C102   C     0.03871   0.64119   0.32051   0.00000  Uiso   1.00
C103   C     0.00482   0.62954   0.34135   0.00000  Uiso   1.00
C104   C     0.96097   0.63557   0.33777   0.00000  Uiso   1.00
C105   C     0.88445   0.63895   0.34187   0.00000  Uiso   1.00
C106   C     0.07134   0.66882   0.27677   0.00000  Uiso   1.00
C107   C     0.07292   0.61756   0.27434   0.00000  Uiso   1.00
C108   C     0.06591   0.58936   0.25173   0.00000  Uiso   1.00
C109   C     0.06881   0.54340   0.25354   0.00000  Uiso   1.00
C110   C     0.12401   0.70907   0.28879   0.00000  Uiso   1.00
C111   C     0.82663   0.09115   0.61167   0.00000  Uiso   1.00
C112   C     0.20587   0.78891   0.29231   0.00000  Uiso   1.00
C113   C     0.02915   0.65829   0.29693   0.00000  Uiso   1.00
C114   C     0.98535   0.66435   0.29333   0.00000  Uiso   1.00
C115   C     0.95140   0.65270   0.31416   0.00000  Uiso   1.00
H116   H     0.09637   0.62405   0.33853   0.00000  Uiso   1.00
H117   H     0.09278   0.54133   0.31800   0.00000  Uiso   1.00
H118   H     0.52014   0.37643   0.01127   0.00000  Uiso   1.00
H119   H     0.01223   0.61631   0.35959   0.00000  Uiso   1.00
H120   H     0.08460   0.45716   0.28484   0.00000  Uiso   1.00
H121   H     0.61619   0.47900   0.00760   0.00000  Uiso   1.00
H122   H     0.91472   0.61526   0.37254   0.00000  Uiso   1.00
H123   H     0.06390   0.68213   0.25842   0.00000  Uiso   1.00
H124   H     0.05852   0.60259   0.23349   0.00000  Uiso   1.00
H125   H     0.81922   0.10437   0.59343   0.00000  Uiso   1.00
H126   H     0.97797   0.67758   0.27508   0.00000  Uiso   1.00
H127   H     0.05680   0.50689   0.21625   0.00000  Uiso   1.00
H128   H     0.25506   0.86206   0.27235   0.00000  Uiso   1.00
H129   H     0.88691   0.66499   0.30395   0.00000  Uiso   1.00
O130   O     0.06777   0.42867   0.23559   0.00000  Uiso   1.00
O131   O     0.32787   0.89463   0.30919   0.00000  Uiso   1.00
O132   O     0.84487   0.63608   0.35065   0.00000  Uiso   1.00
N133   N     0.07879   0.47978   0.27212   0.00000  Uiso   1.00
N134   N     0.26415   0.81183   0.32456   0.00000  Uiso   1.00
N135   N     0.91997   0.62760   0.35411   0.00000  Uiso   1.00
N136   N     0.06382   0.50653   0.23521   0.00000  Uiso   1.00
N137   N     0.24919   0.83859   0.28765   0.00000  Uiso   1.00
N138   N     0.90501   0.65436   0.31720   0.00000  Uiso   1.00
C139   C     0.02931   0.78491   0.65351   0.00000  Uiso   1.00
C140   C     0.06621   0.81534   0.63125   0.00000  Uiso   1.00
C141   C     0.11213   0.86417   0.63309   0.00000  Uiso   1.00
C142   C     0.14039   0.88544   0.61049   0.00000  Uiso   1.00
C143   C     0.20026   0.93676   0.57951   0.00000  Uiso   1.00
C144   C     0.97469   0.77492   0.64570   0.00000  Uiso   1.00
C145   C     0.27700   0.45643   0.32636   0.00000  Uiso   1.00
C146   C     0.22822   0.44366   0.31592   0.00000  Uiso   1.00
C147   C     0.81266   0.76553   0.64072   0.00000  Uiso   1.00
C148   C     0.02547   0.73085   0.65384   0.00000  Uiso   1.00
C149   C     0.03713   0.70862   0.67468   0.00000  Uiso   1.00
C150   C     0.03109   0.65873   0.67111   0.00000  Uiso   1.00
C151   C     0.02772   0.57883   0.67521   0.00000  Uiso   1.00
C152   C     0.99784   0.73585   0.61011   0.00000  Uiso   1.00
C153   C     0.04911   0.78869   0.60767   0.00000  Uiso   1.00
C154   C     0.07731   0.80989   0.58507   0.00000  Uiso   1.00
C155   C     0.12327   0.85874   0.58687   0.00000  Uiso   1.00
C156   C     0.95760   0.74827   0.62212   0.00000  Uiso   1.00
C157   C     0.57552   0.06881   0.94500   0.00000  Uiso   1.00
C158   C     0.87776   0.75030   0.62564   0.00000  Uiso   1.00
C159   C     0.00838   0.70420   0.63027   0.00000  Uiso   1.00
C160   C     0.00232   0.65434   0.62666   0.00000  Uiso   1.00
C161   C     0.01397   0.63204   0.64749   0.00000  Uiso   1.00
H162   H     0.04262   0.80565   0.67186   0.00000  Uiso   1.00
H163   H     0.12534   0.88478   0.65133   0.00000  Uiso   1.00
H164   H     0.29023   0.47704   0.34460   0.00000  Uiso   1.00
H165   H     0.05036   0.72925   0.69292   0.00000  Uiso   1.00
H166   H     0.20950   0.96077   0.61818   0.00000  Uiso   1.00
H167   H     0.18767   0.47053   0.34093   0.00000  Uiso   1.00
H168   H     0.05140   0.63279   0.70587   0.00000  Uiso   1.00
H169   H     0.98453   0.71510   0.59175   0.00000  Uiso   1.00
H170   H     0.06407   0.78926   0.56683   0.00000  Uiso   1.00
H171   H     0.56230   0.04819   0.92676   0.00000  Uiso   1.00
H172   H     0.98909   0.63373   0.60841   0.00000  Uiso   1.00
H173   H     0.15978   0.88324   0.54959   0.00000  Uiso   1.00
H174   H     0.80461   0.72633   0.60568   0.00000  Uiso   1.00
H175   H     0.00168   0.55526   0.63728   0.00000  Uiso   1.00
O176   O     0.23800   0.97243   0.56893   0.00000  Uiso   1.00
O177   O     0.77203   0.76657   0.64252   0.00000  Uiso   1.00
O178   O     0.03058   0.54212   0.68398   0.00000  Uiso   1.00
N179   N     0.18689   0.93234   0.60545   0.00000  Uiso   1.00
N180   N     0.85483   0.78565   0.65789   0.00000  Uiso   1.00
N181   N     0.03906   0.62570   0.68744   0.00000  Uiso   1.00
N182   N     0.16013   0.89062   0.56855   0.00000  Uiso   1.00
N183   N     0.82808   0.74393   0.62099   0.00000  Uiso   1.00
N184   N     0.01230   0.58398   0.65054   0.00000  Uiso   1.00
C185   C     0.69598   0.11824   0.98684   0.00000  Uiso   1.00
C186   C     0.73287   0.14868   0.96458   0.00000  Uiso   1.00
C187   C     0.77879   0.19751   0.96642   0.00000  Uiso   1.00
C188   C     0.80705   0.21877   0.94382   0.00000  Uiso   1.00
C189   C     0.86693   0.27009   0.91284   0.00000  Uiso   1.00
C190   C     0.64136   0.10825   0.97903   0.00000  Uiso   1.00
C191   C     0.94366   0.78976   0.65969   0.00000  Uiso   1.00
C192   C     0.89488   0.77699   0.64926   0.00000  Uiso   1.00
C193   C     0.47933   0.09886   0.97405   0.00000  Uiso   1.00
C194   C     0.69214   0.06418   0.98717   0.00000  Uiso   1.00
C195   C     0.70380   0.04195   0.00801   0.00000  Uiso   1.00
C196   C     0.69776   0.99207   0.00444   0.00000  Uiso   1.00
C197   C     0.69438   0.91217   0.00854   0.00000  Uiso   1.00
C198   C     0.66451   0.06918   0.94344   0.00000  Uiso   1.00
C199   C     0.71578   0.12203   0.94101   0.00000  Uiso   1.00
C200   C     0.74398   0.14322   0.91840   0.00000  Uiso   1.00
C201   C     0.78993   0.19208   0.92021   0.00000  Uiso   1.00
C202   C     0.62426   0.08161   0.95546   0.00000  Uiso   1.00
C203   C     0.24218   0.40215   0.27834   0.00000  Uiso   1.00
C204   C     0.54443   0.08363   0.95897   0.00000  Uiso   1.00
C205   C     0.67505   0.03753   0.96360   0.00000  Uiso   1.00
C206   C     0.66898   0.98767   0.95999   0.00000  Uiso   1.00
C207   C     0.68064   0.96537   0.98082   0.00000  Uiso   1.00
H208   H     0.70928   0.13899   0.00520   0.00000  Uiso   1.00
H209   H     0.79200   0.21812   0.98467   0.00000  Uiso   1.00
H210   H     0.95690   0.81038   0.67793   0.00000  Uiso   1.00
H211   H     0.71702   0.06258   0.02625   0.00000  Uiso   1.00
H212   H     0.87617   0.29410   0.95151   0.00000  Uiso   1.00
H213   H     0.85434   0.80386   0.67427   0.00000  Uiso   1.00
H214   H     0.71807   0.96612   0.03920   0.00000  Uiso   1.00
H215   H     0.65120   0.04843   0.92509   0.00000  Uiso   1.00
H216   H     0.73074   0.12259   0.90016   0.00000  Uiso   1.00
H217   H     0.22897   0.38152   0.26009   0.00000  Uiso   1.00
H218   H     0.65576   0.96706   0.94175   0.00000  Uiso   1.00
H219   H     0.82644   0.21658   0.88292   0.00000  Uiso   1.00
H220   H     0.47127   0.05967   0.93901   0.00000  Uiso   1.00
H221   H     0.66834   0.88859   0.97061   0.00000  Uiso   1.00
O222   O     0.90467   0.30577   0.90226   0.00000  Uiso   1.00
O223   O     0.43870   0.09990   0.97585   0.00000  Uiso   1.00
O224   O     0.69725   0.87546   0.01732   0.00000  Uiso   1.00
N225   N     0.85356   0.26568   0.93879   0.00000  Uiso   1.00
N226   N     0.52150   0.11898   0.99123   0.00000  Uiso   1.00
N227   N     0.70573   0.95904   0.02078   0.00000  Uiso   1.00
N228   N     0.82680   0.22396   0.90188   0.00000  Uiso   1.00
N229   N     0.49474   0.07727   0.95432   0.00000  Uiso   1.00
N230   N     0.67897   0.91732   0.98387   0.00000  Uiso   1.00
C231   C     0.36265   0.45158   0.32018   0.00000  Uiso   1.00
C232   C     0.39954   0.48201   0.29791   0.00000  Uiso   1.00
C233   C     0.44546   0.53084   0.29975   0.00000  Uiso   1.00
C234   C     0.47372   0.55211   0.27716   0.00000  Uiso   1.00
C235   C     0.53359   0.60343   0.24617   0.00000  Uiso   1.00
C236   C     0.30802   0.44159   0.31236   0.00000  Uiso   1.00
C237   C     0.61033   0.12309   0.99302   0.00000  Uiso   1.00
C238   C     0.56155   0.11033   0.98259   0.00000  Uiso   1.00
C239   C     0.14599   0.43219   0.30738   0.00000  Uiso   1.00
C240   C     0.35881   0.39751   0.32051   0.00000  Uiso   1.00
C241   C     0.37046   0.37528   0.34135   0.00000  Uiso   1.00
C242   C     0.36443   0.32540   0.33777   0.00000  Uiso   1.00
C243   C     0.36105   0.24550   0.34187   0.00000  Uiso   1.00
C244   C     0.33118   0.40251   0.27677   0.00000  Uiso   1.00
C245   C     0.38244   0.45536   0.27434   0.00000  Uiso   1.00
C246   C     0.41064   0.47656   0.25173   0.00000  Uiso   1.00
C247   C     0.45660   0.52541   0.25354   0.00000  Uiso   1.00
C248   C     0.29093   0.41494   0.28879   0.00000  Uiso   1.00
C249   C     0.90885   0.73548   0.61167   0.00000  Uiso   1.00
C250   C     0.21109   0.41696   0.29231   0.00000  Uiso   1.00
C251   C     0.34171   0.37086   0.29693   0.00000  Uiso   1.00
C252   C     0.33565   0.32100   0.29333   0.00000  Uiso   1.00
C253   C     0.34730   0.29870   0.31416   0.00000  Uiso   1.00
H254   H     0.37595   0.47232   0.33853   0.00000  Uiso   1.00
H255   H     0.45867   0.55145   0.31800   0.00000  Uiso   1.00
H256   H     0.62357   0.14371   0.01127   0.00000  Uiso   1.00
H257   H     0.38369   0.39592   0.35959   0.00000  Uiso   1.00
H258   H     0.54284   0.62744   0.28484   0.00000  Uiso   1.00
H259   H     0.52100   0.13720   0.00760   0.00000  Uiso   1.00
H260   H     0.38474   0.29945   0.37254   0.00000  Uiso   1.00
H261   H     0.31787   0.38177   0.25842   0.00000  Uiso   1.00
H262   H     0.39741   0.45593   0.23349   0.00000  Uiso   1.00
H263   H     0.89563   0.71485   0.59343   0.00000  Uiso   1.00
H264   H     0.32242   0.30039   0.27508   0.00000  Uiso   1.00
H265   H     0.49311   0.54991   0.21625   0.00000  Uiso   1.00
H266   H     0.13794   0.39300   0.27235   0.00000  Uiso   1.00
H267   H     0.33501   0.22192   0.30395   0.00000  Uiso   1.00
O268   O     0.57133   0.63910   0.23559   0.00000  Uiso   1.00
O269   O     0.10537   0.43323   0.30919   0.00000  Uiso   1.00
O270   O     0.36392   0.20879   0.35065   0.00000  Uiso   1.00
N271   N     0.52022   0.59901   0.27212   0.00000  Uiso   1.00
N272   N     0.18817   0.45232   0.32456   0.00000  Uiso   1.00
N273   N     0.37240   0.29237   0.35411   0.00000  Uiso   1.00
N274   N     0.49347   0.55729   0.23521   0.00000  Uiso   1.00
N275   N     0.16141   0.41060   0.28765   0.00000  Uiso   1.00
N276   N     0.34564   0.25065   0.31720   0.00000  Uiso   1.00
C277   C     0.21509   0.24440   0.65351   0.00000  Uiso   1.00
C278   C     0.18466   0.25086   0.63125   0.00000  Uiso   1.00
C279   C     0.13583   0.24795   0.63309   0.00000  Uiso   1.00
C280   C     0.11456   0.25495   0.61049   0.00000  Uiso   1.00
C281   C     0.06324   0.26350   0.57951   0.00000  Uiso   1.00
C282   C     0.22508   0.19977   0.64570   0.00000  Uiso   1.00
C283   C     0.54357   0.82057   0.32636   0.00000  Uiso   1.00
C284   C     0.55634   0.78456   0.31592   0.00000  Uiso   1.00
C285   C     0.23447   0.04713   0.64072   0.00000  Uiso   1.00
C286   C     0.26915   0.29463   0.65384   0.00000  Uiso   1.00
C287   C     0.29138   0.32852   0.67468   0.00000  Uiso   1.00
C288   C     0.34127   0.37236   0.67111   0.00000  Uiso   1.00
C289   C     0.42117   0.44888   0.67521   0.00000  Uiso   1.00
C290   C     0.26415   0.26200   0.61011   0.00000  Uiso   1.00
C291   C     0.21131   0.26042   0.60767   0.00000  Uiso   1.00
C292   C     0.19011   0.26742   0.58507   0.00000  Uiso   1.00
C293   C     0.14126   0.26452   0.58687   0.00000  Uiso   1.00
C294   C     0.25173   0.20932   0.62212   0.00000  Uiso   1.00
C295   C     0.93119   0.50670   0.94500   0.00000  Uiso   1.00
C296   C     0.24970   0.12746   0.62564   0.00000  Uiso   1.00
C297   C     0.29580   0.30418   0.63027   0.00000  Uiso   1.00
C298   C     0.34566   0.34798   0.62666   0.00000  Uiso   1.00
C299   C     0.36796   0.38193   0.64749   0.00000  Uiso   1.00
H300   H     0.19435   0.23696   0.67186   0.00000  Uiso   1.00
H301   H     0.11522   0.24055   0.65133   0.00000  Uiso   1.00
H302   H     0.52296   0.81319   0.34460   0.00000  Uiso   1.00
H303   H     0.27075   0.32111   0.69292   0.00000  Uiso   1.00
H304   H     0.03923   0.24873   0.61818   0.00000  Uiso   1.00
H305   H     0.52947   0.71714   0.34093   0.00000  Uiso   1.00
H306   H     0.36721   0.41862   0.70587   0.00000  Uiso   1.00
H307   H     0.28490   0.26943   0.59175   0.00000  Uiso   1.00
H308   H     0.21074   0.27481   0.56683   0.00000  Uiso   1.00
H309   H     0.95181   0.51411   0.92676   0.00000  Uiso   1.00
H310   H     0.36627   0.35536   0.60841   0.00000  Uiso   1.00
H311   H     0.11676   0.27653   0.54959   0.00000  Uiso   1.00
H312   H     0.27367   0.07827   0.60568   0.00000  Uiso   1.00
H313   H     0.44474   0.44642   0.63728   0.00000  Uiso   1.00
O314   O     0.02757   0.26557   0.56893   0.00000  Uiso   1.00
O315   O     0.23343   0.00546   0.64252   0.00000  Uiso   1.00
O316   O     0.45788   0.48846   0.68398   0.00000  Uiso   1.00
N317   N     0.06766   0.25455   0.60545   0.00000  Uiso   1.00
N318   N     0.21435   0.06918   0.65789   0.00000  Uiso   1.00
N319   N     0.37430   0.41336   0.68744   0.00000  Uiso   1.00
N320   N     0.10938   0.26951   0.56855   0.00000  Uiso   1.00
N321   N     0.25607   0.08414   0.62099   0.00000  Uiso   1.00
N322   N     0.41602   0.42832   0.65054   0.00000  Uiso   1.00
C323   C     0.88176   0.57774   0.98684   0.00000  Uiso   1.00
C324   C     0.85132   0.58420   0.96458   0.00000  Uiso   1.00
C325   C     0.80249   0.58129   0.96642   0.00000  Uiso   1.00
C326   C     0.78123   0.58828   0.94382   0.00000  Uiso   1.00
C327   C     0.72991   0.59683   0.91284   0.00000  Uiso   1.00
C328   C     0.89175   0.53310   0.97903   0.00000  Uiso   1.00
C329   C     0.21024   0.15391   0.65969   0.00000  Uiso   1.00
C330   C     0.22301   0.11789   0.64926   0.00000  Uiso   1.00
C331   C     0.90114   0.38047   0.97405   0.00000  Uiso   1.00
C332   C     0.93582   0.62796   0.98717   0.00000  Uiso   1.00
C333   C     0.95805   0.66185   0.00801   0.00000  Uiso   1.00
C334   C     0.00793   0.70569   0.00444   0.00000  Uiso   1.00
C335   C     0.08783   0.78222   0.00854   0.00000  Uiso   1.00
C336   C     0.93082   0.59533   0.94344   0.00000  Uiso   1.00
C337   C     0.87797   0.59375   0.94101   0.00000  Uiso   1.00
C338   C     0.85678   0.60075   0.91840   0.00000  Uiso   1.00
C339   C     0.80792   0.59785   0.92021   0.00000  Uiso   1.00
C340   C     0.91839   0.54266   0.95546   0.00000  Uiso   1.00
C341   C     0.59785   0.84004   0.27834   0.00000  Uiso   1.00
C342   C     0.91637   0.46080   0.95897   0.00000  Uiso   1.00
C343   C     0.96247   0.63752   0.96360   0.00000  Uiso   1.00
C344   C     0.01233   0.68131   0.95999   0.00000  Uiso   1.00
C345   C     0.03463   0.71526   0.98082   0.00000  Uiso   1.00
H346   H     0.86101   0.57029   0.00520   0.00000  Uiso   1.00
H347   H     0.78188   0.57389   0.98467   0.00000  Uiso   1.00
H348   H     0.18962   0.14652   0.67793   0.00000  Uiso   1.00
H349   H     0.93742   0.65444   0.02625   0.00000  Uiso   1.00
H350   H     0.70590   0.58207   0.95151   0.00000  Uiso   1.00
H351   H     0.19614   0.05047   0.67427   0.00000  Uiso   1.00
H352   H     0.03388   0.75195   0.03920   0.00000  Uiso   1.00
H353   H     0.95157   0.60277   0.92509   0.00000  Uiso   1.00
H354   H     0.87741   0.60815   0.90016   0.00000  Uiso   1.00
H355   H     0.61848   0.84745   0.26009   0.00000  Uiso   1.00
H356   H     0.03294   0.68870   0.94175   0.00000  Uiso   1.00
H357   H     0.78342   0.60987   0.88292   0.00000  Uiso   1.00
H358   H     0.94033   0.41161   0.93901   0.00000  Uiso   1.00
H359   H     0.11141   0.77975   0.97061   0.00000  Uiso   1.00
O360   O     0.69423   0.59890   0.90226   0.00000  Uiso   1.00
O361   O     0.90010   0.33880   0.97585   0.00000  Uiso   1.00
O362   O     0.12454   0.82179   0.01732   0.00000  Uiso   1.00
N363   N     0.73432   0.58788   0.93879   0.00000  Uiso   1.00
N364   N     0.88102   0.40252   0.99123   0.00000  Uiso   1.00
N365   N     0.04096   0.74669   0.02078   0.00000  Uiso   1.00
N366   N     0.77604   0.60284   0.90188   0.00000  Uiso   1.00
N367   N     0.92273   0.41748   0.95432   0.00000  Uiso   1.00
N368   N     0.08268   0.76165   0.98387   0.00000  Uiso   1.00
C369   C     0.54842   0.91107   0.32018   0.00000  Uiso   1.00
C370   C     0.51799   0.91753   0.29791   0.00000  Uiso   1.00
C371   C     0.46916   0.91462   0.29975   0.00000  Uiso   1.00
C372   C     0.44789   0.92161   0.27716   0.00000  Uiso   1.00
C373   C     0.39657   0.93016   0.24617   0.00000  Uiso   1.00
C374   C     0.55841   0.86644   0.31236   0.00000  Uiso   1.00
C375   C     0.87691   0.48724   0.99302   0.00000  Uiso   1.00
C376   C     0.88967   0.45122   0.98259   0.00000  Uiso   1.00
C377   C     0.56781   0.71380   0.30738   0.00000  Uiso   1.00
C378   C     0.60249   0.96129   0.32051   0.00000  Uiso   1.00
C379   C     0.62472   0.99518   0.34135   0.00000  Uiso   1.00
C380   C     0.67460   0.03903   0.33777   0.00000  Uiso   1.00
C381   C     0.75450   0.11555   0.34187   0.00000  Uiso   1.00
C382   C     0.59749   0.92866   0.27677   0.00000  Uiso   1.00
C383   C     0.54464   0.92708   0.27434   0.00000  Uiso   1.00
C384   C     0.52344   0.93409   0.25173   0.00000  Uiso   1.00
C385   C     0.47459   0.93119   0.25354   0.00000  Uiso   1.00
C386   C     0.58506   0.87599   0.28879   0.00000  Uiso   1.00
C387   C     0.26452   0.17337   0.61167   0.00000  Uiso   1.00
C388   C     0.58304   0.79413   0.29231   0.00000  Uiso   1.00
C389   C     0.62914   0.97085   0.29693   0.00000  Uiso   1.00
C390   C     0.67900   0.01465   0.29333   0.00000  Uiso   1.00
C391   C     0.70130   0.04860   0.31416   0.00000  Uiso   1.00
H392   H     0.52768   0.90363   0.33853   0.00000  Uiso   1.00
H393   H     0.44855   0.90722   0.31800   0.00000  Uiso   1.00
H394   H     0.85629   0.47986   0.01127   0.00000  Uiso   1.00
H395   H     0.60408   0.98777   0.35959   0.00000  Uiso   1.00
H396   H     0.37256   0.91540   0.28484   0.00000  Uiso   1.00
H397   H     0.86280   0.38381   0.00760   0.00000  Uiso   1.00
H398   H     0.70055   0.08528   0.37254   0.00000  Uiso   1.00
H399   H     0.61823   0.93610   0.25842   0.00000  Uiso   1.00
H400   H     0.54407   0.94148   0.23349   0.00000  Uiso   1.00
H401   H     0.28515   0.18078   0.59343   0.00000  Uiso   1.00
H402   H     0.69961   0.02203   0.27508   0.00000  Uiso   1.00
H403   H     0.45009   0.94320   0.21625   0.00000  Uiso   1.00
H404   H     0.60700   0.74494   0.27235   0.00000  Uiso   1.00
H405   H     0.77808   0.11309   0.30395   0.00000  Uiso   1.00
O406   O     0.36090   0.93223   0.23559   0.00000  Uiso   1.00
O407   O     0.56677   0.67213   0.30919   0.00000  Uiso   1.00
O408   O     0.79121   0.15513   0.35065   0.00000  Uiso   1.00
N409   N     0.40099   0.92121   0.27212   0.00000  Uiso   1.00
N410   N     0.54768   0.73585   0.32456   0.00000  Uiso   1.00
N411   N     0.70763   0.08003   0.35411   0.00000  Uiso   1.00
N412   N     0.44271   0.93618   0.23521   0.00000  Uiso   1.00
N413   N     0.58940   0.75081   0.28765   0.00000  Uiso   1.00
N414   N     0.74935   0.09499   0.31720   0.00000  Uiso   1.00
C415   C     0.97069   0.75560   0.84649   0.00000  Uiso   1.00
C416   C     0.93379   0.74914   0.86875   0.00000  Uiso   1.00
C417   C     0.88787   0.75205   0.86691   0.00000  Uiso   1.00
C418   C     0.85961   0.74505   0.88951   0.00000  Uiso   1.00
C419   C     0.79974   0.73650   0.92049   0.00000  Uiso   1.00
C420   C     0.02531   0.80023   0.85430   0.00000  Uiso   1.00
C421   C     0.72300   0.17943   0.17364   0.00000  Uiso   1.00
C422   C     0.77178   0.21544   0.18408   0.00000  Uiso   1.00
C423   C     0.18734   0.95287   0.85928   0.00000  Uiso   1.00
C424   C     0.97453   0.70537   0.84616   0.00000  Uiso   1.00
C425   C     0.96287   0.67148   0.82532   0.00000  Uiso   1.00
C426   C     0.96891   0.62764   0.82889   0.00000  Uiso   1.00
C427   C     0.97228   0.55112   0.82479   0.00000  Uiso   1.00
C428   C     0.00216   0.73800   0.88989   0.00000  Uiso   1.00
C429   C     0.95089   0.73958   0.89233   0.00000  Uiso   1.00
C430   C     0.92269   0.73258   0.91493   0.00000  Uiso   1.00
C431   C     0.87673   0.73548   0.91313   0.00000  Uiso   1.00
C432   C     0.04240   0.79068   0.87788   0.00000  Uiso   1.00
C433   C     0.42448   0.49330   0.55500   0.00000  Uiso   1.00
C434   C     0.12224   0.87254   0.87436   0.00000  Uiso   1.00
C435   C     0.99162   0.69582   0.86973   0.00000  Uiso   1.00
C436   C     0.99768   0.65202   0.87334   0.00000  Uiso   1.00
C437   C     0.98603   0.61807   0.85251   0.00000  Uiso   1.00
H438   H     0.95738   0.76304   0.82814   0.00000  Uiso   1.00
H439   H     0.87466   0.75945   0.84867   0.00000  Uiso   1.00
H440   H     0.70977   0.18681   0.15540   0.00000  Uiso   1.00
H441   H     0.94964   0.67889   0.80708   0.00000  Uiso   1.00
H442   H     0.79050   0.75127   0.88182   0.00000  Uiso   1.00
H443   H     0.81233   0.28286   0.15907   0.00000  Uiso   1.00
H444   H     0.94860   0.58138   0.79413   0.00000  Uiso   1.00
H445   H     0.01547   0.73057   0.90825   0.00000  Uiso   1.00
H446   H     0.93593   0.72519   0.93317   0.00000  Uiso   1.00
H447   H     0.43770   0.48589   0.57324   0.00000  Uiso   1.00
H448   H     0.01091   0.64464   0.89159   0.00000  Uiso   1.00
H449   H     0.84022   0.72347   0.95041   0.00000  Uiso   1.00
H450   H     0.19539   0.92173   0.89432   0.00000  Uiso   1.00
H451   H     0.99832   0.55358   0.86272   0.00000  Uiso   1.00
O452   O     0.76200   0.73443   0.93107   0.00000  Uiso   1.00
O453   O     0.22797   0.99454   0.85748   0.00000  Uiso   1.00
O454   O     0.96942   0.51154   0.81602   0.00000  Uiso   1.00
N455   N     0.81311   0.74545   0.89455   0.00000  Uiso   1.00
N456   N     0.14517   0.93082   0.84211   0.00000  Uiso   1.00
N457   N     0.96094   0.58664   0.81256   0.00000  Uiso   1.00
N458   N     0.83987   0.73049   0.93145   0.00000  Uiso   1.00
N459   N     0.17192   0.91586   0.87901   0.00000  Uiso   1.00
N460   N     0.98770   0.57168   0.84946   0.00000  Uiso   1.00
C461   C     0.63735   0.08893   0.17982   0.00000  Uiso   1.00
C462   C     0.60046   0.08247   0.20209   0.00000  Uiso   1.00
C463   C     0.55454   0.08538   0.20025   0.00000  Uiso   1.00
C464   C     0.52628   0.07839   0.22284   0.00000  Uiso   1.00
C465   C     0.46641   0.06984   0.25383   0.00000  Uiso   1.00
C466   C     0.69198   0.13356   0.18764   0.00000  Uiso   1.00
C467   C     0.38967   0.51276   0.50698   0.00000  Uiso   1.00
C468   C     0.43845   0.54878   0.51741   0.00000  Uiso   1.00
C469   C     0.85401   0.28620   0.19262   0.00000  Uiso   1.00
C470   C     0.64119   0.03871   0.17949   0.00000  Uiso   1.00
C471   C     0.62954   0.00482   0.15865   0.00000  Uiso   1.00
C472   C     0.63557   0.96097   0.16223   0.00000  Uiso   1.00
C473   C     0.63895   0.88445   0.15813   0.00000  Uiso   1.00
C474   C     0.66882   0.07134   0.22323   0.00000  Uiso   1.00
C475   C     0.61756   0.07292   0.22566   0.00000  Uiso   1.00
C476   C     0.58936   0.06591   0.24827   0.00000  Uiso   1.00
C477   C     0.54340   0.06881   0.24646   0.00000  Uiso   1.00
C478   C     0.70907   0.12401   0.21121   0.00000  Uiso   1.00
C479   C     0.09115   0.82663   0.88833   0.00000  Uiso   1.00
C480   C     0.78891   0.20587   0.20769   0.00000  Uiso   1.00
C481   C     0.65829   0.02915   0.20307   0.00000  Uiso   1.00
C482   C     0.66435   0.98535   0.20667   0.00000  Uiso   1.00
C483   C     0.65270   0.95140   0.18584   0.00000  Uiso   1.00
H484   H     0.62405   0.09637   0.16147   0.00000  Uiso   1.00
H485   H     0.54133   0.09278   0.18200   0.00000  Uiso   1.00
H486   H     0.37643   0.52014   0.48873   0.00000  Uiso   1.00
H487   H     0.61631   0.01223   0.14041   0.00000  Uiso   1.00
H488   H     0.45716   0.08460   0.21516   0.00000  Uiso   1.00
H489   H     0.47900   0.61619   0.49240   0.00000  Uiso   1.00
H490   H     0.61526   0.91472   0.12746   0.00000  Uiso   1.00
H491   H     0.68213   0.06390   0.24158   0.00000  Uiso   1.00
H492   H     0.60259   0.05852   0.26651   0.00000  Uiso   1.00
H493   H     0.10437   0.81922   0.90657   0.00000  Uiso   1.00
H494   H     0.67758   0.97797   0.22492   0.00000  Uiso   1.00
H495   H     0.50689   0.05680   0.28375   0.00000  Uiso   1.00
H496   H     0.86206   0.25506   0.22765   0.00000  Uiso   1.00
H497   H     0.66499   0.88691   0.19605   0.00000  Uiso   1.00
O498   O     0.42867   0.06777   0.26441   0.00000  Uiso   1.00
O499   O     0.89463   0.32787   0.19081   0.00000  Uiso   1.00
O500   O     0.63608   0.84487   0.14935   0.00000  Uiso   1.00
N501   N     0.47978   0.07879   0.22788   0.00000  Uiso   1.00
N502   N     0.81183   0.26415   0.17544   0.00000  Uiso   1.00
N503   N     0.62760   0.91997   0.14589   0.00000  Uiso   1.00
N504   N     0.50653   0.06382   0.26479   0.00000  Uiso   1.00
N505   N     0.83859   0.24919   0.21235   0.00000  Uiso   1.00
N506   N     0.65436   0.90501   0.18280   0.00000  Uiso   1.00
C507   C     0.30402   0.42226   0.51316   0.00000  Uiso   1.00
C508   C     0.26713   0.41580   0.53542   0.00000  Uiso   1.00
C509   C     0.22121   0.41871   0.53358   0.00000  Uiso   1.00
C510   C     0.19295   0.41172   0.55618   0.00000  Uiso   1.00
C511   C     0.13307   0.40317   0.58716   0.00000  Uiso   1.00
C512   C     0.35864   0.46690   0.52097   0.00000  Uiso   1.00
C513   C     0.05634   0.84609   0.84031   0.00000  Uiso   1.00
C514   C     0.10512   0.88211   0.85074   0.00000  Uiso   1.00
C515   C     0.52067   0.61953   0.52595   0.00000  Uiso   1.00
C516   C     0.30786   0.37204   0.51283   0.00000  Uiso   1.00
C517   C     0.29620   0.33815   0.49199   0.00000  Uiso   1.00
C518   C     0.30224   0.29431   0.49556   0.00000  Uiso   1.00
C519   C     0.30562   0.21778   0.49146   0.00000  Uiso   1.00
C520   C     0.33549   0.40467   0.55656   0.00000  Uiso   1.00
C521   C     0.28422   0.40625   0.55899   0.00000  Uiso   1.00
C522   C     0.25602   0.39925   0.58160   0.00000  Uiso   1.00
C523   C     0.21007   0.40215   0.57979   0.00000  Uiso   1.00
C524   C     0.37574   0.45734   0.54454   0.00000  Uiso   1.00
C525   C     0.75782   0.15996   0.22166   0.00000  Uiso   1.00
C526   C     0.45557   0.53920   0.54103   0.00000  Uiso   1.00
C527   C     0.32495   0.36248   0.53640   0.00000  Uiso   1.00
C528   C     0.33102   0.31869   0.54001   0.00000  Uiso   1.00
C529   C     0.31936   0.28474   0.51918   0.00000  Uiso   1.00
H530   H     0.29072   0.42971   0.49480   0.00000  Uiso   1.00
H531   H     0.20800   0.42611   0.51533   0.00000  Uiso   1.00
H532   H     0.04310   0.85348   0.82207   0.00000  Uiso   1.00
H533   H     0.28298   0.34556   0.47375   0.00000  Uiso   1.00
H534   H     0.12383   0.41793   0.54849   0.00000  Uiso   1.00
H535   H     0.14566   0.94953   0.82573   0.00000  Uiso   1.00
H536   H     0.28193   0.24805   0.46080   0.00000  Uiso   1.00
H537   H     0.34880   0.39723   0.57491   0.00000  Uiso   1.00
H538   H     0.26926   0.39185   0.59984   0.00000  Uiso   1.00
H539   H     0.77103   0.15255   0.23991   0.00000  Uiso   1.00
H540   H     0.34424   0.31130   0.55825   0.00000  Uiso   1.00
H541   H     0.17356   0.39013   0.61708   0.00000  Uiso   1.00
H542   H     0.52873   0.58839   0.56099   0.00000  Uiso   1.00
H543   H     0.33166   0.22025   0.52939   0.00000  Uiso   1.00
O544   O     0.09533   0.40110   0.59774   0.00000  Uiso   1.00
O545   O     0.56130   0.66120   0.52415   0.00000  Uiso   1.00
O546   O     0.30275   0.17821   0.48268   0.00000  Uiso   1.00
N547   N     0.14644   0.41212   0.56121   0.00000  Uiso   1.00
N548   N     0.47850   0.59748   0.50877   0.00000  Uiso   1.00
N549   N     0.29427   0.25331   0.47922   0.00000  Uiso   1.00
N550   N     0.17320   0.39716   0.59812   0.00000  Uiso   1.00
N551   N     0.50526   0.58252   0.54568   0.00000  Uiso   1.00
N552   N     0.32103   0.23835   0.51613   0.00000  Uiso   1.00
C553   C     0.78491   0.02931   0.84649   0.00000  Uiso   1.00
C554   C     0.81534   0.06621   0.86875   0.00000  Uiso   1.00
C555   C     0.86417   0.11213   0.86691   0.00000  Uiso   1.00
C556   C     0.88544   0.14039   0.88951   0.00000  Uiso   1.00
C557   C     0.93676   0.20026   0.92049   0.00000  Uiso   1.00
C558   C     0.77492   0.97469   0.85430   0.00000  Uiso   1.00
C559   C     0.45643   0.27700   0.17364   0.00000  Uiso   1.00
C560   C     0.44366   0.22822   0.18408   0.00000  Uiso   1.00
C561   C     0.76553   0.81266   0.85928   0.00000  Uiso   1.00
C562   C     0.73085   0.02547   0.84616   0.00000  Uiso   1.00
C563   C     0.70862   0.03713   0.82532   0.00000  Uiso   1.00
C564   C     0.65873   0.03109   0.82889   0.00000  Uiso   1.00
C565   C     0.57883   0.02772   0.82479   0.00000  Uiso   1.00
C566   C     0.73585   0.99784   0.88989   0.00000  Uiso   1.00
C567   C     0.78869   0.04911   0.89233   0.00000  Uiso   1.00
C568   C     0.80989   0.07731   0.91493   0.00000  Uiso   1.00
C569   C     0.85874   0.12327   0.91313   0.00000  Uiso   1.00
C570   C     0.74827   0.95760   0.87788   0.00000  Uiso   1.00
C571   C     0.06881   0.57552   0.55500   0.00000  Uiso   1.00
C572   C     0.75030   0.87776   0.87436   0.00000  Uiso   1.00
C573   C     0.70420   0.00838   0.86973   0.00000  Uiso   1.00
C574   C     0.65434   0.00232   0.87334   0.00000  Uiso   1.00
C575   C     0.63204   0.01397   0.85251   0.00000  Uiso   1.00
H576   H     0.80565   0.04262   0.82814   0.00000  Uiso   1.00
H577   H     0.88478   0.12534   0.84867   0.00000  Uiso   1.00
H578   H     0.47704   0.29023   0.15540   0.00000  Uiso   1.00
H579   H     0.72925   0.05036   0.80708   0.00000  Uiso   1.00
H580   H     0.96077   0.20950   0.88182   0.00000  Uiso   1.00
H581   H     0.47053   0.18767   0.15907   0.00000  Uiso   1.00
H582   H     0.63279   0.05140   0.79413   0.00000  Uiso   1.00
H583   H     0.71510   0.98453   0.90825   0.00000  Uiso   1.00
H584   H     0.78926   0.06407   0.93317   0.00000  Uiso   1.00
H585   H     0.04819   0.56230   0.57324   0.00000  Uiso   1.00
H586   H     0.63373   0.98909   0.89159   0.00000  Uiso   1.00
H587   H     0.88324   0.15978   0.95041   0.00000  Uiso   1.00
H588   H     0.72633   0.80461   0.89432   0.00000  Uiso   1.00
H589   H     0.55526   0.00168   0.86272   0.00000  Uiso   1.00
O590   O     0.97243   0.23800   0.93107   0.00000  Uiso   1.00
O591   O     0.76657   0.77203   0.85748   0.00000  Uiso   1.00
O592   O     0.54212   0.03058   0.81602   0.00000  Uiso   1.00
N593   N     0.93234   0.18689   0.89455   0.00000  Uiso   1.00
N594   N     0.78565   0.85483   0.84211   0.00000  Uiso   1.00
N595   N     0.62570   0.03906   0.81256   0.00000  Uiso   1.00
N596   N     0.89062   0.16013   0.93145   0.00000  Uiso   1.00
N597   N     0.74393   0.82808   0.87901   0.00000  Uiso   1.00
N598   N     0.58398   0.01230   0.84946   0.00000  Uiso   1.00
C599   C     0.45158   0.36265   0.17982   0.00000  Uiso   1.00
C600   C     0.48201   0.39954   0.20209   0.00000  Uiso   1.00
C601   C     0.53084   0.44546   0.20025   0.00000  Uiso   1.00
C602   C     0.55211   0.47372   0.22284   0.00000  Uiso   1.00
C603   C     0.60343   0.53359   0.25383   0.00000  Uiso   1.00
C604   C     0.44159   0.30802   0.18764   0.00000  Uiso   1.00
C605   C     0.12309   0.61033   0.50698   0.00000  Uiso   1.00
C606   C     0.11033   0.56155   0.51741   0.00000  Uiso   1.00
C607   C     0.43219   0.14599   0.19262   0.00000  Uiso   1.00
C608   C     0.39751   0.35881   0.17949   0.00000  Uiso   1.00
C609   C     0.37528   0.37046   0.15865   0.00000  Uiso   1.00
C610   C     0.32540   0.36443   0.16223   0.00000  Uiso   1.00
C611   C     0.24550   0.36105   0.15813   0.00000  Uiso   1.00
C612   C     0.40251   0.33118   0.22323   0.00000  Uiso   1.00
C613   C     0.45536   0.38244   0.22566   0.00000  Uiso   1.00
C614   C     0.47656   0.41064   0.24827   0.00000  Uiso   1.00
C615   C     0.52541   0.45660   0.24646   0.00000  Uiso   1.00
C616   C     0.41494   0.29093   0.21121   0.00000  Uiso   1.00
C617   C     0.73548   0.90885   0.88833   0.00000  Uiso   1.00
C618   C     0.41696   0.21109   0.20769   0.00000  Uiso   1.00
C619   C     0.37086   0.34171   0.20307   0.00000  Uiso   1.00
C620   C     0.32100   0.33565   0.20667   0.00000  Uiso   1.00
C621   C     0.29870   0.34730   0.18584   0.00000  Uiso   1.00
H622   H     0.47232   0.37595   0.16147   0.00000  Uiso   1.00
H623   H     0.55145   0.45867   0.18200   0.00000  Uiso   1.00
H624   H     0.14371   0.62357   0.48873   0.00000  Uiso   1.00
H625   H     0.39592   0.38369   0.14041   0.00000  Uiso   1.00
H626   H     0.62744   0.54284   0.21516   0.00000  Uiso   1.00
H627   H     0.13720   0.52100   0.49240   0.00000  Uiso   1.00
H628   H     0.29945   0.38474   0.12746   0.00000  Uiso   1.00
H629   H     0.38177   0.31787   0.24158   0.00000  Uiso   1.00
H630   H     0.45593   0.39741   0.26651   0.00000  Uiso   1.00
H631   H     0.71485   0.89563   0.90657   0.00000  Uiso   1.00
H632   H     0.30039   0.32242   0.22492   0.00000  Uiso   1.00
H633   H     0.54991   0.49311   0.28375   0.00000  Uiso   1.00
H634   H     0.39300   0.13794   0.22765   0.00000  Uiso   1.00
H635   H     0.22192   0.33501   0.19605   0.00000  Uiso   1.00
O636   O     0.63910   0.57133   0.26441   0.00000  Uiso   1.00
O637   O     0.43323   0.10537   0.19081   0.00000  Uiso   1.00
O638   O     0.20879   0.36392   0.14935   0.00000  Uiso   1.00
N639   N     0.59901   0.52022   0.22788   0.00000  Uiso   1.00
N640   N     0.45232   0.18817   0.17544   0.00000  Uiso   1.00
N641   N     0.29237   0.37240   0.14589   0.00000  Uiso   1.00
N642   N     0.55729   0.49347   0.26479   0.00000  Uiso   1.00
N643   N     0.41060   0.16141   0.21235   0.00000  Uiso   1.00
N644   N     0.25065   0.34564   0.18280   0.00000  Uiso   1.00
C645   C     0.11824   0.69598   0.51316   0.00000  Uiso   1.00
C646   C     0.14868   0.73287   0.53542   0.00000  Uiso   1.00
C647   C     0.19751   0.77879   0.53358   0.00000  Uiso   1.00
C648   C     0.21877   0.80705   0.55618   0.00000  Uiso   1.00
C649   C     0.27009   0.86693   0.58716   0.00000  Uiso   1.00
C650   C     0.10825   0.64136   0.52097   0.00000  Uiso   1.00
C651   C     0.78976   0.94366   0.84031   0.00000  Uiso   1.00
C652   C     0.77699   0.89488   0.85074   0.00000  Uiso   1.00
C653   C     0.09886   0.47933   0.52595   0.00000  Uiso   1.00
C654   C     0.06418   0.69214   0.51283   0.00000  Uiso   1.00
C655   C     0.04195   0.70380   0.49199   0.00000  Uiso   1.00
C656   C     0.99207   0.69776   0.49556   0.00000  Uiso   1.00
C657   C     0.91217   0.69438   0.49146   0.00000  Uiso   1.00
C658   C     0.06918   0.66451   0.55656   0.00000  Uiso   1.00
C659   C     0.12203   0.71578   0.55899   0.00000  Uiso   1.00
C660   C     0.14322   0.74398   0.58160   0.00000  Uiso   1.00
C661   C     0.19208   0.78993   0.57979   0.00000  Uiso   1.00
C662   C     0.08161   0.62426   0.54454   0.00000  Uiso   1.00
C663   C     0.40215   0.24218   0.22166   0.00000  Uiso   1.00
C664   C     0.08363   0.54443   0.54103   0.00000  Uiso   1.00
C665   C     0.03753   0.67505   0.53640   0.00000  Uiso   1.00
C666   C     0.98767   0.66898   0.54001   0.00000  Uiso   1.00
C667   C     0.96537   0.68064   0.51918   0.00000  Uiso   1.00
H668   H     0.13899   0.70928   0.49480   0.00000  Uiso   1.00
H669   H     0.21812   0.79200   0.51533   0.00000  Uiso   1.00
H670   H     0.81038   0.95690   0.82207   0.00000  Uiso   1.00
H671   H     0.06258   0.71702   0.47375   0.00000  Uiso   1.00
H672   H     0.29410   0.87617   0.54849   0.00000  Uiso   1.00
H673   H     0.80386   0.85434   0.82573   0.00000  Uiso   1.00
H674   H     0.96612   0.71807   0.46080   0.00000  Uiso   1.00
H675   H     0.04843   0.65120   0.57491   0.00000  Uiso   1.00
H676   H     0.12259   0.73074   0.59984   0.00000  Uiso   1.00
H677   H     0.38152   0.22897   0.23991   0.00000  Uiso   1.00
H678   H     0.96706   0.65576   0.55825   0.00000  Uiso   1.00
H679   H     0.21658   0.82644   0.61708   0.00000  Uiso   1.00
H680   H     0.05967   0.47127   0.56099   0.00000  Uiso   1.00
H681   H     0.88859   0.66834   0.52939   0.00000  Uiso   1.00
O682   O     0.30577   0.90467   0.59774   0.00000  Uiso   1.00
O683   O     0.09990   0.43870   0.52415   0.00000  Uiso   1.00
O684   O     0.87546   0.69725   0.48268   0.00000  Uiso   1.00
N685   N     0.26568   0.85356   0.56121   0.00000  Uiso   1.00
N686   N     0.11898   0.52150   0.50877   0.00000  Uiso   1.00
N687   N     0.95904   0.70573   0.47922   0.00000  Uiso   1.00
N688   N     0.22396   0.82680   0.59812   0.00000  Uiso   1.00
N689   N     0.07727   0.49474   0.54568   0.00000  Uiso   1.00
N690   N     0.91732   0.67897   0.51613   0.00000  Uiso   1.00
C691   C     0.24440   0.21509   0.84649   0.00000  Uiso   1.00
C692   C     0.25086   0.18466   0.86875   0.00000  Uiso   1.00
C693   C     0.24795   0.13583   0.86691   0.00000  Uiso   1.00
C694   C     0.25495   0.11456   0.88951   0.00000  Uiso   1.00
C695   C     0.26350   0.06324   0.92049   0.00000  Uiso   1.00
C696   C     0.19977   0.22508   0.85430   0.00000  Uiso   1.00
C697   C     0.82057   0.54357   0.17364   0.00000  Uiso   1.00
C698   C     0.78456   0.55634   0.18408   0.00000  Uiso   1.00
C699   C     0.04713   0.23447   0.85928   0.00000  Uiso   1.00
C700   C     0.29463   0.26915   0.84616   0.00000  Uiso   1.00
C701   C     0.32852   0.29138   0.82532   0.00000  Uiso   1.00
C702   C     0.37236   0.34127   0.82889   0.00000  Uiso   1.00
C703   C     0.44888   0.42117   0.82479   0.00000  Uiso   1.00
C704   C     0.26200   0.26415   0.88989   0.00000  Uiso   1.00
C705   C     0.26042   0.21131   0.89233   0.00000  Uiso   1.00
C706   C     0.26742   0.19011   0.91493   0.00000  Uiso   1.00
C707   C     0.26452   0.14126   0.91313   0.00000  Uiso   1.00
C708   C     0.20932   0.25173   0.87788   0.00000  Uiso   1.00
C709   C     0.50670   0.93119   0.55500   0.00000  Uiso   1.00
C710   C     0.12746   0.24970   0.87436   0.00000  Uiso   1.00
C711   C     0.30418   0.29580   0.86973   0.00000  Uiso   1.00
C712   C     0.34798   0.34566   0.87334   0.00000  Uiso   1.00
C713   C     0.38193   0.36796   0.85251   0.00000  Uiso   1.00
H714   H     0.23696   0.19435   0.82814   0.00000  Uiso   1.00
H715   H     0.24055   0.11522   0.84867   0.00000  Uiso   1.00
H716   H     0.81319   0.52296   0.15540   0.00000  Uiso   1.00
H717   H     0.32111   0.27075   0.80708   0.00000  Uiso   1.00
H718   H     0.24873   0.03923   0.88182   0.00000  Uiso   1.00
H719   H     0.71714   0.52947   0.15907   0.00000  Uiso   1.00
H720   H     0.41862   0.36721   0.79413   0.00000  Uiso   1.00
H721   H     0.26943   0.28490   0.90825   0.00000  Uiso   1.00
H722   H     0.27481   0.21074   0.93317   0.00000  Uiso   1.00
H723   H     0.51411   0.95181   0.57324   0.00000  Uiso   1.00
H724   H     0.35536   0.36627   0.89159   0.00000  Uiso   1.00
H725   H     0.27653   0.11676   0.95041   0.00000  Uiso   1.00
H726   H     0.07827   0.27367   0.89432   0.00000  Uiso   1.00
H727   H     0.44642   0.44474   0.86272   0.00000  Uiso   1.00
O728   O     0.26557   0.02757   0.93107   0.00000  Uiso   1.00
O729   O     0.00546   0.23343   0.85748   0.00000  Uiso   1.00
O730   O     0.48846   0.45788   0.81602   0.00000  Uiso   1.00
N731   N     0.25455   0.06766   0.89455   0.00000  Uiso   1.00
N732   N     0.06918   0.21435   0.84211   0.00000  Uiso   1.00
N733   N     0.41336   0.37430   0.81256   0.00000  Uiso   1.00
N734   N     0.26951   0.10938   0.93145   0.00000  Uiso   1.00
N735   N     0.08414   0.25607   0.87901   0.00000  Uiso   1.00
N736   N     0.42832   0.41602   0.84946   0.00000  Uiso   1.00
C737   C     0.91107   0.54842   0.17982   0.00000  Uiso   1.00
C738   C     0.91753   0.51799   0.20209   0.00000  Uiso   1.00
C739   C     0.91462   0.46916   0.20025   0.00000  Uiso   1.00
C740   C     0.92161   0.44789   0.22284   0.00000  Uiso   1.00
C741   C     0.93016   0.39657   0.25383   0.00000  Uiso   1.00
C742   C     0.86644   0.55841   0.18764   0.00000  Uiso   1.00
C743   C     0.48724   0.87691   0.50698   0.00000  Uiso   1.00
C744   C     0.45122   0.88967   0.51741   0.00000  Uiso   1.00
C745   C     0.71380   0.56781   0.19262   0.00000  Uiso   1.00
C746   C     0.96129   0.60249   0.17949   0.00000  Uiso   1.00
C747   C     0.99518   0.62472   0.15865   0.00000  Uiso   1.00
C748   C     0.03903   0.67460   0.16223   0.00000  Uiso   1.00
C749   C     0.11555   0.75450   0.15813   0.00000  Uiso   1.00
C750   C     0.92866   0.59749   0.22323   0.00000  Uiso   1.00
C751   C     0.92708   0.54464   0.22566   0.00000  Uiso   1.00
C752   C     0.93409   0.52344   0.24827   0.00000  Uiso   1.00
C753   C     0.93119   0.47459   0.24646   0.00000  Uiso   1.00
C754   C     0.87599   0.58506   0.21121   0.00000  Uiso   1.00
C755   C     0.17337   0.26452   0.88833   0.00000  Uiso   1.00
C756   C     0.79413   0.58304   0.20769   0.00000  Uiso   1.00
C757   C     0.97085   0.62914   0.20307   0.00000  Uiso   1.00
C758   C     0.01465   0.67900   0.20667   0.00000  Uiso   1.00
C759   C     0.04860   0.70130   0.18584   0.00000  Uiso   1.00
H760   H     0.90363   0.52768   0.16147   0.00000  Uiso   1.00
H761   H     0.90722   0.44855   0.18200   0.00000  Uiso   1.00
H762   H     0.47986   0.85629   0.48873   0.00000  Uiso   1.00
H763   H     0.98777   0.60408   0.14041   0.00000  Uiso   1.00
H764   H     0.91540   0.37256   0.21516   0.00000  Uiso   1.00
H765   H     0.38381   0.86280   0.49240   0.00000  Uiso   1.00
H766   H     0.08528   0.70055   0.12746   0.00000  Uiso   1.00
H767   H     0.93610   0.61823   0.24158   0.00000  Uiso   1.00
H768   H     0.94148   0.54407   0.26651   0.00000  Uiso   1.00
H769   H     0.18078   0.28515   0.90657   0.00000  Uiso   1.00
H770   H     0.02203   0.69961   0.22492   0.00000  Uiso   1.00
H771   H     0.94320   0.45009   0.28375   0.00000  Uiso   1.00
H772   H     0.74494   0.60700   0.22765   0.00000  Uiso   1.00
H773   H     0.11309   0.77808   0.19605   0.00000  Uiso   1.00
O774   O     0.93223   0.36090   0.26441   0.00000  Uiso   1.00
O775   O     0.67213   0.56677   0.19081   0.00000  Uiso   1.00
O776   O     0.15513   0.79121   0.14935   0.00000  Uiso   1.00
N777   N     0.92121   0.40099   0.22788   0.00000  Uiso   1.00
N778   N     0.73585   0.54768   0.17544   0.00000  Uiso   1.00
N779   N     0.08003   0.70763   0.14589   0.00000  Uiso   1.00
N780   N     0.93618   0.44271   0.26479   0.00000  Uiso   1.00
N781   N     0.75081   0.58940   0.21235   0.00000  Uiso   1.00
N782   N     0.09499   0.74935   0.18280   0.00000  Uiso   1.00
C783   C     0.57774   0.88176   0.51316   0.00000  Uiso   1.00
C784   C     0.58420   0.85132   0.53542   0.00000  Uiso   1.00
C785   C     0.58129   0.80249   0.53358   0.00000  Uiso   1.00
C786   C     0.58828   0.78123   0.55618   0.00000  Uiso   1.00
C787   C     0.59683   0.72991   0.58716   0.00000  Uiso   1.00
C788   C     0.53310   0.89175   0.52097   0.00000  Uiso   1.00
C789   C     0.15391   0.21024   0.84031   0.00000  Uiso   1.00
C790   C     0.11789   0.22301   0.85074   0.00000  Uiso   1.00
C791   C     0.38047   0.90114   0.52595   0.00000  Uiso   1.00
C792   C     0.62796   0.93582   0.51283   0.00000  Uiso   1.00
C793   C     0.66185   0.95805   0.49199   0.00000  Uiso   1.00
C794   C     0.70569   0.00793   0.49556   0.00000  Uiso   1.00
C795   C     0.78222   0.08783   0.49146   0.00000  Uiso   1.00
C796   C     0.59533   0.93082   0.55656   0.00000  Uiso   1.00
C797   C     0.59375   0.87797   0.55899   0.00000  Uiso   1.00
C798   C     0.60075   0.85678   0.58160   0.00000  Uiso   1.00
C799   C     0.59785   0.80792   0.57979   0.00000  Uiso   1.00
C800   C     0.54266   0.91839   0.54454   0.00000  Uiso   1.00
C801   C     0.84004   0.59785   0.22166   0.00000  Uiso   1.00
C802   C     0.46080   0.91637   0.54103   0.00000  Uiso   1.00
C803   C     0.63752   0.96247   0.53640   0.00000  Uiso   1.00
C804   C     0.68131   0.01233   0.54001   0.00000  Uiso   1.00
C805   C     0.71526   0.03463   0.51918   0.00000  Uiso   1.00
H806   H     0.57029   0.86101   0.49480   0.00000  Uiso   1.00
H807   H     0.57389   0.78188   0.51533   0.00000  Uiso   1.00
H808   H     0.14652   0.18962   0.82207   0.00000  Uiso   1.00
H809   H     0.65444   0.93742   0.47375   0.00000  Uiso   1.00
H810   H     0.58207   0.70590   0.54849   0.00000  Uiso   1.00
H811   H     0.05047   0.19614   0.82573   0.00000  Uiso   1.00
H812   H     0.75195   0.03388   0.46080   0.00000  Uiso   1.00
H813   H     0.60277   0.95157   0.57491   0.00000  Uiso   1.00
H814   H     0.60815   0.87741   0.59984   0.00000  Uiso   1.00
H815   H     0.84745   0.61848   0.23991   0.00000  Uiso   1.00
H816   H     0.68870   0.03294   0.55825   0.00000  Uiso   1.00
H817   H     0.60987   0.78342   0.61708   0.00000  Uiso   1.00
H818   H     0.41161   0.94033   0.56099   0.00000  Uiso   1.00
H819   H     0.77975   0.11141   0.52939   0.00000  Uiso   1.00
O820   O     0.59890   0.69423   0.59774   0.00000  Uiso   1.00
O821   O     0.33880   0.90010   0.52415   0.00000  Uiso   1.00
O822   O     0.82179   0.12454   0.48268   0.00000  Uiso   1.00
N823   N     0.58788   0.73432   0.56121   0.00000  Uiso   1.00
N824   N     0.40252   0.88102   0.50877   0.00000  Uiso   1.00
N825   N     0.74669   0.04096   0.47922   0.00000  Uiso   1.00
N826   N     0.60284   0.77604   0.59812   0.00000  Uiso   1.00
N827   N     0.41748   0.92273   0.54568   0.00000  Uiso   1.00
N828   N     0.76165   0.08268   0.51613   0.00000  Uiso   1.00
C829   C     0.24440   0.02931   0.34649   0.00000  Uiso   1.00
C830   C     0.25086   0.06621   0.36875   0.00000  Uiso   1.00
C831   C     0.24795   0.11213   0.36691   0.00000  Uiso   1.00
C832   C     0.25495   0.14039   0.38951   0.00000  Uiso   1.00
C833   C     0.26350   0.20026   0.42049   0.00000  Uiso   1.00
C834   C     0.19977   0.97469   0.35430   0.00000  Uiso   1.00
C835   C     0.82057   0.27700   0.67364   0.00000  Uiso   1.00
C836   C     0.78456   0.22822   0.68408   0.00000  Uiso   1.00
C837   C     0.04713   0.81266   0.35928   0.00000  Uiso   1.00
C838   C     0.29463   0.02547   0.34616   0.00000  Uiso   1.00
C839   C     0.32852   0.03713   0.32532   0.00000  Uiso   1.00
C840   C     0.37236   0.03109   0.32889   0.00000  Uiso   1.00
C841   C     0.44888   0.02772   0.32479   0.00000  Uiso   1.00
C842   C     0.26200   0.99784   0.38989   0.00000  Uiso   1.00
C843   C     0.26042   0.04911   0.39233   0.00000  Uiso   1.00
C844   C     0.26742   0.07731   0.41493   0.00000  Uiso   1.00
C845   C     0.26452   0.12327   0.41313   0.00000  Uiso   1.00
C846   C     0.20932   0.95760   0.37788   0.00000  Uiso   1.00
C847   C     0.50670   0.57552   0.05500   0.00000  Uiso   1.00
C848   C     0.12746   0.87776   0.37436   0.00000  Uiso   1.00
C849   C     0.30418   0.00838   0.36973   0.00000  Uiso   1.00
C850   C     0.34798   0.00232   0.37334   0.00000  Uiso   1.00
C851   C     0.38193   0.01397   0.35251   0.00000  Uiso   1.00
H852   H     0.23696   0.04262   0.32814   0.00000  Uiso   1.00
H853   H     0.24055   0.12534   0.34867   0.00000  Uiso   1.00
H854   H     0.81319   0.29023   0.65540   0.00000  Uiso   1.00
H855   H     0.32111   0.05036   0.30708   0.00000  Uiso   1.00
H856   H     0.24873   0.20950   0.38182   0.00000  Uiso   1.00
H857   H     0.71714   0.18767   0.65907   0.00000  Uiso   1.00
H858   H     0.41862   0.05140   0.29413   0.00000  Uiso   1.00
H859   H     0.26943   0.98453   0.40825   0.00000  Uiso   1.00
H860   H     0.27481   0.06407   0.43317   0.00000  Uiso   1.00
H861   H     0.51411   0.56230   0.07324   0.00000  Uiso   1.00
H862   H     0.35536   0.98909   0.39159   0.00000  Uiso   1.00
H863   H     0.27653   0.15978   0.45041   0.00000  Uiso   1.00
H864   H     0.07827   0.80461   0.39432   0.00000  Uiso   1.00
H865   H     0.44642   0.00168   0.36272   0.00000  Uiso   1.00
O866   O     0.26557   0.23800   0.43107   0.00000  Uiso   1.00
O867   O     0.00546   0.77203   0.35748   0.00000  Uiso   1.00
O868   O     0.48846   0.03058   0.31602   0.00000  Uiso   1.00
N869   N     0.25455   0.18689   0.39455   0.00000  Uiso   1.00
N870   N     0.06918   0.85483   0.34211   0.00000  Uiso   1.00
N871   N     0.41336   0.03906   0.31256   0.00000  Uiso   1.00
N872   N     0.26951   0.16013   0.43145   0.00000  Uiso   1.00
N873   N     0.08414   0.82808   0.37901   0.00000  Uiso   1.00
N874   N     0.42832   0.01230   0.34946   0.00000  Uiso   1.00
C875   C     0.91107   0.36265   0.67982   0.00000  Uiso   1.00
C876   C     0.91753   0.39954   0.70209   0.00000  Uiso   1.00
C877   C     0.91462   0.44546   0.70025   0.00000  Uiso   1.00
C878   C     0.92161   0.47372   0.72284   0.00000  Uiso   1.00
C879   C     0.93016   0.53359   0.75383   0.00000  Uiso   1.00
C880   C     0.86644   0.30802   0.68764   0.00000  Uiso   1.00
C881   C     0.48724   0.61033   0.00698   0.00000  Uiso   1.00
C882   C     0.45122   0.56155   0.01741   0.00000  Uiso   1.00
C883   C     0.71380   0.14599   0.69262   0.00000  Uiso   1.00
C884   C     0.96129   0.35881   0.67949   0.00000  Uiso   1.00
C885   C     0.99518   0.37046   0.65865   0.00000  Uiso   1.00
C886   C     0.03903   0.36443   0.66223   0.00000  Uiso   1.00
C887   C     0.11555   0.36105   0.65813   0.00000  Uiso   1.00
C888   C     0.92866   0.33118   0.72323   0.00000  Uiso   1.00
C889   C     0.92708   0.38244   0.72566   0.00000  Uiso   1.00
C890   C     0.93409   0.41064   0.74827   0.00000  Uiso   1.00
C891   C     0.93119   0.45660   0.74646   0.00000  Uiso   1.00
C892   C     0.87599   0.29093   0.71121   0.00000  Uiso   1.00
C893   C     0.17337   0.90885   0.38833   0.00000  Uiso   1.00
C894   C     0.79413   0.21109   0.70769   0.00000  Uiso   1.00
C895   C     0.97085   0.34171   0.70307   0.00000  Uiso   1.00
C896   C     0.01465   0.33565   0.70667   0.00000  Uiso   1.00
C897   C     0.04860   0.34730   0.68584   0.00000  Uiso   1.00
H898   H     0.90363   0.37595   0.66147   0.00000  Uiso   1.00
H899   H     0.90722   0.45867   0.68200   0.00000  Uiso   1.00
H900   H     0.47986   0.62357   0.98873   0.00000  Uiso   1.00
H901   H     0.98777   0.38369   0.64041   0.00000  Uiso   1.00
H902   H     0.91540   0.54284   0.71516   0.00000  Uiso   1.00
H903   H     0.38381   0.52100   0.99240   0.00000  Uiso   1.00
H904   H     0.08528   0.38474   0.62746   0.00000  Uiso   1.00
H905   H     0.93610   0.31787   0.74158   0.00000  Uiso   1.00
H906   H     0.94148   0.39741   0.76651   0.00000  Uiso   1.00
H907   H     0.18078   0.89563   0.40657   0.00000  Uiso   1.00
H908   H     0.02203   0.32242   0.72492   0.00000  Uiso   1.00
H909   H     0.94320   0.49311   0.78375   0.00000  Uiso   1.00
H910   H     0.74494   0.13794   0.72765   0.00000  Uiso   1.00
H911   H     0.11309   0.33501   0.69605   0.00000  Uiso   1.00
O912   O     0.93223   0.57133   0.76441   0.00000  Uiso   1.00
O913   O     0.67213   0.10537   0.69081   0.00000  Uiso   1.00
O914   O     0.15513   0.36392   0.64935   0.00000  Uiso   1.00
N915   N     0.92121   0.52022   0.72788   0.00000  Uiso   1.00
N916   N     0.73585   0.18817   0.67544   0.00000  Uiso   1.00
N917   N     0.08003   0.37240   0.64589   0.00000  Uiso   1.00
N918   N     0.93618   0.49347   0.76479   0.00000  Uiso   1.00
N919   N     0.75081   0.16141   0.71235   0.00000  Uiso   1.00
N920   N     0.09499   0.34564   0.68280   0.00000  Uiso   1.00
C921   C     0.57774   0.69598   0.01316   0.00000  Uiso   1.00
C922   C     0.58420   0.73287   0.03542   0.00000  Uiso   1.00
C923   C     0.58129   0.77879   0.03358   0.00000  Uiso   1.00
C924   C     0.58828   0.80705   0.05618   0.00000  Uiso   1.00
C925   C     0.59683   0.86693   0.08716   0.00000  Uiso   1.00
C926   C     0.53310   0.64136   0.02097   0.00000  Uiso   1.00
C927   C     0.15391   0.94366   0.34031   0.00000  Uiso   1.00
C928   C     0.11789   0.89488   0.35074   0.00000  Uiso   1.00
C929   C     0.38047   0.47933   0.02595   0.00000  Uiso   1.00
C930   C     0.62796   0.69214   0.01283   0.00000  Uiso   1.00
C931   C     0.66185   0.70380   0.99199   0.00000  Uiso   1.00
C932   C     0.70569   0.69776   0.99556   0.00000  Uiso   1.00
C933   C     0.78222   0.69438   0.99146   0.00000  Uiso   1.00
C934   C     0.59533   0.66451   0.05656   0.00000  Uiso   1.00
C935   C     0.59375   0.71578   0.05899   0.00000  Uiso   1.00
C936   C     0.60075   0.74398   0.08160   0.00000  Uiso   1.00
C937   C     0.59785   0.78993   0.07979   0.00000  Uiso   1.00
C938   C     0.54266   0.62426   0.04454   0.00000  Uiso   1.00
C939   C     0.84004   0.24218   0.72166   0.00000  Uiso   1.00
C940   C     0.46080   0.54443   0.04103   0.00000  Uiso   1.00
C941   C     0.63752   0.67505   0.03640   0.00000  Uiso   1.00
C942   C     0.68131   0.66898   0.04001   0.00000  Uiso   1.00
C943   C     0.71526   0.68064   0.01918   0.00000  Uiso   1.00
H944   H     0.57029   0.70928   0.99480   0.00000  Uiso   1.00
H945   H     0.57389   0.79200   0.01533   0.00000  Uiso   1.00
H946   H     0.14652   0.95690   0.32207   0.00000  Uiso   1.00
H947   H     0.65444   0.71702   0.97375   0.00000  Uiso   1.00
H948   H     0.58207   0.87617   0.04849   0.00000  Uiso   1.00
H949   H     0.05047   0.85434   0.32573   0.00000  Uiso   1.00
H950   H     0.75195   0.71807   0.96080   0.00000  Uiso   1.00
H951   H     0.60277   0.65120   0.07491   0.00000  Uiso   1.00
H952   H     0.60815   0.73074   0.09984   0.00000  Uiso   1.00
H953   H     0.84745   0.22897   0.73991   0.00000  Uiso   1.00
H954   H     0.68870   0.65576   0.05825   0.00000  Uiso   1.00
H955   H     0.60987   0.82644   0.11708   0.00000  Uiso   1.00
H956   H     0.41161   0.47127   0.06099   0.00000  Uiso   1.00
H957   H     0.77975   0.66834   0.02939   0.00000  Uiso   1.00
O958   O     0.59890   0.90467   0.09774   0.00000  Uiso   1.00
O959   O     0.33880   0.43870   0.02415   0.00000  Uiso   1.00
O960   O     0.82179   0.69725   0.98268   0.00000  Uiso   1.00
N961   N     0.58788   0.85356   0.06121   0.00000  Uiso   1.00
N962   N     0.40252   0.52150   0.00877   0.00000  Uiso   1.00
N963   N     0.74669   0.70573   0.97922   0.00000  Uiso   1.00
N964   N     0.60284   0.82680   0.09812   0.00000  Uiso   1.00
N965   N     0.41748   0.49474   0.04568   0.00000  Uiso   1.00
N966   N     0.76165   0.67897   0.01613   0.00000  Uiso   1.00
C967   C     0.97069   0.21509   0.34649   0.00000  Uiso   1.00
C968   C     0.93379   0.18466   0.36875   0.00000  Uiso   1.00
C969   C     0.88787   0.13583   0.36691   0.00000  Uiso   1.00
C970   C     0.85961   0.11456   0.38951   0.00000  Uiso   1.00
C971   C     0.79974   0.06324   0.42049   0.00000  Uiso   1.00
C972   C     0.02531   0.22508   0.35430   0.00000  Uiso   1.00
C973   C     0.72300   0.54357   0.67364   0.00000  Uiso   1.00
C974   C     0.77178   0.55634   0.68408   0.00000  Uiso   1.00
C975   C     0.18734   0.23447   0.35928   0.00000  Uiso   1.00
C976   C     0.97453   0.26915   0.34616   0.00000  Uiso   1.00
C977   C     0.96287   0.29138   0.32532   0.00000  Uiso   1.00
C978   C     0.96891   0.34127   0.32889   0.00000  Uiso   1.00
C979   C     0.97228   0.42117   0.32479   0.00000  Uiso   1.00
C980   C     0.00216   0.26415   0.38989   0.00000  Uiso   1.00
C981   C     0.95089   0.21131   0.39233   0.00000  Uiso   1.00
C982   C     0.92269   0.19011   0.41493   0.00000  Uiso   1.00
C983   C     0.87673   0.14126   0.41313   0.00000  Uiso   1.00
C984   C     0.04240   0.25173   0.37788   0.00000  Uiso   1.00
C985   C     0.42448   0.93119   0.05500   0.00000  Uiso   1.00
C986   C     0.12224   0.24970   0.37436   0.00000  Uiso   1.00
C987   C     0.99162   0.29580   0.36973   0.00000  Uiso   1.00
C988   C     0.99768   0.34566   0.37334   0.00000  Uiso   1.00
C989   C     0.98603   0.36796   0.35251   0.00000  Uiso   1.00
H990   H     0.95738   0.19435   0.32814   0.00000  Uiso   1.00
H991   H     0.87466   0.11522   0.34867   0.00000  Uiso   1.00
H992   H     0.70977   0.52296   0.65540   0.00000  Uiso   1.00
H993   H     0.94964   0.27075   0.30708   0.00000  Uiso   1.00
H994   H     0.79050   0.03923   0.38182   0.00000  Uiso   1.00
H995   H     0.81233   0.52947   0.65907   0.00000  Uiso   1.00
H996   H     0.94860   0.36721   0.29413   0.00000  Uiso   1.00
H997   H     0.01547   0.28490   0.40825   0.00000  Uiso   1.00
H998   H     0.93593   0.21074   0.43317   0.00000  Uiso   1.00
H999   H     0.43770   0.95181   0.07324   0.00000  Uiso   1.00
H1000  H     0.01091   0.36627   0.39159   0.00000  Uiso   1.00
H1001  H     0.84022   0.11676   0.45041   0.00000  Uiso   1.00
H1002  H     0.19539   0.27367   0.39432   0.00000  Uiso   1.00
H1003  H     0.99832   0.44474   0.36272   0.00000  Uiso   1.00
O1004  O     0.76200   0.02757   0.43107   0.00000  Uiso   1.00
O1005  O     0.22797   0.23343   0.35748   0.00000  Uiso   1.00
O1006  O     0.96942   0.45788   0.31602   0.00000  Uiso   1.00
N1007  N     0.81311   0.06766   0.39455   0.00000  Uiso   1.00
N1008  N     0.14517   0.21435   0.34211   0.00000  Uiso   1.00
N1009  N     0.96094   0.37430   0.31256   0.00000  Uiso   1.00
N1010  N     0.83987   0.10938   0.43145   0.00000  Uiso   1.00
N1011  N     0.17192   0.25607   0.37901   0.00000  Uiso   1.00
N1012  N     0.98770   0.41602   0.34946   0.00000  Uiso   1.00
C1013  C     0.63735   0.54842   0.67982   0.00000  Uiso   1.00
C1014  C     0.60046   0.51799   0.70209   0.00000  Uiso   1.00
C1015  C     0.55454   0.46916   0.70025   0.00000  Uiso   1.00
C1016  C     0.52628   0.44789   0.72284   0.00000  Uiso   1.00
C1017  C     0.46641   0.39657   0.75383   0.00000  Uiso   1.00
C1018  C     0.69198   0.55841   0.68764   0.00000  Uiso   1.00
C1019  C     0.38967   0.87691   0.00698   0.00000  Uiso   1.00
C1020  C     0.43845   0.88967   0.01741   0.00000  Uiso   1.00
C1021  C     0.85401   0.56781   0.69262   0.00000  Uiso   1.00
C1022  C     0.64119   0.60249   0.67949   0.00000  Uiso   1.00
C1023  C     0.62954   0.62472   0.65865   0.00000  Uiso   1.00
C1024  C     0.63557   0.67460   0.66223   0.00000  Uiso   1.00
C1025  C     0.63895   0.75450   0.65813   0.00000  Uiso   1.00
C1026  C     0.66882   0.59749   0.72323   0.00000  Uiso   1.00
C1027  C     0.61756   0.54464   0.72566   0.00000  Uiso   1.00
C1028  C     0.58936   0.52344   0.74827   0.00000  Uiso   1.00
C1029  C     0.54340   0.47459   0.74646   0.00000  Uiso   1.00
C1030  C     0.70907   0.58506   0.71121   0.00000  Uiso   1.00
C1031  C     0.09115   0.26452   0.38833   0.00000  Uiso   1.00
C1032  C     0.78891   0.58304   0.70769   0.00000  Uiso   1.00
C1033  C     0.65829   0.62914   0.70307   0.00000  Uiso   1.00
C1034  C     0.66435   0.67900   0.70667   0.00000  Uiso   1.00
C1035  C     0.65270   0.70130   0.68584   0.00000  Uiso   1.00
H1036  H     0.62405   0.52768   0.66147   0.00000  Uiso   1.00
H1037  H     0.54133   0.44855   0.68200   0.00000  Uiso   1.00
H1038  H     0.37643   0.85629   0.98873   0.00000  Uiso   1.00
H1039  H     0.61631   0.60408   0.64041   0.00000  Uiso   1.00
H1040  H     0.45716   0.37256   0.71516   0.00000  Uiso   1.00
H1041  H     0.47900   0.86280   0.99240   0.00000  Uiso   1.00
H1042  H     0.61526   0.70055   0.62746   0.00000  Uiso   1.00
H1043  H     0.68213   0.61823   0.74158   0.00000  Uiso   1.00
H1044  H     0.60259   0.54407   0.76651   0.00000  Uiso   1.00
H1045  H     0.10437   0.28515   0.40657   0.00000  Uiso   1.00
H1046  H     0.67758   0.69961   0.72492   0.00000  Uiso   1.00
H1047  H     0.50689   0.45009   0.78375   0.00000  Uiso   1.00
H1048  H     0.86206   0.60700   0.72765   0.00000  Uiso   1.00
H1049  H     0.66499   0.77808   0.69605   0.00000  Uiso   1.00
O1050  O     0.42867   0.36090   0.76441   0.00000  Uiso   1.00
O1051  O     0.89463   0.56677   0.69081   0.00000  Uiso   1.00
O1052  O     0.63608   0.79121   0.64935   0.00000  Uiso   1.00
N1053  N     0.47978   0.40099   0.72788   0.00000  Uiso   1.00
N1054  N     0.81183   0.54768   0.67544   0.00000  Uiso   1.00
N1055  N     0.62760   0.70763   0.64589   0.00000  Uiso   1.00
N1056  N     0.50653   0.44271   0.76479   0.00000  Uiso   1.00
N1057  N     0.83859   0.58940   0.71235   0.00000  Uiso   1.00
N1058  N     0.65436   0.74935   0.68280   0.00000  Uiso   1.00
C1059  C     0.30402   0.88176   0.01316   0.00000  Uiso   1.00
C1060  C     0.26713   0.85132   0.03542   0.00000  Uiso   1.00
C1061  C     0.22121   0.80249   0.03358   0.00000  Uiso   1.00
C1062  C     0.19295   0.78123   0.05618   0.00000  Uiso   1.00
C1063  C     0.13307   0.72991   0.08716   0.00000  Uiso   1.00
C1064  C     0.35864   0.89175   0.02097   0.00000  Uiso   1.00
C1065  C     0.05634   0.21024   0.34031   0.00000  Uiso   1.00
C1066  C     0.10512   0.22301   0.35074   0.00000  Uiso   1.00
C1067  C     0.52067   0.90114   0.02595   0.00000  Uiso   1.00
C1068  C     0.30786   0.93582   0.01283   0.00000  Uiso   1.00
C1069  C     0.29620   0.95805   0.99199   0.00000  Uiso   1.00
C1070  C     0.30224   0.00793   0.99556   0.00000  Uiso   1.00
C1071  C     0.30562   0.08783   0.99146   0.00000  Uiso   1.00
C1072  C     0.33549   0.93082   0.05656   0.00000  Uiso   1.00
C1073  C     0.28422   0.87797   0.05899   0.00000  Uiso   1.00
C1074  C     0.25602   0.85678   0.08160   0.00000  Uiso   1.00
C1075  C     0.21007   0.80792   0.07979   0.00000  Uiso   1.00
C1076  C     0.37574   0.91839   0.04454   0.00000  Uiso   1.00
C1077  C     0.75782   0.59785   0.72166   0.00000  Uiso   1.00
C1078  C     0.45557   0.91637   0.04103   0.00000  Uiso   1.00
C1079  C     0.32495   0.96247   0.03640   0.00000  Uiso   1.00
C1080  C     0.33102   0.01233   0.04001   0.00000  Uiso   1.00
C1081  C     0.31936   0.03463   0.01918   0.00000  Uiso   1.00
H1082  H     0.29072   0.86101   0.99480   0.00000  Uiso   1.00
H1083  H     0.20800   0.78188   0.01533   0.00000  Uiso   1.00
H1084  H     0.04310   0.18962   0.32207   0.00000  Uiso   1.00
H1085  H     0.28298   0.93742   0.97375   0.00000  Uiso   1.00
H1086  H     0.12383   0.70590   0.04849   0.00000  Uiso   1.00
H1087  H     0.14566   0.19614   0.32573   0.00000  Uiso   1.00
H1088  H     0.28193   0.03388   0.96080   0.00000  Uiso   1.00
H1089  H     0.34880   0.95157   0.07491   0.00000  Uiso   1.00
H1090  H     0.26926   0.87741   0.09984   0.00000  Uiso   1.00
H1091  H     0.77103   0.61848   0.73991   0.00000  Uiso   1.00
H1092  H     0.34424   0.03294   0.05825   0.00000  Uiso   1.00
H1093  H     0.17356   0.78342   0.11708   0.00000  Uiso   1.00
H1094  H     0.52873   0.94033   0.06099   0.00000  Uiso   1.00
H1095  H     0.33166   0.11141   0.02939   0.00000  Uiso   1.00
O1096  O     0.09533   0.69423   0.09774   0.00000  Uiso   1.00
O1097  O     0.56130   0.90010   0.02415   0.00000  Uiso   1.00
O1098  O     0.30275   0.12454   0.98268   0.00000  Uiso   1.00
N1099  N     0.14644   0.73432   0.06121   0.00000  Uiso   1.00
N1100  N     0.47850   0.88102   0.00877   0.00000  Uiso   1.00
N1101  N     0.29427   0.04096   0.97922   0.00000  Uiso   1.00
N1102  N     0.17320   0.77604   0.09812   0.00000  Uiso   1.00
N1103  N     0.50526   0.92273   0.04568   0.00000  Uiso   1.00
N1104  N     0.32103   0.08268   0.01613   0.00000  Uiso   1.00
C1105  C     0.78491   0.75560   0.34649   0.00000  Uiso   1.00
C1106  C     0.81534   0.74914   0.36875   0.00000  Uiso   1.00
C1107  C     0.86417   0.75205   0.36691   0.00000  Uiso   1.00
C1108  C     0.88544   0.74505   0.38951   0.00000  Uiso   1.00
C1109  C     0.93676   0.73650   0.42049   0.00000  Uiso   1.00
C1110  C     0.77492   0.80023   0.35430   0.00000  Uiso   1.00
C1111  C     0.45643   0.17943   0.67364   0.00000  Uiso   1.00
C1112  C     0.44366   0.21544   0.68408   0.00000  Uiso   1.00
C1113  C     0.76553   0.95287   0.35928   0.00000  Uiso   1.00
C1114  C     0.73085   0.70537   0.34616   0.00000  Uiso   1.00
C1115  C     0.70862   0.67148   0.32532   0.00000  Uiso   1.00
C1116  C     0.65873   0.62764   0.32889   0.00000  Uiso   1.00
C1117  C     0.57883   0.55112   0.32479   0.00000  Uiso   1.00
C1118  C     0.73585   0.73800   0.38989   0.00000  Uiso   1.00
C1119  C     0.78869   0.73958   0.39233   0.00000  Uiso   1.00
C1120  C     0.80989   0.73258   0.41493   0.00000  Uiso   1.00
C1121  C     0.85874   0.73548   0.41313   0.00000  Uiso   1.00
C1122  C     0.74827   0.79068   0.37788   0.00000  Uiso   1.00
C1123  C     0.06881   0.49330   0.05500   0.00000  Uiso   1.00
C1124  C     0.75030   0.87254   0.37436   0.00000  Uiso   1.00
C1125  C     0.70420   0.69582   0.36973   0.00000  Uiso   1.00
C1126  C     0.65434   0.65202   0.37334   0.00000  Uiso   1.00
C1127  C     0.63204   0.61807   0.35251   0.00000  Uiso   1.00
H1128  H     0.80565   0.76304   0.32814   0.00000  Uiso   1.00
H1129  H     0.88478   0.75945   0.34867   0.00000  Uiso   1.00
H1130  H     0.47704   0.18681   0.65540   0.00000  Uiso   1.00
H1131  H     0.72925   0.67889   0.30708   0.00000  Uiso   1.00
H1132  H     0.96077   0.75127   0.38182   0.00000  Uiso   1.00
H1133  H     0.47053   0.28286   0.65907   0.00000  Uiso   1.00
H1134  H     0.63279   0.58138   0.29413   0.00000  Uiso   1.00
H1135  H     0.71510   0.73057   0.40825   0.00000  Uiso   1.00
H1136  H     0.78926   0.72519   0.43317   0.00000  Uiso   1.00
H1137  H     0.04819   0.48589   0.07324   0.00000  Uiso   1.00
H1138  H     0.63373   0.64464   0.39159   0.00000  Uiso   1.00
H1139  H     0.88324   0.72347   0.45041   0.00000  Uiso   1.00
H1140  H     0.72633   0.92173   0.39432   0.00000  Uiso   1.00
H1141  H     0.55526   0.55358   0.36272   0.00000  Uiso   1.00
O1142  O     0.97243   0.73443   0.43107   0.00000  Uiso   1.00
O1143  O     0.76657   0.99454   0.35748   0.00000  Uiso   1.00
O1144  O     0.54212   0.51154   0.31602   0.00000  Uiso   1.00
N1145  N     0.93234   0.74545   0.39455   0.00000  Uiso   1.00
N1146  N     0.78565   0.93082   0.34211   0.00000  Uiso   1.00
N1147  N     0.62570   0.58664   0.31256   0.00000  Uiso   1.00
N1148  N     0.89062   0.73049   0.43145   0.00000  Uiso   1.00
N1149  N     0.74393   0.91586   0.37901   0.00000  Uiso   1.00
N1150  N     0.58398   0.57168   0.34946   0.00000  Uiso   1.00
C1151  C     0.45158   0.08893   0.67982   0.00000  Uiso   1.00
C1152  C     0.48201   0.08247   0.70209   0.00000  Uiso   1.00
C1153  C     0.53084   0.08538   0.70025   0.00000  Uiso   1.00
C1154  C     0.55211   0.07839   0.72284   0.00000  Uiso   1.00
C1155  C     0.60343   0.06984   0.75383   0.00000  Uiso   1.00
C1156  C     0.44159   0.13356   0.68764   0.00000  Uiso   1.00
C1157  C     0.12309   0.51276   0.00698   0.00000  Uiso   1.00
C1158  C     0.11033   0.54878   0.01741   0.00000  Uiso   1.00
C1159  C     0.43219   0.28620   0.69262   0.00000  Uiso   1.00
C1160  C     0.39751   0.03871   0.67949   0.00000  Uiso   1.00
C1161  C     0.37528   0.00482   0.65865   0.00000  Uiso   1.00
C1162  C     0.32540   0.96097   0.66223   0.00000  Uiso   1.00
C1163  C     0.24550   0.88445   0.65813   0.00000  Uiso   1.00
C1164  C     0.40251   0.07134   0.72323   0.00000  Uiso   1.00
C1165  C     0.45536   0.07292   0.72566   0.00000  Uiso   1.00
C1166  C     0.47656   0.06591   0.74827   0.00000  Uiso   1.00
C1167  C     0.52541   0.06881   0.74646   0.00000  Uiso   1.00
C1168  C     0.41494   0.12401   0.71121   0.00000  Uiso   1.00
C1169  C     0.73548   0.82663   0.38833   0.00000  Uiso   1.00
C1170  C     0.41696   0.20587   0.70769   0.00000  Uiso   1.00
C1171  C     0.37086   0.02915   0.70307   0.00000  Uiso   1.00
C1172  C     0.32100   0.98535   0.70667   0.00000  Uiso   1.00
C1173  C     0.29870   0.95140   0.68584   0.00000  Uiso   1.00
H1174  H     0.47232   0.09637   0.66147   0.00000  Uiso   1.00
H1175  H     0.55145   0.09278   0.68200   0.00000  Uiso   1.00
H1176  H     0.14371   0.52014   0.98873   0.00000  Uiso   1.00
H1177  H     0.39592   0.01223   0.64041   0.00000  Uiso   1.00
H1178  H     0.62744   0.08460   0.71516   0.00000  Uiso   1.00
H1179  H     0.13720   0.61619   0.99240   0.00000  Uiso   1.00
H1180  H     0.29945   0.91472   0.62746   0.00000  Uiso   1.00
H1181  H     0.38177   0.06390   0.74158   0.00000  Uiso   1.00
H1182  H     0.45593   0.05852   0.76651   0.00000  Uiso   1.00
H1183  H     0.71485   0.81922   0.40657   0.00000  Uiso   1.00
H1184  H     0.30039   0.97797   0.72492   0.00000  Uiso   1.00
H1185  H     0.54991   0.05680   0.78375   0.00000  Uiso   1.00
H1186  H     0.39300   0.25506   0.72765   0.00000  Uiso   1.00
H1187  H     0.22192   0.88691   0.69605   0.00000  Uiso   1.00
O1188  O     0.63910   0.06777   0.76441   0.00000  Uiso   1.00
O1189  O     0.43323   0.32787   0.69081   0.00000  Uiso   1.00
O1190  O     0.20879   0.84487   0.64935   0.00000  Uiso   1.00
N1191  N     0.59901   0.07879   0.72788   0.00000  Uiso   1.00
N1192  N     0.45232   0.26415   0.67544   0.00000  Uiso   1.00
N1193  N     0.29237   0.91997   0.64589   0.00000  Uiso   1.00
N1194  N     0.55729   0.06382   0.76479   0.00000  Uiso   1.00
N1195  N     0.41060   0.24919   0.71235   0.00000  Uiso   1.00
N1196  N     0.25065   0.90501   0.68280   0.00000  Uiso   1.00
C1197  C     0.11824   0.42226   0.01316   0.00000  Uiso   1.00
C1198  C     0.14868   0.41580   0.03542   0.00000  Uiso   1.00
C1199  C     0.19751   0.41871   0.03358   0.00000  Uiso   1.00
C1200  C     0.21877   0.41172   0.05618   0.00000  Uiso   1.00
C1201  C     0.27009   0.40317   0.08716   0.00000  Uiso   1.00
C1202  C     0.10825   0.46690   0.02097   0.00000  Uiso   1.00
C1203  C     0.78976   0.84609   0.34031   0.00000  Uiso   1.00
C1204  C     0.77699   0.88211   0.35074   0.00000  Uiso   1.00
C1205  C     0.09886   0.61953   0.02595   0.00000  Uiso   1.00
C1206  C     0.06418   0.37204   0.01283   0.00000  Uiso   1.00
C1207  C     0.04195   0.33815   0.99199   0.00000  Uiso   1.00
C1208  C     0.99207   0.29431   0.99556   0.00000  Uiso   1.00
C1209  C     0.91217   0.21778   0.99146   0.00000  Uiso   1.00
C1210  C     0.06918   0.40467   0.05656   0.00000  Uiso   1.00
C1211  C     0.12203   0.40625   0.05899   0.00000  Uiso   1.00
C1212  C     0.14322   0.39925   0.08160   0.00000  Uiso   1.00
C1213  C     0.19208   0.40215   0.07979   0.00000  Uiso   1.00
C1214  C     0.08161   0.45734   0.04454   0.00000  Uiso   1.00
C1215  C     0.40215   0.15996   0.72166   0.00000  Uiso   1.00
C1216  C     0.08363   0.53920   0.04103   0.00000  Uiso   1.00
C1217  C     0.03753   0.36248   0.03640   0.00000  Uiso   1.00
C1218  C     0.98767   0.31869   0.04001   0.00000  Uiso   1.00
C1219  C     0.96537   0.28474   0.01918   0.00000  Uiso   1.00
H1220  H     0.13899   0.42971   0.99480   0.00000  Uiso   1.00
H1221  H     0.21812   0.42611   0.01533   0.00000  Uiso   1.00
H1222  H     0.81038   0.85348   0.32207   0.00000  Uiso   1.00
H1223  H     0.06258   0.34556   0.97375   0.00000  Uiso   1.00
H1224  H     0.29410   0.41793   0.04849   0.00000  Uiso   1.00
H1225  H     0.80386   0.94953   0.32573   0.00000  Uiso   1.00
H1226  H     0.96612   0.24805   0.96080   0.00000  Uiso   1.00
H1227  H     0.04843   0.39723   0.07491   0.00000  Uiso   1.00
H1228  H     0.12259   0.39185   0.09984   0.00000  Uiso   1.00
H1229  H     0.38152   0.15255   0.73991   0.00000  Uiso   1.00
H1230  H     0.96706   0.31130   0.05825   0.00000  Uiso   1.00
H1231  H     0.21658   0.39013   0.11708   0.00000  Uiso   1.00
H1232  H     0.05967   0.58839   0.06099   0.00000  Uiso   1.00
H1233  H     0.88859   0.22025   0.02939   0.00000  Uiso   1.00
O1234  O     0.30577   0.40110   0.09774   0.00000  Uiso   1.00
O1235  O     0.09990   0.66120   0.02415   0.00000  Uiso   1.00
O1236  O     0.87546   0.17821   0.98268   0.00000  Uiso   1.00
N1237  N     0.26568   0.41212   0.06121   0.00000  Uiso   1.00
N1238  N     0.11898   0.59748   0.00877   0.00000  Uiso   1.00
N1239  N     0.95904   0.25331   0.97922   0.00000  Uiso   1.00
N1240  N     0.22396   0.39716   0.09812   0.00000  Uiso   1.00
N1241  N     0.07727   0.58252   0.04568   0.00000  Uiso   1.00
N1242  N     0.91732   0.23835   0.01613   0.00000  Uiso   1.00
C1243  C     0.02931   0.24440   0.15351   0.00000  Uiso   1.00
C1244  C     0.06621   0.25086   0.13125   0.00000  Uiso   1.00
C1245  C     0.11213   0.24795   0.13309   0.00000  Uiso   1.00
C1246  C     0.14039   0.25495   0.11049   0.00000  Uiso   1.00
C1247  C     0.20026   0.26350   0.07951   0.00000  Uiso   1.00
C1248  C     0.97469   0.19977   0.14570   0.00000  Uiso   1.00
C1249  C     0.27700   0.82057   0.82636   0.00000  Uiso   1.00
C1250  C     0.22822   0.78456   0.81592   0.00000  Uiso   1.00
C1251  C     0.81266   0.04713   0.14072   0.00000  Uiso   1.00
C1252  C     0.02547   0.29463   0.15384   0.00000  Uiso   1.00
C1253  C     0.03713   0.32852   0.17468   0.00000  Uiso   1.00
C1254  C     0.03109   0.37236   0.17111   0.00000  Uiso   1.00
C1255  C     0.02772   0.44888   0.17521   0.00000  Uiso   1.00
C1256  C     0.99784   0.26200   0.11011   0.00000  Uiso   1.00
C1257  C     0.04911   0.26042   0.10767   0.00000  Uiso   1.00
C1258  C     0.07731   0.26742   0.08507   0.00000  Uiso   1.00
C1259  C     0.12327   0.26452   0.08687   0.00000  Uiso   1.00
C1260  C     0.95760   0.20932   0.12212   0.00000  Uiso   1.00
C1261  C     0.57552   0.50670   0.44500   0.00000  Uiso   1.00
C1262  C     0.87776   0.12746   0.12564   0.00000  Uiso   1.00
C1263  C     0.00838   0.30418   0.13027   0.00000  Uiso   1.00
C1264  C     0.00232   0.34798   0.12666   0.00000  Uiso   1.00
C1265  C     0.01397   0.38193   0.14749   0.00000  Uiso   1.00
H1266  H     0.04262   0.23696   0.17186   0.00000  Uiso   1.00
H1267  H     0.12534   0.24055   0.15133   0.00000  Uiso   1.00
H1268  H     0.29023   0.81319   0.84460   0.00000  Uiso   1.00
H1269  H     0.05036   0.32111   0.19292   0.00000  Uiso   1.00
H1270  H     0.20950   0.24873   0.11818   0.00000  Uiso   1.00
H1271  H     0.18767   0.71714   0.84093   0.00000  Uiso   1.00
H1272  H     0.05140   0.41862   0.20587   0.00000  Uiso   1.00
H1273  H     0.98453   0.26943   0.09175   0.00000  Uiso   1.00
H1274  H     0.06407   0.27481   0.06683   0.00000  Uiso   1.00
H1275  H     0.56230   0.51411   0.42676   0.00000  Uiso   1.00
H1276  H     0.98909   0.35536   0.10841   0.00000  Uiso   1.00
H1277  H     0.15978   0.27653   0.04959   0.00000  Uiso   1.00
H1278  H     0.80461   0.07827   0.10568   0.00000  Uiso   1.00
H1279  H     0.00168   0.44642   0.13728   0.00000  Uiso   1.00
O1280  O     0.23800   0.26557   0.06893   0.00000  Uiso   1.00
O1281  O     0.77203   0.00546   0.14252   0.00000  Uiso   1.00
O1282  O     0.03058   0.48846   0.18398   0.00000  Uiso   1.00
N1283  N     0.18689   0.25455   0.10545   0.00000  Uiso   1.00
N1284  N     0.85483   0.06918   0.15789   0.00000  Uiso   1.00
N1285  N     0.03906   0.41336   0.18744   0.00000  Uiso   1.00
N1286  N     0.16013   0.26951   0.06855   0.00000  Uiso   1.00
N1287  N     0.82808   0.08414   0.12099   0.00000  Uiso   1.00
N1288  N     0.01230   0.42832   0.15054   0.00000  Uiso   1.00
C1289  C     0.69598   0.57774   0.48684   0.00000  Uiso   1.00
C1290  C     0.73287   0.58420   0.46458   0.00000  Uiso   1.00
C1291  C     0.77879   0.58129   0.46642   0.00000  Uiso   1.00
C1292  C     0.80705   0.58828   0.44382   0.00000  Uiso   1.00
C1293  C     0.86693   0.59683   0.41284   0.00000  Uiso   1.00
C1294  C     0.64136   0.53310   0.47903   0.00000  Uiso   1.00
C1295  C     0.94366   0.15391   0.15969   0.00000  Uiso   1.00
C1296  C     0.89488   0.11789   0.14926   0.00000  Uiso   1.00
C1297  C     0.47933   0.38047   0.47405   0.00000  Uiso   1.00
C1298  C     0.69214   0.62796   0.48717   0.00000  Uiso   1.00
C1299  C     0.70380   0.66185   0.50801   0.00000  Uiso   1.00
C1300  C     0.69776   0.70569   0.50444   0.00000  Uiso   1.00
C1301  C     0.69438   0.78222   0.50854   0.00000  Uiso   1.00
C1302  C     0.66451   0.59533   0.44344   0.00000  Uiso   1.00
C1303  C     0.71578   0.59375   0.44101   0.00000  Uiso   1.00
C1304  C     0.74398   0.60075   0.41840   0.00000  Uiso   1.00
C1305  C     0.78993   0.59785   0.42021   0.00000  Uiso   1.00
C1306  C     0.62426   0.54266   0.45546   0.00000  Uiso   1.00
C1307  C     0.24218   0.84004   0.77834   0.00000  Uiso   1.00
C1308  C     0.54443   0.46080   0.45897   0.00000  Uiso   1.00
C1309  C     0.67505   0.63752   0.46360   0.00000  Uiso   1.00
C1310  C     0.66898   0.68131   0.45999   0.00000  Uiso   1.00
C1311  C     0.68064   0.71526   0.48082   0.00000  Uiso   1.00
H1312  H     0.70928   0.57029   0.50520   0.00000  Uiso   1.00
H1313  H     0.79200   0.57389   0.48467   0.00000  Uiso   1.00
H1314  H     0.95690   0.14652   0.17793   0.00000  Uiso   1.00
H1315  H     0.71702   0.65444   0.52625   0.00000  Uiso   1.00
H1316  H     0.87617   0.58207   0.45151   0.00000  Uiso   1.00
H1317  H     0.85434   0.05047   0.17427   0.00000  Uiso   1.00
H1318  H     0.71807   0.75195   0.53920   0.00000  Uiso   1.00
H1319  H     0.65120   0.60277   0.42509   0.00000  Uiso   1.00
H1320  H     0.73074   0.60815   0.40016   0.00000  Uiso   1.00
H1321  H     0.22897   0.84745   0.76009   0.00000  Uiso   1.00
H1322  H     0.65576   0.68870   0.44175   0.00000  Uiso   1.00
H1323  H     0.82644   0.60987   0.38292   0.00000  Uiso   1.00
H1324  H     0.47127   0.41161   0.43901   0.00000  Uiso   1.00
H1325  H     0.66834   0.77975   0.47061   0.00000  Uiso   1.00
O1326  O     0.90467   0.59890   0.40226   0.00000  Uiso   1.00
O1327  O     0.43870   0.33880   0.47585   0.00000  Uiso   1.00
O1328  O     0.69725   0.82179   0.51732   0.00000  Uiso   1.00
N1329  N     0.85356   0.58788   0.43879   0.00000  Uiso   1.00
N1330  N     0.52150   0.40252   0.49123   0.00000  Uiso   1.00
N1331  N     0.70573   0.74669   0.52078   0.00000  Uiso   1.00
N1332  N     0.82680   0.60284   0.40188   0.00000  Uiso   1.00
N1333  N     0.49474   0.41748   0.45432   0.00000  Uiso   1.00
N1334  N     0.67897   0.76165   0.48387   0.00000  Uiso   1.00
C1335  C     0.36265   0.91107   0.82018   0.00000  Uiso   1.00
C1336  C     0.39954   0.91753   0.79791   0.00000  Uiso   1.00
C1337  C     0.44546   0.91462   0.79975   0.00000  Uiso   1.00
C1338  C     0.47372   0.92161   0.77716   0.00000  Uiso   1.00
C1339  C     0.53359   0.93016   0.74617   0.00000  Uiso   1.00
C1340  C     0.30802   0.86644   0.81236   0.00000  Uiso   1.00
C1341  C     0.61033   0.48724   0.49302   0.00000  Uiso   1.00
C1342  C     0.56155   0.45122   0.48259   0.00000  Uiso   1.00
C1343  C     0.14599   0.71380   0.80738   0.00000  Uiso   1.00
C1344  C     0.35881   0.96129   0.82051   0.00000  Uiso   1.00
C1345  C     0.37046   0.99518   0.84135   0.00000  Uiso   1.00
C1346  C     0.36443   0.03903   0.83777   0.00000  Uiso   1.00
C1347  C     0.36105   0.11555   0.84187   0.00000  Uiso   1.00
C1348  C     0.33118   0.92866   0.77677   0.00000  Uiso   1.00
C1349  C     0.38244   0.92708   0.77434   0.00000  Uiso   1.00
C1350  C     0.41064   0.93409   0.75173   0.00000  Uiso   1.00
C1351  C     0.45660   0.93119   0.75354   0.00000  Uiso   1.00
C1352  C     0.29093   0.87599   0.78879   0.00000  Uiso   1.00
C1353  C     0.90885   0.17337   0.11167   0.00000  Uiso   1.00
C1354  C     0.21109   0.79413   0.79231   0.00000  Uiso   1.00
C1355  C     0.34171   0.97085   0.79693   0.00000  Uiso   1.00
C1356  C     0.33565   0.01465   0.79333   0.00000  Uiso   1.00
C1357  C     0.34730   0.04860   0.81416   0.00000  Uiso   1.00
H1358  H     0.37595   0.90363   0.83853   0.00000  Uiso   1.00
H1359  H     0.45867   0.90722   0.81800   0.00000  Uiso   1.00
H1360  H     0.62357   0.47986   0.51127   0.00000  Uiso   1.00
H1361  H     0.38369   0.98777   0.85959   0.00000  Uiso   1.00
H1362  H     0.54284   0.91540   0.78484   0.00000  Uiso   1.00
H1363  H     0.52100   0.38381   0.50760   0.00000  Uiso   1.00
H1364  H     0.38474   0.08528   0.87254   0.00000  Uiso   1.00
H1365  H     0.31787   0.93610   0.75842   0.00000  Uiso   1.00
H1366  H     0.39741   0.94148   0.73349   0.00000  Uiso   1.00
H1367  H     0.89563   0.18078   0.09343   0.00000  Uiso   1.00
H1368  H     0.32242   0.02203   0.77508   0.00000  Uiso   1.00
H1369  H     0.49311   0.94320   0.71625   0.00000  Uiso   1.00
H1370  H     0.13794   0.74494   0.77235   0.00000  Uiso   1.00
H1371  H     0.33501   0.11309   0.80395   0.00000  Uiso   1.00
O1372  O     0.57133   0.93223   0.73559   0.00000  Uiso   1.00
O1373  O     0.10537   0.67213   0.80919   0.00000  Uiso   1.00
O1374  O     0.36392   0.15513   0.85065   0.00000  Uiso   1.00
N1375  N     0.52022   0.92121   0.77212   0.00000  Uiso   1.00
N1376  N     0.18817   0.73585   0.82456   0.00000  Uiso   1.00
N1377  N     0.37240   0.08003   0.85411   0.00000  Uiso   1.00
N1378  N     0.49347   0.93618   0.73521   0.00000  Uiso   1.00
N1379  N     0.16141   0.75081   0.78765   0.00000  Uiso   1.00
N1380  N     0.34564   0.09499   0.81720   0.00000  Uiso   1.00
C1381  C     0.21509   0.97069   0.15351   0.00000  Uiso   1.00
C1382  C     0.18466   0.93379   0.13125   0.00000  Uiso   1.00
C1383  C     0.13583   0.88787   0.13309   0.00000  Uiso   1.00
C1384  C     0.11456   0.85961   0.11049   0.00000  Uiso   1.00
C1385  C     0.06324   0.79974   0.07951   0.00000  Uiso   1.00
C1386  C     0.22508   0.02531   0.14570   0.00000  Uiso   1.00
C1387  C     0.54357   0.72300   0.82636   0.00000  Uiso   1.00
C1388  C     0.55634   0.77178   0.81592   0.00000  Uiso   1.00
C1389  C     0.23447   0.18734   0.14072   0.00000  Uiso   1.00
C1390  C     0.26915   0.97453   0.15384   0.00000  Uiso   1.00
C1391  C     0.29138   0.96287   0.17468   0.00000  Uiso   1.00
C1392  C     0.34127   0.96891   0.17111   0.00000  Uiso   1.00
C1393  C     0.42117   0.97228   0.17521   0.00000  Uiso   1.00
C1394  C     0.26415   0.00216   0.11011   0.00000  Uiso   1.00
C1395  C     0.21131   0.95089   0.10767   0.00000  Uiso   1.00
C1396  C     0.19011   0.92269   0.08507   0.00000  Uiso   1.00
C1397  C     0.14126   0.87673   0.08687   0.00000  Uiso   1.00
C1398  C     0.25173   0.04240   0.12212   0.00000  Uiso   1.00
C1399  C     0.93119   0.42448   0.44500   0.00000  Uiso   1.00
C1400  C     0.24970   0.12224   0.12564   0.00000  Uiso   1.00
C1401  C     0.29580   0.99162   0.13027   0.00000  Uiso   1.00
C1402  C     0.34566   0.99768   0.12666   0.00000  Uiso   1.00
C1403  C     0.36796   0.98603   0.14749   0.00000  Uiso   1.00
H1404  H     0.19435   0.95738   0.17186   0.00000  Uiso   1.00
H1405  H     0.11522   0.87466   0.15133   0.00000  Uiso   1.00
H1406  H     0.52296   0.70977   0.84460   0.00000  Uiso   1.00
H1407  H     0.27075   0.94964   0.19292   0.00000  Uiso   1.00
H1408  H     0.03923   0.79050   0.11818   0.00000  Uiso   1.00
H1409  H     0.52947   0.81233   0.84093   0.00000  Uiso   1.00
H1410  H     0.36721   0.94860   0.20587   0.00000  Uiso   1.00
H1411  H     0.28490   0.01547   0.09175   0.00000  Uiso   1.00
H1412  H     0.21074   0.93593   0.06683   0.00000  Uiso   1.00
H1413  H     0.95181   0.43770   0.42676   0.00000  Uiso   1.00
H1414  H     0.36627   0.01091   0.10841   0.00000  Uiso   1.00
H1415  H     0.11676   0.84022   0.04959   0.00000  Uiso   1.00
H1416  H     0.27367   0.19539   0.10568   0.00000  Uiso   1.00
H1417  H     0.44474   0.99832   0.13728   0.00000  Uiso   1.00
O1418  O     0.02757   0.76200   0.06893   0.00000  Uiso   1.00
O1419  O     0.23343   0.22797   0.14252   0.00000  Uiso   1.00
O1420  O     0.45788   0.96942   0.18398   0.00000  Uiso   1.00
N1421  N     0.06766   0.81311   0.10545   0.00000  Uiso   1.00
N1422  N     0.21435   0.14517   0.15789   0.00000  Uiso   1.00
N1423  N     0.37430   0.96094   0.18744   0.00000  Uiso   1.00
N1424  N     0.10938   0.83987   0.06855   0.00000  Uiso   1.00
N1425  N     0.25607   0.17192   0.12099   0.00000  Uiso   1.00
N1426  N     0.41602   0.98770   0.15054   0.00000  Uiso   1.00
C1427  C     0.88176   0.30402   0.48684   0.00000  Uiso   1.00
C1428  C     0.85132   0.26713   0.46458   0.00000  Uiso   1.00
C1429  C     0.80249   0.22121   0.46642   0.00000  Uiso   1.00
C1430  C     0.78123   0.19295   0.44382   0.00000  Uiso   1.00
C1431  C     0.72991   0.13307   0.41284   0.00000  Uiso   1.00
C1432  C     0.89175   0.35864   0.47903   0.00000  Uiso   1.00
C1433  C     0.21024   0.05634   0.15969   0.00000  Uiso   1.00
C1434  C     0.22301   0.10512   0.14926   0.00000  Uiso   1.00
C1435  C     0.90114   0.52067   0.47405   0.00000  Uiso   1.00
C1436  C     0.93582   0.30786   0.48717   0.00000  Uiso   1.00
C1437  C     0.95805   0.29620   0.50801   0.00000  Uiso   1.00
C1438  C     0.00793   0.30224   0.50444   0.00000  Uiso   1.00
C1439  C     0.08783   0.30562   0.50854   0.00000  Uiso   1.00
C1440  C     0.93082   0.33549   0.44344   0.00000  Uiso   1.00
C1441  C     0.87797   0.28422   0.44101   0.00000  Uiso   1.00
C1442  C     0.85678   0.25602   0.41840   0.00000  Uiso   1.00
C1443  C     0.80792   0.21007   0.42021   0.00000  Uiso   1.00
C1444  C     0.91839   0.37574   0.45546   0.00000  Uiso   1.00
C1445  C     0.59785   0.75782   0.77834   0.00000  Uiso   1.00
C1446  C     0.91637   0.45557   0.45897   0.00000  Uiso   1.00
C1447  C     0.96247   0.32495   0.46360   0.00000  Uiso   1.00
C1448  C     0.01233   0.33102   0.45999   0.00000  Uiso   1.00
C1449  C     0.03463   0.31936   0.48082   0.00000  Uiso   1.00
H1450  H     0.86101   0.29072   0.50520   0.00000  Uiso   1.00
H1451  H     0.78188   0.20800   0.48467   0.00000  Uiso   1.00
H1452  H     0.18962   0.04310   0.17793   0.00000  Uiso   1.00
H1453  H     0.93742   0.28298   0.52625   0.00000  Uiso   1.00
H1454  H     0.70590   0.12383   0.45151   0.00000  Uiso   1.00
H1455  H     0.19614   0.14566   0.17427   0.00000  Uiso   1.00
H1456  H     0.03388   0.28193   0.53920   0.00000  Uiso   1.00
H1457  H     0.95157   0.34880   0.42509   0.00000  Uiso   1.00
H1458  H     0.87741   0.26926   0.40016   0.00000  Uiso   1.00
H1459  H     0.61848   0.77103   0.76009   0.00000  Uiso   1.00
H1460  H     0.03294   0.34424   0.44175   0.00000  Uiso   1.00
H1461  H     0.78342   0.17356   0.38292   0.00000  Uiso   1.00
H1462  H     0.94033   0.52873   0.43901   0.00000  Uiso   1.00
H1463  H     0.11141   0.33166   0.47061   0.00000  Uiso   1.00
O1464  O     0.69423   0.09533   0.40226   0.00000  Uiso   1.00
O1465  O     0.90010   0.56130   0.47585   0.00000  Uiso   1.00
O1466  O     0.12454   0.30275   0.51732   0.00000  Uiso   1.00
N1467  N     0.73432   0.14644   0.43879   0.00000  Uiso   1.00
N1468  N     0.88102   0.47850   0.49123   0.00000  Uiso   1.00
N1469  N     0.04096   0.29427   0.52078   0.00000  Uiso   1.00
N1470  N     0.77604   0.17320   0.40188   0.00000  Uiso   1.00
N1471  N     0.92273   0.50526   0.45432   0.00000  Uiso   1.00
N1472  N     0.08268   0.32103   0.48387   0.00000  Uiso   1.00
C1473  C     0.54842   0.63735   0.82018   0.00000  Uiso   1.00
C1474  C     0.51799   0.60046   0.79791   0.00000  Uiso   1.00
C1475  C     0.46916   0.55454   0.79975   0.00000  Uiso   1.00
C1476  C     0.44789   0.52628   0.77716   0.00000  Uiso   1.00
C1477  C     0.39657   0.46641   0.74617   0.00000  Uiso   1.00
C1478  C     0.55841   0.69198   0.81236   0.00000  Uiso   1.00
C1479  C     0.87691   0.38967   0.49302   0.00000  Uiso   1.00
C1480  C     0.88967   0.43845   0.48259   0.00000  Uiso   1.00
C1481  C     0.56781   0.85401   0.80738   0.00000  Uiso   1.00
C1482  C     0.60249   0.64119   0.82051   0.00000  Uiso   1.00
C1483  C     0.62472   0.62954   0.84135   0.00000  Uiso   1.00
C1484  C     0.67460   0.63557   0.83777   0.00000  Uiso   1.00
C1485  C     0.75450   0.63895   0.84187   0.00000  Uiso   1.00
C1486  C     0.59749   0.66882   0.77677   0.00000  Uiso   1.00
C1487  C     0.54464   0.61756   0.77434   0.00000  Uiso   1.00
C1488  C     0.52344   0.58936   0.75173   0.00000  Uiso   1.00
C1489  C     0.47459   0.54340   0.75354   0.00000  Uiso   1.00
C1490  C     0.58506   0.70907   0.78879   0.00000  Uiso   1.00
C1491  C     0.26452   0.09115   0.11167   0.00000  Uiso   1.00
C1492  C     0.58304   0.78891   0.79231   0.00000  Uiso   1.00
C1493  C     0.62914   0.65829   0.79693   0.00000  Uiso   1.00
C1494  C     0.67900   0.66435   0.79333   0.00000  Uiso   1.00
C1495  C     0.70130   0.65270   0.81416   0.00000  Uiso   1.00
H1496  H     0.52768   0.62405   0.83853   0.00000  Uiso   1.00
H1497  H     0.44855   0.54133   0.81800   0.00000  Uiso   1.00
H1498  H     0.85629   0.37643   0.51127   0.00000  Uiso   1.00
H1499  H     0.60408   0.61631   0.85959   0.00000  Uiso   1.00
H1500  H     0.37256   0.45716   0.78484   0.00000  Uiso   1.00
H1501  H     0.86280   0.47900   0.50760   0.00000  Uiso   1.00
H1502  H     0.70055   0.61526   0.87254   0.00000  Uiso   1.00
H1503  H     0.61823   0.68213   0.75842   0.00000  Uiso   1.00
H1504  H     0.54407   0.60259   0.73349   0.00000  Uiso   1.00
H1505  H     0.28515   0.10437   0.09343   0.00000  Uiso   1.00
H1506  H     0.69961   0.67758   0.77508   0.00000  Uiso   1.00
H1507  H     0.45009   0.50689   0.71625   0.00000  Uiso   1.00
H1508  H     0.60700   0.86206   0.77235   0.00000  Uiso   1.00
H1509  H     0.77808   0.66499   0.80395   0.00000  Uiso   1.00
O1510  O     0.36090   0.42867   0.73559   0.00000  Uiso   1.00
O1511  O     0.56677   0.89463   0.80919   0.00000  Uiso   1.00
O1512  O     0.79121   0.63608   0.85065   0.00000  Uiso   1.00
N1513  N     0.40099   0.47978   0.77212   0.00000  Uiso   1.00
N1514  N     0.54768   0.81183   0.82456   0.00000  Uiso   1.00
N1515  N     0.70763   0.62760   0.85411   0.00000  Uiso   1.00
N1516  N     0.44271   0.50653   0.73521   0.00000  Uiso   1.00
N1517  N     0.58940   0.83859   0.78765   0.00000  Uiso   1.00
N1518  N     0.74935   0.65436   0.81720   0.00000  Uiso   1.00
C1519  C     0.75560   0.78491   0.15351   0.00000  Uiso   1.00
C1520  C     0.74914   0.81534   0.13125   0.00000  Uiso   1.00
C1521  C     0.75205   0.86417   0.13309   0.00000  Uiso   1.00
C1522  C     0.74505   0.88544   0.11049   0.00000  Uiso   1.00
C1523  C     0.73650   0.93676   0.07951   0.00000  Uiso   1.00
C1524  C     0.80023   0.77492   0.14570   0.00000  Uiso   1.00
C1525  C     0.17943   0.45643   0.82636   0.00000  Uiso   1.00
C1526  C     0.21544   0.44366   0.81592   0.00000  Uiso   1.00
C1527  C     0.95287   0.76553   0.14072   0.00000  Uiso   1.00
C1528  C     0.70537   0.73085   0.15384   0.00000  Uiso   1.00
C1529  C     0.67148   0.70862   0.17468   0.00000  Uiso   1.00
C1530  C     0.62764   0.65873   0.17111   0.00000  Uiso   1.00
C1531  C     0.55112   0.57883   0.17521   0.00000  Uiso   1.00
C1532  C     0.73800   0.73585   0.11011   0.00000  Uiso   1.00
C1533  C     0.73958   0.78869   0.10767   0.00000  Uiso   1.00
C1534  C     0.73258   0.80989   0.08507   0.00000  Uiso   1.00
C1535  C     0.73548   0.85874   0.08687   0.00000  Uiso   1.00
C1536  C     0.79068   0.74827   0.12212   0.00000  Uiso   1.00
C1537  C     0.49330   0.06881   0.44500   0.00000  Uiso   1.00
C1538  C     0.87254   0.75030   0.12564   0.00000  Uiso   1.00
C1539  C     0.69582   0.70420   0.13027   0.00000  Uiso   1.00
C1540  C     0.65202   0.65434   0.12666   0.00000  Uiso   1.00
C1541  C     0.61807   0.63204   0.14749   0.00000  Uiso   1.00
H1542  H     0.76304   0.80565   0.17186   0.00000  Uiso   1.00
H1543  H     0.75945   0.88478   0.15133   0.00000  Uiso   1.00
H1544  H     0.18681   0.47704   0.84460   0.00000  Uiso   1.00
H1545  H     0.67889   0.72925   0.19292   0.00000  Uiso   1.00
H1546  H     0.75127   0.96077   0.11818   0.00000  Uiso   1.00
H1547  H     0.28286   0.47053   0.84093   0.00000  Uiso   1.00
H1548  H     0.58138   0.63279   0.20587   0.00000  Uiso   1.00
H1549  H     0.73057   0.71510   0.09175   0.00000  Uiso   1.00
H1550  H     0.72519   0.78926   0.06683   0.00000  Uiso   1.00
H1551  H     0.48589   0.04819   0.42676   0.00000  Uiso   1.00
H1552  H     0.64464   0.63373   0.10841   0.00000  Uiso   1.00
H1553  H     0.72347   0.88324   0.04959   0.00000  Uiso   1.00
H1554  H     0.92173   0.72633   0.10568   0.00000  Uiso   1.00
H1555  H     0.55358   0.55526   0.13728   0.00000  Uiso   1.00
O1556  O     0.73443   0.97243   0.06893   0.00000  Uiso   1.00
O1557  O     0.99454   0.76657   0.14252   0.00000  Uiso   1.00
O1558  O     0.51154   0.54212   0.18398   0.00000  Uiso   1.00
N1559  N     0.74545   0.93234   0.10545   0.00000  Uiso   1.00
N1560  N     0.93082   0.78565   0.15789   0.00000  Uiso   1.00
N1561  N     0.58664   0.62570   0.18744   0.00000  Uiso   1.00
N1562  N     0.73049   0.89062   0.06855   0.00000  Uiso   1.00
N1563  N     0.91586   0.74393   0.12099   0.00000  Uiso   1.00
N1564  N     0.57168   0.58398   0.15054   0.00000  Uiso   1.00
C1565  C     0.42226   0.11824   0.48684   0.00000  Uiso   1.00
C1566  C     0.41580   0.14868   0.46458   0.00000  Uiso   1.00
C1567  C     0.41871   0.19751   0.46642   0.00000  Uiso   1.00
C1568  C     0.41172   0.21877   0.44382   0.00000  Uiso   1.00
C1569  C     0.40317   0.27009   0.41284   0.00000  Uiso   1.00
C1570  C     0.46690   0.10825   0.47903   0.00000  Uiso   1.00
C1571  C     0.84609   0.78976   0.15969   0.00000  Uiso   1.00
C1572  C     0.88211   0.77699   0.14926   0.00000  Uiso   1.00
C1573  C     0.61953   0.09886   0.47405   0.00000  Uiso   1.00
C1574  C     0.37204   0.06418   0.48717   0.00000  Uiso   1.00
C1575  C     0.33815   0.04195   0.50801   0.00000  Uiso   1.00
C1576  C     0.29431   0.99207   0.50444   0.00000  Uiso   1.00
C1577  C     0.21778   0.91217   0.50854   0.00000  Uiso   1.00
C1578  C     0.40467   0.06918   0.44344   0.00000  Uiso   1.00
C1579  C     0.40625   0.12203   0.44101   0.00000  Uiso   1.00
C1580  C     0.39925   0.14322   0.41840   0.00000  Uiso   1.00
C1581  C     0.40215   0.19208   0.42021   0.00000  Uiso   1.00
C1582  C     0.45734   0.08161   0.45546   0.00000  Uiso   1.00
C1583  C     0.15996   0.40215   0.77834   0.00000  Uiso   1.00
C1584  C     0.53920   0.08363   0.45897   0.00000  Uiso   1.00
C1585  C     0.36248   0.03753   0.46360   0.00000  Uiso   1.00
C1586  C     0.31869   0.98767   0.45999   0.00000  Uiso   1.00
C1587  C     0.28474   0.96537   0.48082   0.00000  Uiso   1.00
H1588  H     0.42971   0.13899   0.50520   0.00000  Uiso   1.00
H1589  H     0.42611   0.21812   0.48467   0.00000  Uiso   1.00
H1590  H     0.85348   0.81038   0.17793   0.00000  Uiso   1.00
H1591  H     0.34556   0.06258   0.52625   0.00000  Uiso   1.00
H1592  H     0.41793   0.29410   0.45151   0.00000  Uiso   1.00
H1593  H     0.94953   0.80386   0.17427   0.00000  Uiso   1.00
H1594  H     0.24805   0.96612   0.53920   0.00000  Uiso   1.00
H1595  H     0.39723   0.04843   0.42509   0.00000  Uiso   1.00
H1596  H     0.39185   0.12259   0.40016   0.00000  Uiso   1.00
H1597  H     0.15255   0.38152   0.76009   0.00000  Uiso   1.00
H1598  H     0.31130   0.96706   0.44175   0.00000  Uiso   1.00
H1599  H     0.39013   0.21658   0.38292   0.00000  Uiso   1.00
H1600  H     0.58839   0.05967   0.43901   0.00000  Uiso   1.00
H1601  H     0.22025   0.88859   0.47061   0.00000  Uiso   1.00
O1602  O     0.40110   0.30577   0.40226   0.00000  Uiso   1.00
O1603  O     0.66120   0.09990   0.47585   0.00000  Uiso   1.00
O1604  O     0.17821   0.87546   0.51732   0.00000  Uiso   1.00
N1605  N     0.41212   0.26568   0.43879   0.00000  Uiso   1.00
N1606  N     0.59748   0.11898   0.49123   0.00000  Uiso   1.00
N1607  N     0.25331   0.95904   0.52078   0.00000  Uiso   1.00
N1608  N     0.39716   0.22396   0.40188   0.00000  Uiso   1.00
N1609  N     0.58252   0.07727   0.45432   0.00000  Uiso   1.00
N1610  N     0.23835   0.91732   0.48387   0.00000  Uiso   1.00
C1611  C     0.08893   0.45158   0.82018   0.00000  Uiso   1.00
C1612  C     0.08247   0.48201   0.79791   0.00000  Uiso   1.00
C1613  C     0.08538   0.53084   0.79975   0.00000  Uiso   1.00
C1614  C     0.07839   0.55211   0.77716   0.00000  Uiso   1.00
C1615  C     0.06984   0.60343   0.74617   0.00000  Uiso   1.00
C1616  C     0.13356   0.44159   0.81236   0.00000  Uiso   1.00
C1617  C     0.51276   0.12309   0.49302   0.00000  Uiso   1.00
C1618  C     0.54878   0.11033   0.48259   0.00000  Uiso   1.00
C1619  C     0.28620   0.43219   0.80738   0.00000  Uiso   1.00
C1620  C     0.03871   0.39751   0.82051   0.00000  Uiso   1.00
C1621  C     0.00482   0.37528   0.84135   0.00000  Uiso   1.00
C1622  C     0.96097   0.32540   0.83777   0.00000  Uiso   1.00
C1623  C     0.88445   0.24550   0.84187   0.00000  Uiso   1.00
C1624  C     0.07134   0.40251   0.77677   0.00000  Uiso   1.00
C1625  C     0.07292   0.45536   0.77434   0.00000  Uiso   1.00
C1626  C     0.06591   0.47656   0.75173   0.00000  Uiso   1.00
C1627  C     0.06881   0.52541   0.75354   0.00000  Uiso   1.00
C1628  C     0.12401   0.41494   0.78879   0.00000  Uiso   1.00
C1629  C     0.82663   0.73548   0.11167   0.00000  Uiso   1.00
C1630  C     0.20587   0.41696   0.79231   0.00000  Uiso   1.00
C1631  C     0.02915   0.37086   0.79693   0.00000  Uiso   1.00
C1632  C     0.98535   0.32100   0.79333   0.00000  Uiso   1.00
C1633  C     0.95140   0.29870   0.81416   0.00000  Uiso   1.00
H1634  H     0.09637   0.47232   0.83853   0.00000  Uiso   1.00
H1635  H     0.09278   0.55145   0.81800   0.00000  Uiso   1.00
H1636  H     0.52014   0.14371   0.51127   0.00000  Uiso   1.00
H1637  H     0.01223   0.39592   0.85959   0.00000  Uiso   1.00
H1638  H     0.08460   0.62744   0.78484   0.00000  Uiso   1.00
H1639  H     0.61619   0.13720   0.50760   0.00000  Uiso   1.00
H1640  H     0.91472   0.29945   0.87254   0.00000  Uiso   1.00
H1641  H     0.06390   0.38177   0.75842   0.00000  Uiso   1.00
H1642  H     0.05852   0.45593   0.73349   0.00000  Uiso   1.00
H1643  H     0.81922   0.71485   0.09343   0.00000  Uiso   1.00
H1644  H     0.97797   0.30039   0.77508   0.00000  Uiso   1.00
H1645  H     0.05680   0.54991   0.71625   0.00000  Uiso   1.00
H1646  H     0.25506   0.39300   0.77235   0.00000  Uiso   1.00
H1647  H     0.88691   0.22192   0.80395   0.00000  Uiso   1.00
O1648  O     0.06777   0.63910   0.73559   0.00000  Uiso   1.00
O1649  O     0.32787   0.43323   0.80919   0.00000  Uiso   1.00
O1650  O     0.84487   0.20879   0.85065   0.00000  Uiso   1.00
N1651  N     0.07879   0.59901   0.77212   0.00000  Uiso   1.00
N1652  N     0.26415   0.45232   0.82456   0.00000  Uiso   1.00
N1653  N     0.91997   0.29237   0.85411   0.00000  Uiso   1.00
N1654  N     0.06382   0.55729   0.73521   0.00000  Uiso   1.00
N1655  N     0.24919   0.41060   0.78765   0.00000  Uiso   1.00
N1656  N     0.90501   0.25065   0.81720   0.00000  Uiso   1.00
