data_job_06924
_audit_creation_date              2018-12-19
_audit_creation_method            'Materials Studio'
_symmetry_space_group_name_H-M    'P1'
_symmetry_Int_Tables_number       1
_symmetry_cell_setting            triclinic
loop_
_symmetry_equiv_pos_as_xyz
  x,y,z
_cell_length_a                    40.0787
_cell_length_b                    29.6221
_cell_length_c                    18.9812
_cell_angle_alpha                 90.0000
_cell_angle_beta                  69.9929
_cell_angle_gamma                 90.0000
loop_
_atom_site_label
_atom_site_type_symbol
_atom_site_fract_x
_atom_site_fract_y
_atom_site_fract_z
_atom_site_U_iso_or_equiv
_atom_site_adp_type
_atom_site_occupancy
C1     C     0.12655   0.03952   0.66619   0.00000  Uiso   1.00
C2     C     0.11116   0.01452   0.74055   0.00000  Uiso   1.00
C3     C     0.07773   0.02139   0.79354   0.00000  Uiso   1.00
C4     C     0.06862   0.99513   0.85794   0.00000  Uiso   1.00
C5     C     0.04115   0.96119   0.97176   0.00000  Uiso   1.00
C6     C     0.16129   0.06043   0.66631   0.00000  Uiso   1.00
C7     C     0.17002   0.10591   0.65686   0.00000  Uiso   1.00
C8     C     0.20311   0.11829   0.65876   0.00000  Uiso   1.00
C9     C     0.25349   0.15564   0.65727   0.00000  Uiso   1.00
C10    C     0.13684   0.00326   0.60551   0.00000  Uiso   1.00
C11    C     0.12501   0.00066   0.54492   0.00000  Uiso   1.00
C12    C     0.13752   0.96491   0.49562   0.00000  Uiso   1.00
C13    C     0.14994   0.91348   0.39972   0.00000  Uiso   1.00
C14    C     0.16981   0.98065   0.68634   0.00000  Uiso   1.00
C15    C     0.13466   0.98255   0.75150   0.00000  Uiso   1.00
C16    C     0.12559   0.95626   0.81583   0.00000  Uiso   1.00
C17    C     0.09216   0.96309   0.86890   0.00000  Uiso   1.00
C18    C     0.18479   0.02846   0.67726   0.00000  Uiso   1.00
C19    C     0.21788   0.04078   0.67916   0.00000  Uiso   1.00
C20    C     0.22665   0.08626   0.66973   0.00000  Uiso   1.00
C21    C     0.16034   0.97128   0.61645   0.00000  Uiso   1.00
C22    C     0.17287   0.93553   0.56723   0.00000  Uiso   1.00
C23    C     0.16106   0.93288   0.50658   0.00000  Uiso   1.00
H24    H     0.10825   0.06441   0.65766   0.00000  Uiso   1.00
H25    H     0.05955   0.04615   0.78505   0.00000  Uiso   1.00
H26    H     0.15183   0.13065   0.64839   0.00000  Uiso   1.00
H27    H     0.10683   0.02541   0.53647   0.00000  Uiso   1.00
H28    H     0.01593   0.01180   0.93112   0.00000  Uiso   1.00
H29    H     0.21050   0.18998   0.64294   0.00000  Uiso   1.00
H30    H     0.11560   0.96807   0.40694   0.00000  Uiso   1.00
H31    H     0.18810   0.95575   0.69486   0.00000  Uiso   1.00
H32    H     0.14378   0.93152   0.82429   0.00000  Uiso   1.00
H33    H     0.23606   0.01602   0.68763   0.00000  Uiso   1.00
H34    H     0.19106   0.91079   0.57571   0.00000  Uiso   1.00
H35    H     0.08429   0.91877   0.96297   0.00000  Uiso   1.00
H36    H     0.27886   0.09694   0.67479   0.00000  Uiso   1.00
H37    H     0.18397   0.87504   0.43879   0.00000  Uiso   1.00
O38    O     0.01952   0.95131   0.03153   0.00000  Uiso   1.00
O39    O     0.27479   0.18507   0.65343   0.00000  Uiso   1.00
O40    O     0.15029   0.89394   0.34381   0.00000  Uiso   1.00
N41    N     0.03809   0.99323   0.92084   0.00000  Uiso   1.00
N42    N     0.22001   0.15981   0.65143   0.00000  Uiso   1.00
N43    N     0.13130   0.95235   0.43077   0.00000  Uiso   1.00
N44    N     0.07488   0.94316   0.93798   0.00000  Uiso   1.00
N45    N     0.25679   0.10975   0.66857   0.00000  Uiso   1.00
N46    N     0.16808   0.90229   0.44791   0.00000  Uiso   1.00
C47    C     0.36830   0.12221   0.22690   0.00000  Uiso   1.00
C48    C     0.90737   0.61410   0.18178   0.00000  Uiso   1.00
C49    C     0.42077   0.07858   0.13253   0.00000  Uiso   1.00
C50    C     0.95731   0.57714   0.09667   0.00000  Uiso   1.00
C51    C     0.01458   0.55953   0.02466   0.00000  Uiso   1.00
C52    C     0.36580   0.12444   0.30882   0.00000  Uiso   1.00
C53    C     0.34424   0.09760   0.36638   0.00000  Uiso   1.00
C54    C     0.34578   0.10486   0.43747   0.00000  Uiso   1.00
C55    C     0.33849   0.10332   0.56271   0.00000  Uiso   1.00
C56    C     0.85988   0.66961   0.20649   0.00000  Uiso   1.00
C57    C     0.83333   0.68077   0.17803   0.00000  Uiso   1.00
C58    C     0.82988   0.72606   0.16298   0.00000  Uiso   1.00
C59    C     0.81340   0.79466   0.12933   0.00000  Uiso   1.00
C60    C     0.90937   0.68281   0.25080   0.00000  Uiso   1.00
C61    C     0.92968   0.64702   0.19476   0.00000  Uiso   1.00
C62    C     0.96621   0.64563   0.15897   0.00000  Uiso   1.00
C63    C     0.97966   0.61011   0.10967   0.00000  Uiso   1.00
C64    C     0.88810   0.65735   0.32180   0.00000  Uiso   1.00
C65    C     0.88967   0.66465   0.39282   0.00000  Uiso   1.00
C66    C     0.36812   0.13784   0.45048   0.00000  Uiso   1.00
C67    C     0.88218   0.70253   0.21947   0.00000  Uiso   1.00
C68    C     0.87877   0.74781   0.20447   0.00000  Uiso   1.00
C69    C     0.85223   0.75903   0.17599   0.00000  Uiso   1.00
H70    H     0.35094   0.09658   0.21680   0.00000  Uiso   1.00
H71    H     0.40350   0.05311   0.12250   0.00000  Uiso   1.00
H72    H     0.32698   0.07214   0.35632   0.00000  Uiso   1.00
H73    H     0.31608   0.15529   0.16799   0.00000  Uiso   1.00
H74    H     0.47162   0.01943   0.02370   0.00000  Uiso   1.00
H75    H     0.31025   0.05955   0.51673   0.00000  Uiso   1.00
H76    H     0.78727   0.73489   0.11960   0.00000  Uiso   1.00
H77    H     0.92673   0.70843   0.26091   0.00000  Uiso   1.00
H78    H     0.98346   0.67110   0.16903   0.00000  Uiso   1.00
H79    H     0.90693   0.69013   0.40285   0.00000  Uiso   1.00
H80    H     0.89604   0.77327   0.21452   0.00000  Uiso   1.00
H81    H     0.03651   0.61519   0.06147   0.00000  Uiso   1.00
H82    H     0.87515   0.65531   0.55449   0.00000  Uiso   1.00
H83    H     0.85217   0.83065   0.15736   0.00000  Uiso   1.00
O84    O     0.04001   0.54073   0.98137   0.00000  Uiso   1.00
O85    O     0.32831   0.09337   0.62820   0.00000  Uiso   1.00
O86    O     0.29815   0.32340   0.10717   0.00000  Uiso   1.00
N87    N     0.97911   0.54710   0.04519   0.00000  Uiso   1.00
N88    N     0.32824   0.08460   0.50613   0.00000  Uiso   1.00
N89    N     0.80675   0.74853   0.13487   0.00000  Uiso   1.00
N90    N     0.01403   0.59862   0.06551   0.00000  Uiso   1.00
N91    N     0.36316   0.13613   0.52645   0.00000  Uiso   1.00
N92    N     0.84167   0.80006   0.15519   0.00000  Uiso   1.00
C93    C     0.19747   0.53664   0.54919   0.00000  Uiso   1.00
C94    C     0.20414   0.58276   0.57750   0.00000  Uiso   1.00
C95    C     0.21756   0.62036   0.53324   0.00000  Uiso   1.00
C96    C     0.22172   0.65941   0.56983   0.00000  Uiso   1.00
C97    C     0.23346   0.73082   0.60191   0.00000  Uiso   1.00
C98    C     0.21856   0.50289   0.57788   0.00000  Uiso   1.00
C99    C     0.24409   0.47331   0.53394   0.00000  Uiso   1.00
C100   C     0.26038   0.44512   0.57085   0.00000  Uiso   1.00
C101   C     0.29448   0.39249   0.60352   0.00000  Uiso   1.00
C102   C     0.15842   0.52598   0.59067   0.00000  Uiso   1.00
C103   C     0.13340   0.51582   0.55748   0.00000  Uiso   1.00
C104   C     0.09906   0.50706   0.60516   0.00000  Uiso   1.00
C105   C     0.03980   0.49029   0.65769   0.00000  Uiso   1.00
C106   C     0.18100   0.53914   0.69288   0.00000  Uiso   1.00
C107   C     0.19520   0.58412   0.65555   0.00000  Uiso   1.00
C108   C     0.19934   0.62313   0.69221   0.00000  Uiso   1.00
C109   C     0.21276   0.66077   0.64801   0.00000  Uiso   1.00
C110   C     0.20961   0.50425   0.65592   0.00000  Uiso   1.00
C111   C     0.22587   0.47609   0.69291   0.00000  Uiso   1.00
C112   C     0.25142   0.44648   0.64903   0.00000  Uiso   1.00
C113   C     0.14948   0.52734   0.66871   0.00000  Uiso   1.00
C114   C     0.11518   0.51859   0.71645   0.00000  Uiso   1.00
C115   C     0.09010   0.50842   0.68334   0.00000  Uiso   1.00
H116   H     0.20443   0.53558   0.48843   0.00000  Uiso   1.00
H117   H     0.22448   0.61929   0.47284   0.00000  Uiso   1.00
H118   H     0.25100   0.47227   0.47354   0.00000  Uiso   1.00
H119   H     0.14033   0.51477   0.49708   0.00000  Uiso   1.00
H120   H     0.24278   0.71270   0.48997   0.00000  Uiso   1.00
H121   H     0.29869   0.40268   0.49145   0.00000  Uiso   1.00
H122   H     0.06531   0.49230   0.54109   0.00000  Uiso   1.00
H123   H     0.17404   0.54020   0.75364   0.00000  Uiso   1.00
H124   H     0.19241   0.62417   0.75261   0.00000  Uiso   1.00
H125   H     0.21894   0.47715   0.75330   0.00000  Uiso   1.00
H126   H     0.10826   0.51965   0.77684   0.00000  Uiso   1.00
H127   H     0.21675   0.71666   0.71704   0.00000  Uiso   1.00
H128   H     0.27267   0.40664   0.71851   0.00000  Uiso   1.00
H129   H     0.03928   0.49626   0.76816   0.00000  Uiso   1.00
O130   O     0.24241   0.76983   0.59804   0.00000  Uiso   1.00
O131   O     0.31577   0.36309   0.59997   0.00000  Uiso   1.00
O132   O     0.50958   0.98067   0.66510   0.00000  Uiso   1.00
N133   N     0.23412   0.70211   0.54356   0.00000  Uiso   1.00
N134   N     0.28641   0.41227   0.54494   0.00000  Uiso   1.00
N135   N     0.06821   0.49604   0.59134   0.00000  Uiso   1.00
N136   N     0.22012   0.70424   0.66574   0.00000  Uiso   1.00
N137   N     0.27240   0.41440   0.66712   0.00000  Uiso   1.00
N138   N     0.05421   0.49817   0.71353   0.00000  Uiso   1.00
C139   C     0.62655   0.53952   0.66619   0.00000  Uiso   1.00
C140   C     0.61116   0.51452   0.74055   0.00000  Uiso   1.00
C141   C     0.57773   0.52139   0.79354   0.00000  Uiso   1.00
C142   C     0.56862   0.49513   0.85794   0.00000  Uiso   1.00
C143   C     0.54115   0.46119   0.97176   0.00000  Uiso   1.00
C144   C     0.66129   0.56043   0.66631   0.00000  Uiso   1.00
C145   C     0.67002   0.60591   0.65686   0.00000  Uiso   1.00
C146   C     0.70311   0.61829   0.65876   0.00000  Uiso   1.00
C147   C     0.75349   0.65564   0.65727   0.00000  Uiso   1.00
C148   C     0.63684   0.50326   0.60551   0.00000  Uiso   1.00
C149   C     0.62501   0.50066   0.54492   0.00000  Uiso   1.00
C150   C     0.63752   0.46491   0.49562   0.00000  Uiso   1.00
C151   C     0.64994   0.41348   0.39972   0.00000  Uiso   1.00
C152   C     0.66981   0.48065   0.68634   0.00000  Uiso   1.00
C153   C     0.63466   0.48255   0.75150   0.00000  Uiso   1.00
C154   C     0.62559   0.45626   0.81583   0.00000  Uiso   1.00
C155   C     0.59216   0.46309   0.86890   0.00000  Uiso   1.00
C156   C     0.68479   0.52846   0.67726   0.00000  Uiso   1.00
C157   C     0.71788   0.54078   0.67916   0.00000  Uiso   1.00
C158   C     0.72665   0.58626   0.66973   0.00000  Uiso   1.00
C159   C     0.66034   0.47128   0.61645   0.00000  Uiso   1.00
C160   C     0.67287   0.43553   0.56723   0.00000  Uiso   1.00
C161   C     0.66106   0.43288   0.50658   0.00000  Uiso   1.00
H162   H     0.60825   0.56441   0.65766   0.00000  Uiso   1.00
H163   H     0.55955   0.54615   0.78505   0.00000  Uiso   1.00
H164   H     0.65183   0.63065   0.64839   0.00000  Uiso   1.00
H165   H     0.60683   0.52541   0.53647   0.00000  Uiso   1.00
H166   H     0.51593   0.51180   0.93112   0.00000  Uiso   1.00
H167   H     0.71050   0.68998   0.64294   0.00000  Uiso   1.00
H168   H     0.61560   0.46807   0.40694   0.00000  Uiso   1.00
H169   H     0.68810   0.45575   0.69486   0.00000  Uiso   1.00
H170   H     0.64378   0.43152   0.82429   0.00000  Uiso   1.00
H171   H     0.73606   0.51602   0.68763   0.00000  Uiso   1.00
H172   H     0.69106   0.41079   0.57571   0.00000  Uiso   1.00
H173   H     0.58429   0.41877   0.96297   0.00000  Uiso   1.00
H174   H     0.77886   0.59694   0.67479   0.00000  Uiso   1.00
H175   H     0.68397   0.37504   0.43879   0.00000  Uiso   1.00
O176   O     0.51952   0.45131   0.03153   0.00000  Uiso   1.00
O177   O     0.77479   0.68507   0.65343   0.00000  Uiso   1.00
O178   O     0.65029   0.39394   0.34381   0.00000  Uiso   1.00
N179   N     0.53809   0.49323   0.92084   0.00000  Uiso   1.00
N180   N     0.72001   0.65981   0.65143   0.00000  Uiso   1.00
N181   N     0.63130   0.45235   0.43077   0.00000  Uiso   1.00
N182   N     0.57488   0.44316   0.93798   0.00000  Uiso   1.00
N183   N     0.75679   0.60975   0.66857   0.00000  Uiso   1.00
N184   N     0.66808   0.40229   0.44791   0.00000  Uiso   1.00
C185   C     0.86830   0.62221   0.22690   0.00000  Uiso   1.00
C186   C     0.40737   0.11410   0.18178   0.00000  Uiso   1.00
C187   C     0.92077   0.57858   0.13253   0.00000  Uiso   1.00
C188   C     0.45731   0.07714   0.09667   0.00000  Uiso   1.00
C189   C     0.51458   0.05953   0.02466   0.00000  Uiso   1.00
C190   C     0.86580   0.62444   0.30882   0.00000  Uiso   1.00
C191   C     0.84424   0.59760   0.36638   0.00000  Uiso   1.00
C192   C     0.84578   0.60486   0.43747   0.00000  Uiso   1.00
C193   C     0.83849   0.60332   0.56271   0.00000  Uiso   1.00
C194   C     0.35988   0.16961   0.20649   0.00000  Uiso   1.00
C195   C     0.33333   0.18077   0.17803   0.00000  Uiso   1.00
C196   C     0.32988   0.22606   0.16298   0.00000  Uiso   1.00
C197   C     0.31340   0.29466   0.12933   0.00000  Uiso   1.00
C198   C     0.40937   0.18281   0.25080   0.00000  Uiso   1.00
C199   C     0.42968   0.14702   0.19476   0.00000  Uiso   1.00
C200   C     0.46621   0.14563   0.15897   0.00000  Uiso   1.00
C201   C     0.47966   0.11011   0.10967   0.00000  Uiso   1.00
C202   C     0.38810   0.15735   0.32180   0.00000  Uiso   1.00
C203   C     0.38967   0.16465   0.39282   0.00000  Uiso   1.00
C204   C     0.86812   0.63784   0.45048   0.00000  Uiso   1.00
C205   C     0.38218   0.20253   0.21947   0.00000  Uiso   1.00
C206   C     0.37877   0.24781   0.20447   0.00000  Uiso   1.00
C207   C     0.35223   0.25903   0.17599   0.00000  Uiso   1.00
H208   H     0.85094   0.59658   0.21680   0.00000  Uiso   1.00
H209   H     0.90350   0.55311   0.12250   0.00000  Uiso   1.00
H210   H     0.82698   0.57214   0.35632   0.00000  Uiso   1.00
H211   H     0.81608   0.65529   0.16799   0.00000  Uiso   1.00
H212   H     0.97162   0.51943   0.02370   0.00000  Uiso   1.00
H213   H     0.81025   0.55955   0.51673   0.00000  Uiso   1.00
H214   H     0.28727   0.23489   0.11960   0.00000  Uiso   1.00
H215   H     0.42673   0.20843   0.26091   0.00000  Uiso   1.00
H216   H     0.48346   0.17110   0.16903   0.00000  Uiso   1.00
H217   H     0.40693   0.19013   0.40285   0.00000  Uiso   1.00
H218   H     0.39604   0.27327   0.21452   0.00000  Uiso   1.00
H219   H     0.53651   0.11519   0.06147   0.00000  Uiso   1.00
H220   H     0.37515   0.15531   0.55449   0.00000  Uiso   1.00
H221   H     0.35217   0.33065   0.15736   0.00000  Uiso   1.00
O222   O     0.54001   0.04073   0.98137   0.00000  Uiso   1.00
O223   O     0.82831   0.59337   0.62820   0.00000  Uiso   1.00
O224   O     0.79815   0.82340   0.10717   0.00000  Uiso   1.00
N225   N     0.47911   0.04710   0.04519   0.00000  Uiso   1.00
N226   N     0.82824   0.58460   0.50613   0.00000  Uiso   1.00
N227   N     0.30675   0.24853   0.13487   0.00000  Uiso   1.00
N228   N     0.51403   0.09862   0.06551   0.00000  Uiso   1.00
N229   N     0.86316   0.63613   0.52645   0.00000  Uiso   1.00
N230   N     0.34167   0.30006   0.15519   0.00000  Uiso   1.00
C231   C     0.69747   0.03664   0.54919   0.00000  Uiso   1.00
C232   C     0.70414   0.08276   0.57750   0.00000  Uiso   1.00
C233   C     0.71756   0.12036   0.53324   0.00000  Uiso   1.00
C234   C     0.72172   0.15941   0.56983   0.00000  Uiso   1.00
C235   C     0.73346   0.23082   0.60191   0.00000  Uiso   1.00
C236   C     0.71856   0.00289   0.57788   0.00000  Uiso   1.00
C237   C     0.74409   0.97331   0.53394   0.00000  Uiso   1.00
C238   C     0.76038   0.94512   0.57085   0.00000  Uiso   1.00
C239   C     0.79448   0.89249   0.60352   0.00000  Uiso   1.00
C240   C     0.65842   0.02598   0.59067   0.00000  Uiso   1.00
C241   C     0.63340   0.01582   0.55748   0.00000  Uiso   1.00
C242   C     0.59906   0.00706   0.60516   0.00000  Uiso   1.00
C243   C     0.53980   0.99029   0.65769   0.00000  Uiso   1.00
C244   C     0.68100   0.03914   0.69288   0.00000  Uiso   1.00
C245   C     0.69520   0.08412   0.65555   0.00000  Uiso   1.00
C246   C     0.69934   0.12313   0.69221   0.00000  Uiso   1.00
C247   C     0.71276   0.16077   0.64801   0.00000  Uiso   1.00
C248   C     0.70961   0.00425   0.65592   0.00000  Uiso   1.00
C249   C     0.72587   0.97609   0.69291   0.00000  Uiso   1.00
C250   C     0.75142   0.94648   0.64903   0.00000  Uiso   1.00
C251   C     0.64948   0.02734   0.66871   0.00000  Uiso   1.00
C252   C     0.61518   0.01859   0.71645   0.00000  Uiso   1.00
C253   C     0.59010   0.00842   0.68334   0.00000  Uiso   1.00
H254   H     0.70443   0.03558   0.48843   0.00000  Uiso   1.00
H255   H     0.72448   0.11929   0.47284   0.00000  Uiso   1.00
H256   H     0.75100   0.97227   0.47354   0.00000  Uiso   1.00
H257   H     0.64033   0.01477   0.49708   0.00000  Uiso   1.00
H258   H     0.74278   0.21270   0.48997   0.00000  Uiso   1.00
H259   H     0.79869   0.90268   0.49145   0.00000  Uiso   1.00
H260   H     0.56531   0.99230   0.54109   0.00000  Uiso   1.00
H261   H     0.67404   0.04020   0.75364   0.00000  Uiso   1.00
H262   H     0.69241   0.12417   0.75261   0.00000  Uiso   1.00
H263   H     0.71894   0.97715   0.75330   0.00000  Uiso   1.00
H264   H     0.60826   0.01965   0.77684   0.00000  Uiso   1.00
H265   H     0.71675   0.21666   0.71704   0.00000  Uiso   1.00
H266   H     0.77267   0.90664   0.71851   0.00000  Uiso   1.00
H267   H     0.53928   0.99626   0.76816   0.00000  Uiso   1.00
O268   O     0.74241   0.26983   0.59804   0.00000  Uiso   1.00
O269   O     0.81577   0.86309   0.59997   0.00000  Uiso   1.00
O270   O     0.00958   0.48067   0.66510   0.00000  Uiso   1.00
N271   N     0.73412   0.20211   0.54356   0.00000  Uiso   1.00
N272   N     0.78641   0.91227   0.54494   0.00000  Uiso   1.00
N273   N     0.56821   0.99604   0.59134   0.00000  Uiso   1.00
N274   N     0.72012   0.20424   0.66574   0.00000  Uiso   1.00
N275   N     0.77240   0.91440   0.66712   0.00000  Uiso   1.00
N276   N     0.55421   0.99817   0.71353   0.00000  Uiso   1.00
C277   C     0.87345   0.03952   0.83381   0.00000  Uiso   1.00
C278   C     0.88884   0.01452   0.75945   0.00000  Uiso   1.00
C279   C     0.92227   0.02139   0.70646   0.00000  Uiso   1.00
C280   C     0.93138   0.99513   0.64206   0.00000  Uiso   1.00
C281   C     0.95885   0.96119   0.52824   0.00000  Uiso   1.00
C282   C     0.83871   0.06043   0.83369   0.00000  Uiso   1.00
C283   C     0.82998   0.10591   0.84314   0.00000  Uiso   1.00
C284   C     0.79689   0.11829   0.84124   0.00000  Uiso   1.00
C285   C     0.74651   0.15564   0.84273   0.00000  Uiso   1.00
C286   C     0.86316   0.00326   0.89449   0.00000  Uiso   1.00
C287   C     0.87499   0.00066   0.95508   0.00000  Uiso   1.00
C288   C     0.86248   0.96491   0.00438   0.00000  Uiso   1.00
C289   C     0.85006   0.91348   0.10028   0.00000  Uiso   1.00
C290   C     0.83019   0.98065   0.81366   0.00000  Uiso   1.00
C291   C     0.86534   0.98255   0.74850   0.00000  Uiso   1.00
C292   C     0.87441   0.95626   0.68417   0.00000  Uiso   1.00
C293   C     0.90784   0.96309   0.63110   0.00000  Uiso   1.00
C294   C     0.81521   0.02846   0.82274   0.00000  Uiso   1.00
C295   C     0.78212   0.04078   0.82084   0.00000  Uiso   1.00
C296   C     0.77335   0.08626   0.83027   0.00000  Uiso   1.00
C297   C     0.83966   0.97128   0.88355   0.00000  Uiso   1.00
C298   C     0.82713   0.93553   0.93277   0.00000  Uiso   1.00
C299   C     0.83894   0.93288   0.99342   0.00000  Uiso   1.00
H300   H     0.89175   0.06441   0.84234   0.00000  Uiso   1.00
H301   H     0.94045   0.04615   0.71495   0.00000  Uiso   1.00
H302   H     0.84817   0.13065   0.85161   0.00000  Uiso   1.00
H303   H     0.89317   0.02541   0.96353   0.00000  Uiso   1.00
H304   H     0.98407   0.01180   0.56888   0.00000  Uiso   1.00
H305   H     0.78950   0.18998   0.85706   0.00000  Uiso   1.00
H306   H     0.88440   0.96807   0.09306   0.00000  Uiso   1.00
H307   H     0.81190   0.95575   0.80514   0.00000  Uiso   1.00
H308   H     0.85622   0.93152   0.67571   0.00000  Uiso   1.00
H309   H     0.76394   0.01602   0.81237   0.00000  Uiso   1.00
H310   H     0.80894   0.91079   0.92429   0.00000  Uiso   1.00
H311   H     0.91571   0.91877   0.53703   0.00000  Uiso   1.00
H312   H     0.72114   0.09694   0.82521   0.00000  Uiso   1.00
H313   H     0.81603   0.87504   0.06121   0.00000  Uiso   1.00
O314   O     0.98048   0.95131   0.46847   0.00000  Uiso   1.00
O315   O     0.72521   0.18507   0.84657   0.00000  Uiso   1.00
O316   O     0.84971   0.89394   0.15619   0.00000  Uiso   1.00
N317   N     0.96191   0.99323   0.57916   0.00000  Uiso   1.00
N318   N     0.77999   0.15981   0.84857   0.00000  Uiso   1.00
N319   N     0.86870   0.95235   0.06923   0.00000  Uiso   1.00
N320   N     0.92512   0.94316   0.56202   0.00000  Uiso   1.00
N321   N     0.74321   0.10975   0.83143   0.00000  Uiso   1.00
N322   N     0.83192   0.90229   0.05209   0.00000  Uiso   1.00
C323   C     0.63170   0.12221   0.27310   0.00000  Uiso   1.00
C324   C     0.09263   0.61410   0.31822   0.00000  Uiso   1.00
C325   C     0.57923   0.07858   0.36747   0.00000  Uiso   1.00
C326   C     0.04269   0.57714   0.40333   0.00000  Uiso   1.00
C327   C     0.98542   0.55953   0.47534   0.00000  Uiso   1.00
C328   C     0.63420   0.12444   0.19118   0.00000  Uiso   1.00
C329   C     0.65576   0.09760   0.13362   0.00000  Uiso   1.00
C330   C     0.65422   0.10486   0.06253   0.00000  Uiso   1.00
C331   C     0.66151   0.10332   0.93729   0.00000  Uiso   1.00
C332   C     0.14012   0.66961   0.29351   0.00000  Uiso   1.00
C333   C     0.16667   0.68077   0.32197   0.00000  Uiso   1.00
C334   C     0.17012   0.72606   0.33702   0.00000  Uiso   1.00
C335   C     0.18660   0.79466   0.37067   0.00000  Uiso   1.00
C336   C     0.09063   0.68281   0.24920   0.00000  Uiso   1.00
C337   C     0.07032   0.64702   0.30524   0.00000  Uiso   1.00
C338   C     0.03379   0.64563   0.34103   0.00000  Uiso   1.00
C339   C     0.02034   0.61011   0.39033   0.00000  Uiso   1.00
C340   C     0.11190   0.65735   0.17820   0.00000  Uiso   1.00
C341   C     0.11033   0.66465   0.10718   0.00000  Uiso   1.00
C342   C     0.63188   0.13784   0.04952   0.00000  Uiso   1.00
C343   C     0.11782   0.70253   0.28053   0.00000  Uiso   1.00
C344   C     0.12123   0.74781   0.29553   0.00000  Uiso   1.00
C345   C     0.14777   0.75903   0.32401   0.00000  Uiso   1.00
H346   H     0.64906   0.09658   0.28320   0.00000  Uiso   1.00
H347   H     0.59650   0.05311   0.37750   0.00000  Uiso   1.00
H348   H     0.67302   0.07214   0.14368   0.00000  Uiso   1.00
H349   H     0.68392   0.15529   0.33201   0.00000  Uiso   1.00
H350   H     0.52838   0.01943   0.47630   0.00000  Uiso   1.00
H351   H     0.68975   0.05955   0.98327   0.00000  Uiso   1.00
H352   H     0.21273   0.73489   0.38040   0.00000  Uiso   1.00
H353   H     0.07327   0.70843   0.23909   0.00000  Uiso   1.00
H354   H     0.01654   0.67110   0.33097   0.00000  Uiso   1.00
H355   H     0.09307   0.69013   0.09715   0.00000  Uiso   1.00
H356   H     0.10396   0.77327   0.28548   0.00000  Uiso   1.00
H357   H     0.96349   0.61519   0.43853   0.00000  Uiso   1.00
H358   H     0.12485   0.65531   0.94551   0.00000  Uiso   1.00
H359   H     0.14783   0.83065   0.34264   0.00000  Uiso   1.00
O360   O     0.95999   0.54073   0.51863   0.00000  Uiso   1.00
O361   O     0.67169   0.09337   0.87180   0.00000  Uiso   1.00
O362   O     0.70185   0.32340   0.39283   0.00000  Uiso   1.00
N363   N     0.02089   0.54710   0.45481   0.00000  Uiso   1.00
N364   N     0.67176   0.08460   0.99387   0.00000  Uiso   1.00
N365   N     0.19325   0.74853   0.36513   0.00000  Uiso   1.00
N366   N     0.98597   0.59862   0.43449   0.00000  Uiso   1.00
N367   N     0.63684   0.13613   0.97355   0.00000  Uiso   1.00
N368   N     0.15833   0.80006   0.34481   0.00000  Uiso   1.00
C369   C     0.80253   0.53664   0.95081   0.00000  Uiso   1.00
C370   C     0.79586   0.58276   0.92250   0.00000  Uiso   1.00
C371   C     0.78244   0.62036   0.96676   0.00000  Uiso   1.00
C372   C     0.77828   0.65941   0.93017   0.00000  Uiso   1.00
C373   C     0.76654   0.73082   0.89809   0.00000  Uiso   1.00
C374   C     0.78144   0.50289   0.92212   0.00000  Uiso   1.00
C375   C     0.75591   0.47331   0.96606   0.00000  Uiso   1.00
C376   C     0.73962   0.44512   0.92915   0.00000  Uiso   1.00
C377   C     0.70552   0.39249   0.89648   0.00000  Uiso   1.00
C378   C     0.84158   0.52598   0.90933   0.00000  Uiso   1.00
C379   C     0.86660   0.51582   0.94252   0.00000  Uiso   1.00
C380   C     0.90094   0.50706   0.89484   0.00000  Uiso   1.00
C381   C     0.96020   0.49029   0.84231   0.00000  Uiso   1.00
C382   C     0.81900   0.53914   0.80712   0.00000  Uiso   1.00
C383   C     0.80480   0.58412   0.84445   0.00000  Uiso   1.00
C384   C     0.80066   0.62313   0.80779   0.00000  Uiso   1.00
C385   C     0.78724   0.66077   0.85199   0.00000  Uiso   1.00
C386   C     0.79039   0.50425   0.84408   0.00000  Uiso   1.00
C387   C     0.77413   0.47609   0.80709   0.00000  Uiso   1.00
C388   C     0.74858   0.44648   0.85097   0.00000  Uiso   1.00
C389   C     0.85052   0.52734   0.83129   0.00000  Uiso   1.00
C390   C     0.88482   0.51859   0.78355   0.00000  Uiso   1.00
C391   C     0.90990   0.50842   0.81666   0.00000  Uiso   1.00
H392   H     0.79557   0.53558   0.01157   0.00000  Uiso   1.00
H393   H     0.77552   0.61929   0.02716   0.00000  Uiso   1.00
H394   H     0.74900   0.47227   0.02646   0.00000  Uiso   1.00
H395   H     0.85967   0.51477   0.00292   0.00000  Uiso   1.00
H396   H     0.75722   0.71270   0.01003   0.00000  Uiso   1.00
H397   H     0.70131   0.40268   0.00855   0.00000  Uiso   1.00
H398   H     0.93469   0.49230   0.95891   0.00000  Uiso   1.00
H399   H     0.82596   0.54020   0.74636   0.00000  Uiso   1.00
H400   H     0.80759   0.62417   0.74739   0.00000  Uiso   1.00
H401   H     0.78106   0.47715   0.74670   0.00000  Uiso   1.00
H402   H     0.89174   0.51965   0.72316   0.00000  Uiso   1.00
H403   H     0.78325   0.71666   0.78296   0.00000  Uiso   1.00
H404   H     0.72733   0.40664   0.78149   0.00000  Uiso   1.00
H405   H     0.96072   0.49626   0.73184   0.00000  Uiso   1.00
O406   O     0.75759   0.76983   0.90196   0.00000  Uiso   1.00
O407   O     0.68423   0.36309   0.90003   0.00000  Uiso   1.00
O408   O     0.49042   0.98067   0.83490   0.00000  Uiso   1.00
N409   N     0.76588   0.70211   0.95644   0.00000  Uiso   1.00
N410   N     0.71359   0.41227   0.95506   0.00000  Uiso   1.00
N411   N     0.93179   0.49604   0.90866   0.00000  Uiso   1.00
N412   N     0.77988   0.70424   0.83426   0.00000  Uiso   1.00
N413   N     0.72760   0.41440   0.83288   0.00000  Uiso   1.00
N414   N     0.94579   0.49817   0.78647   0.00000  Uiso   1.00
C415   C     0.37345   0.53952   0.83381   0.00000  Uiso   1.00
C416   C     0.38884   0.51452   0.75945   0.00000  Uiso   1.00
C417   C     0.42227   0.52139   0.70646   0.00000  Uiso   1.00
C418   C     0.43138   0.49513   0.64206   0.00000  Uiso   1.00
C419   C     0.45885   0.46119   0.52824   0.00000  Uiso   1.00
C420   C     0.33871   0.56043   0.83369   0.00000  Uiso   1.00
C421   C     0.32998   0.60591   0.84314   0.00000  Uiso   1.00
C422   C     0.29689   0.61829   0.84124   0.00000  Uiso   1.00
C423   C     0.24651   0.65564   0.84273   0.00000  Uiso   1.00
C424   C     0.36316   0.50326   0.89449   0.00000  Uiso   1.00
C425   C     0.37499   0.50066   0.95508   0.00000  Uiso   1.00
C426   C     0.36248   0.46491   0.00438   0.00000  Uiso   1.00
C427   C     0.35006   0.41348   0.10028   0.00000  Uiso   1.00
C428   C     0.33019   0.48065   0.81366   0.00000  Uiso   1.00
C429   C     0.36534   0.48255   0.74850   0.00000  Uiso   1.00
C430   C     0.37441   0.45626   0.68417   0.00000  Uiso   1.00
C431   C     0.40784   0.46309   0.63110   0.00000  Uiso   1.00
C432   C     0.31521   0.52846   0.82274   0.00000  Uiso   1.00
C433   C     0.28212   0.54078   0.82084   0.00000  Uiso   1.00
C434   C     0.27335   0.58626   0.83027   0.00000  Uiso   1.00
C435   C     0.33966   0.47128   0.88355   0.00000  Uiso   1.00
C436   C     0.32713   0.43553   0.93277   0.00000  Uiso   1.00
C437   C     0.33894   0.43288   0.99342   0.00000  Uiso   1.00
H438   H     0.39175   0.56441   0.84234   0.00000  Uiso   1.00
H439   H     0.44045   0.54615   0.71495   0.00000  Uiso   1.00
H440   H     0.34817   0.63065   0.85161   0.00000  Uiso   1.00
H441   H     0.39317   0.52541   0.96353   0.00000  Uiso   1.00
H442   H     0.48407   0.51180   0.56888   0.00000  Uiso   1.00
H443   H     0.28950   0.68998   0.85706   0.00000  Uiso   1.00
H444   H     0.38440   0.46807   0.09306   0.00000  Uiso   1.00
H445   H     0.31190   0.45575   0.80514   0.00000  Uiso   1.00
H446   H     0.35622   0.43152   0.67571   0.00000  Uiso   1.00
H447   H     0.26394   0.51602   0.81237   0.00000  Uiso   1.00
H448   H     0.30894   0.41079   0.92429   0.00000  Uiso   1.00
H449   H     0.41571   0.41877   0.53703   0.00000  Uiso   1.00
H450   H     0.22114   0.59694   0.82521   0.00000  Uiso   1.00
H451   H     0.31603   0.37504   0.06121   0.00000  Uiso   1.00
O452   O     0.48048   0.45131   0.46847   0.00000  Uiso   1.00
O453   O     0.22521   0.68507   0.84657   0.00000  Uiso   1.00
O454   O     0.34971   0.39394   0.15619   0.00000  Uiso   1.00
N455   N     0.46191   0.49323   0.57916   0.00000  Uiso   1.00
N456   N     0.27999   0.65981   0.84857   0.00000  Uiso   1.00
N457   N     0.36870   0.45235   0.06923   0.00000  Uiso   1.00
N458   N     0.42512   0.44316   0.56202   0.00000  Uiso   1.00
N459   N     0.24321   0.60975   0.83143   0.00000  Uiso   1.00
N460   N     0.33192   0.40229   0.05209   0.00000  Uiso   1.00
C461   C     0.13170   0.62221   0.27310   0.00000  Uiso   1.00
C462   C     0.59263   0.11410   0.31822   0.00000  Uiso   1.00
C463   C     0.07923   0.57858   0.36747   0.00000  Uiso   1.00
C464   C     0.54269   0.07714   0.40333   0.00000  Uiso   1.00
C465   C     0.48542   0.05953   0.47534   0.00000  Uiso   1.00
C466   C     0.13420   0.62444   0.19118   0.00000  Uiso   1.00
C467   C     0.15576   0.59760   0.13362   0.00000  Uiso   1.00
C468   C     0.15422   0.60486   0.06253   0.00000  Uiso   1.00
C469   C     0.16151   0.60332   0.93729   0.00000  Uiso   1.00
C470   C     0.64012   0.16961   0.29351   0.00000  Uiso   1.00
C471   C     0.66667   0.18077   0.32197   0.00000  Uiso   1.00
C472   C     0.67012   0.22606   0.33702   0.00000  Uiso   1.00
C473   C     0.68660   0.29466   0.37067   0.00000  Uiso   1.00
C474   C     0.59063   0.18281   0.24920   0.00000  Uiso   1.00
C475   C     0.57032   0.14702   0.30524   0.00000  Uiso   1.00
C476   C     0.53379   0.14563   0.34103   0.00000  Uiso   1.00
C477   C     0.52034   0.11011   0.39033   0.00000  Uiso   1.00
C478   C     0.61190   0.15735   0.17820   0.00000  Uiso   1.00
C479   C     0.61033   0.16465   0.10718   0.00000  Uiso   1.00
C480   C     0.13188   0.63784   0.04952   0.00000  Uiso   1.00
C481   C     0.61782   0.20253   0.28053   0.00000  Uiso   1.00
C482   C     0.62123   0.24781   0.29553   0.00000  Uiso   1.00
C483   C     0.64777   0.25903   0.32401   0.00000  Uiso   1.00
H484   H     0.14906   0.59658   0.28320   0.00000  Uiso   1.00
H485   H     0.09650   0.55311   0.37750   0.00000  Uiso   1.00
H486   H     0.17302   0.57214   0.14368   0.00000  Uiso   1.00
H487   H     0.18392   0.65529   0.33201   0.00000  Uiso   1.00
H488   H     0.02838   0.51943   0.47630   0.00000  Uiso   1.00
H489   H     0.18975   0.55955   0.98327   0.00000  Uiso   1.00
H490   H     0.71273   0.23489   0.38040   0.00000  Uiso   1.00
H491   H     0.57327   0.20843   0.23909   0.00000  Uiso   1.00
H492   H     0.51654   0.17110   0.33097   0.00000  Uiso   1.00
H493   H     0.59307   0.19013   0.09715   0.00000  Uiso   1.00
H494   H     0.60396   0.27327   0.28548   0.00000  Uiso   1.00
H495   H     0.46349   0.11519   0.43853   0.00000  Uiso   1.00
H496   H     0.62485   0.15531   0.94551   0.00000  Uiso   1.00
H497   H     0.64783   0.33065   0.34264   0.00000  Uiso   1.00
O498   O     0.45999   0.04073   0.51863   0.00000  Uiso   1.00
O499   O     0.17169   0.59337   0.87180   0.00000  Uiso   1.00
O500   O     0.20185   0.82340   0.39283   0.00000  Uiso   1.00
N501   N     0.52089   0.04710   0.45481   0.00000  Uiso   1.00
N502   N     0.17176   0.58460   0.99387   0.00000  Uiso   1.00
N503   N     0.69325   0.24853   0.36513   0.00000  Uiso   1.00
N504   N     0.48597   0.09862   0.43449   0.00000  Uiso   1.00
N505   N     0.13684   0.63613   0.97355   0.00000  Uiso   1.00
N506   N     0.65833   0.30006   0.34481   0.00000  Uiso   1.00
C507   C     0.30253   0.03664   0.95081   0.00000  Uiso   1.00
C508   C     0.29586   0.08276   0.92250   0.00000  Uiso   1.00
C509   C     0.28244   0.12036   0.96676   0.00000  Uiso   1.00
C510   C     0.27828   0.15941   0.93017   0.00000  Uiso   1.00
C511   C     0.26654   0.23082   0.89809   0.00000  Uiso   1.00
C512   C     0.28144   0.00289   0.92212   0.00000  Uiso   1.00
C513   C     0.25591   0.97331   0.96606   0.00000  Uiso   1.00
C514   C     0.23962   0.94512   0.92915   0.00000  Uiso   1.00
C515   C     0.20552   0.89249   0.89648   0.00000  Uiso   1.00
C516   C     0.34158   0.02598   0.90933   0.00000  Uiso   1.00
C517   C     0.36660   0.01582   0.94252   0.00000  Uiso   1.00
C518   C     0.40094   0.00706   0.89484   0.00000  Uiso   1.00
C519   C     0.46020   0.99029   0.84231   0.00000  Uiso   1.00
C520   C     0.31900   0.03914   0.80712   0.00000  Uiso   1.00
C521   C     0.30480   0.08412   0.84445   0.00000  Uiso   1.00
C522   C     0.30066   0.12313   0.80779   0.00000  Uiso   1.00
C523   C     0.28724   0.16077   0.85199   0.00000  Uiso   1.00
C524   C     0.29039   0.00425   0.84408   0.00000  Uiso   1.00
C525   C     0.27413   0.97609   0.80709   0.00000  Uiso   1.00
C526   C     0.24858   0.94648   0.85097   0.00000  Uiso   1.00
C527   C     0.35052   0.02734   0.83129   0.00000  Uiso   1.00
C528   C     0.38482   0.01859   0.78355   0.00000  Uiso   1.00
C529   C     0.40990   0.00842   0.81666   0.00000  Uiso   1.00
H530   H     0.29557   0.03558   0.01157   0.00000  Uiso   1.00
H531   H     0.27552   0.11929   0.02716   0.00000  Uiso   1.00
H532   H     0.24900   0.97227   0.02646   0.00000  Uiso   1.00
H533   H     0.35967   0.01477   0.00292   0.00000  Uiso   1.00
H534   H     0.25722   0.21270   0.01003   0.00000  Uiso   1.00
H535   H     0.20131   0.90268   0.00855   0.00000  Uiso   1.00
H536   H     0.43469   0.99230   0.95891   0.00000  Uiso   1.00
H537   H     0.32596   0.04020   0.74636   0.00000  Uiso   1.00
H538   H     0.30759   0.12417   0.74739   0.00000  Uiso   1.00
H539   H     0.28106   0.97715   0.74670   0.00000  Uiso   1.00
H540   H     0.39174   0.01965   0.72316   0.00000  Uiso   1.00
H541   H     0.28325   0.21666   0.78296   0.00000  Uiso   1.00
H542   H     0.22733   0.90664   0.78149   0.00000  Uiso   1.00
H543   H     0.46072   0.99626   0.73184   0.00000  Uiso   1.00
O544   O     0.25759   0.26983   0.90196   0.00000  Uiso   1.00
O545   O     0.18423   0.86309   0.90003   0.00000  Uiso   1.00
O546   O     0.99042   0.48067   0.83490   0.00000  Uiso   1.00
N547   N     0.26588   0.20211   0.95644   0.00000  Uiso   1.00
N548   N     0.21359   0.91227   0.95506   0.00000  Uiso   1.00
N549   N     0.43179   0.99604   0.90866   0.00000  Uiso   1.00
N550   N     0.27988   0.20424   0.83426   0.00000  Uiso   1.00
N551   N     0.22760   0.91440   0.83288   0.00000  Uiso   1.00
N552   N     0.44579   0.99817   0.78647   0.00000  Uiso   1.00
C553   C     0.87345   0.96048   0.33381   0.00000  Uiso   1.00
C554   C     0.88884   0.98548   0.25945   0.00000  Uiso   1.00
C555   C     0.92227   0.97861   0.20646   0.00000  Uiso   1.00
C556   C     0.93138   0.00487   0.14206   0.00000  Uiso   1.00
C557   C     0.95885   0.03881   0.02824   0.00000  Uiso   1.00
C558   C     0.83871   0.93957   0.33369   0.00000  Uiso   1.00
C559   C     0.82998   0.89409   0.34314   0.00000  Uiso   1.00
C560   C     0.79689   0.88171   0.34124   0.00000  Uiso   1.00
C561   C     0.74651   0.84436   0.34273   0.00000  Uiso   1.00
C562   C     0.86316   0.99674   0.39449   0.00000  Uiso   1.00
C563   C     0.87499   0.99934   0.45508   0.00000  Uiso   1.00
C564   C     0.86248   0.03509   0.50438   0.00000  Uiso   1.00
C565   C     0.85006   0.08652   0.60028   0.00000  Uiso   1.00
C566   C     0.83019   0.01935   0.31366   0.00000  Uiso   1.00
C567   C     0.86534   0.01745   0.24850   0.00000  Uiso   1.00
C568   C     0.87441   0.04374   0.18417   0.00000  Uiso   1.00
C569   C     0.90784   0.03691   0.13110   0.00000  Uiso   1.00
C570   C     0.81521   0.97154   0.32274   0.00000  Uiso   1.00
C571   C     0.78212   0.95922   0.32084   0.00000  Uiso   1.00
C572   C     0.77335   0.91374   0.33027   0.00000  Uiso   1.00
C573   C     0.83966   0.02872   0.38355   0.00000  Uiso   1.00
C574   C     0.82713   0.06447   0.43277   0.00000  Uiso   1.00
C575   C     0.83894   0.06712   0.49342   0.00000  Uiso   1.00
H576   H     0.89175   0.93559   0.34234   0.00000  Uiso   1.00
H577   H     0.94045   0.95385   0.21495   0.00000  Uiso   1.00
H578   H     0.84817   0.86935   0.35161   0.00000  Uiso   1.00
H579   H     0.89317   0.97459   0.46353   0.00000  Uiso   1.00
H580   H     0.98407   0.98820   0.06888   0.00000  Uiso   1.00
H581   H     0.78950   0.81002   0.35706   0.00000  Uiso   1.00
H582   H     0.88440   0.03193   0.59306   0.00000  Uiso   1.00
H583   H     0.81190   0.04425   0.30514   0.00000  Uiso   1.00
H584   H     0.85622   0.06848   0.17571   0.00000  Uiso   1.00
H585   H     0.76394   0.98398   0.31237   0.00000  Uiso   1.00
H586   H     0.80894   0.08921   0.42429   0.00000  Uiso   1.00
H587   H     0.91571   0.08123   0.03703   0.00000  Uiso   1.00
H588   H     0.72114   0.90306   0.32521   0.00000  Uiso   1.00
H589   H     0.81603   0.12496   0.56121   0.00000  Uiso   1.00
O590   O     0.98048   0.04869   0.96847   0.00000  Uiso   1.00
O591   O     0.72521   0.81493   0.34657   0.00000  Uiso   1.00
O592   O     0.84971   0.10606   0.65619   0.00000  Uiso   1.00
N593   N     0.96191   0.00677   0.07916   0.00000  Uiso   1.00
N594   N     0.77999   0.84019   0.34857   0.00000  Uiso   1.00
N595   N     0.86870   0.04765   0.56923   0.00000  Uiso   1.00
N596   N     0.92512   0.05684   0.06202   0.00000  Uiso   1.00
N597   N     0.74321   0.89025   0.33143   0.00000  Uiso   1.00
N598   N     0.83192   0.09771   0.55209   0.00000  Uiso   1.00
C599   C     0.63170   0.87779   0.77310   0.00000  Uiso   1.00
C600   C     0.09263   0.38590   0.81822   0.00000  Uiso   1.00
C601   C     0.57923   0.92142   0.86747   0.00000  Uiso   1.00
C602   C     0.04269   0.42286   0.90333   0.00000  Uiso   1.00
C603   C     0.98542   0.44047   0.97534   0.00000  Uiso   1.00
C604   C     0.63420   0.87556   0.69118   0.00000  Uiso   1.00
C605   C     0.65576   0.90240   0.63362   0.00000  Uiso   1.00
C606   C     0.65422   0.89514   0.56253   0.00000  Uiso   1.00
C607   C     0.66151   0.89668   0.43729   0.00000  Uiso   1.00
C608   C     0.14012   0.33039   0.79351   0.00000  Uiso   1.00
C609   C     0.16667   0.31923   0.82197   0.00000  Uiso   1.00
C610   C     0.17012   0.27394   0.83702   0.00000  Uiso   1.00
C611   C     0.18660   0.20534   0.87067   0.00000  Uiso   1.00
C612   C     0.09063   0.31719   0.74920   0.00000  Uiso   1.00
C613   C     0.07032   0.35298   0.80524   0.00000  Uiso   1.00
C614   C     0.03379   0.35437   0.84103   0.00000  Uiso   1.00
C615   C     0.02034   0.38989   0.89033   0.00000  Uiso   1.00
C616   C     0.11190   0.34265   0.67820   0.00000  Uiso   1.00
C617   C     0.11033   0.33535   0.60718   0.00000  Uiso   1.00
C618   C     0.63188   0.86216   0.54952   0.00000  Uiso   1.00
C619   C     0.11782   0.29747   0.78053   0.00000  Uiso   1.00
C620   C     0.12123   0.25219   0.79553   0.00000  Uiso   1.00
C621   C     0.14777   0.24097   0.82401   0.00000  Uiso   1.00
H622   H     0.64906   0.90342   0.78320   0.00000  Uiso   1.00
H623   H     0.59650   0.94689   0.87750   0.00000  Uiso   1.00
H624   H     0.67302   0.92786   0.64368   0.00000  Uiso   1.00
H625   H     0.68392   0.84471   0.83201   0.00000  Uiso   1.00
H626   H     0.52838   0.98057   0.97630   0.00000  Uiso   1.00
H627   H     0.68975   0.94045   0.48327   0.00000  Uiso   1.00
H628   H     0.21273   0.26511   0.88040   0.00000  Uiso   1.00
H629   H     0.07327   0.29157   0.73909   0.00000  Uiso   1.00
H630   H     0.01654   0.32890   0.83097   0.00000  Uiso   1.00
H631   H     0.09307   0.30987   0.59715   0.00000  Uiso   1.00
H632   H     0.10396   0.22673   0.78548   0.00000  Uiso   1.00
H633   H     0.96349   0.38481   0.93853   0.00000  Uiso   1.00
H634   H     0.12485   0.34469   0.44551   0.00000  Uiso   1.00
H635   H     0.14783   0.16935   0.84264   0.00000  Uiso   1.00
O636   O     0.95999   0.45927   0.01863   0.00000  Uiso   1.00
O637   O     0.67169   0.90663   0.37180   0.00000  Uiso   1.00
O638   O     0.70185   0.67660   0.89283   0.00000  Uiso   1.00
N639   N     0.02089   0.45290   0.95481   0.00000  Uiso   1.00
N640   N     0.67176   0.91540   0.49387   0.00000  Uiso   1.00
N641   N     0.19325   0.25147   0.86513   0.00000  Uiso   1.00
N642   N     0.98597   0.40138   0.93449   0.00000  Uiso   1.00
N643   N     0.63684   0.86387   0.47355   0.00000  Uiso   1.00
N644   N     0.15833   0.19994   0.84481   0.00000  Uiso   1.00
C645   C     0.80253   0.46336   0.45081   0.00000  Uiso   1.00
C646   C     0.79586   0.41724   0.42250   0.00000  Uiso   1.00
C647   C     0.78244   0.37964   0.46676   0.00000  Uiso   1.00
C648   C     0.77828   0.34059   0.43017   0.00000  Uiso   1.00
C649   C     0.76654   0.26918   0.39809   0.00000  Uiso   1.00
C650   C     0.78144   0.49711   0.42212   0.00000  Uiso   1.00
C651   C     0.75591   0.52669   0.46606   0.00000  Uiso   1.00
C652   C     0.73962   0.55488   0.42915   0.00000  Uiso   1.00
C653   C     0.70552   0.60751   0.39648   0.00000  Uiso   1.00
C654   C     0.84158   0.47402   0.40933   0.00000  Uiso   1.00
C655   C     0.86660   0.48418   0.44252   0.00000  Uiso   1.00
C656   C     0.90094   0.49294   0.39484   0.00000  Uiso   1.00
C657   C     0.96020   0.50971   0.34231   0.00000  Uiso   1.00
C658   C     0.81900   0.46086   0.30712   0.00000  Uiso   1.00
C659   C     0.80480   0.41588   0.34445   0.00000  Uiso   1.00
C660   C     0.80066   0.37687   0.30779   0.00000  Uiso   1.00
C661   C     0.78724   0.33923   0.35199   0.00000  Uiso   1.00
C662   C     0.79039   0.49575   0.34408   0.00000  Uiso   1.00
C663   C     0.77413   0.52391   0.30709   0.00000  Uiso   1.00
C664   C     0.74858   0.55352   0.35097   0.00000  Uiso   1.00
C665   C     0.85052   0.47266   0.33129   0.00000  Uiso   1.00
C666   C     0.88482   0.48141   0.28355   0.00000  Uiso   1.00
C667   C     0.90990   0.49158   0.31666   0.00000  Uiso   1.00
H668   H     0.79557   0.46442   0.51157   0.00000  Uiso   1.00
H669   H     0.77552   0.38071   0.52716   0.00000  Uiso   1.00
H670   H     0.74900   0.52773   0.52646   0.00000  Uiso   1.00
H671   H     0.85967   0.48523   0.50292   0.00000  Uiso   1.00
H672   H     0.75722   0.28730   0.51003   0.00000  Uiso   1.00
H673   H     0.70131   0.59732   0.50855   0.00000  Uiso   1.00
H674   H     0.93469   0.50770   0.45891   0.00000  Uiso   1.00
H675   H     0.82596   0.45980   0.24636   0.00000  Uiso   1.00
H676   H     0.80759   0.37583   0.24739   0.00000  Uiso   1.00
H677   H     0.78106   0.52285   0.24670   0.00000  Uiso   1.00
H678   H     0.89174   0.48035   0.22316   0.00000  Uiso   1.00
H679   H     0.78325   0.28334   0.28296   0.00000  Uiso   1.00
H680   H     0.72733   0.59336   0.28149   0.00000  Uiso   1.00
H681   H     0.96072   0.50374   0.23184   0.00000  Uiso   1.00
O682   O     0.75759   0.23017   0.40196   0.00000  Uiso   1.00
O683   O     0.68423   0.63691   0.40003   0.00000  Uiso   1.00
O684   O     0.49042   0.01933   0.33490   0.00000  Uiso   1.00
N685   N     0.76588   0.29789   0.45644   0.00000  Uiso   1.00
N686   N     0.71359   0.58773   0.45506   0.00000  Uiso   1.00
N687   N     0.93179   0.50396   0.40866   0.00000  Uiso   1.00
N688   N     0.77988   0.29576   0.33426   0.00000  Uiso   1.00
N689   N     0.72760   0.58560   0.33288   0.00000  Uiso   1.00
N690   N     0.94579   0.50183   0.28647   0.00000  Uiso   1.00
C691   C     0.37345   0.46048   0.33381   0.00000  Uiso   1.00
C692   C     0.38884   0.48548   0.25945   0.00000  Uiso   1.00
C693   C     0.42227   0.47861   0.20646   0.00000  Uiso   1.00
C694   C     0.43138   0.50487   0.14206   0.00000  Uiso   1.00
C695   C     0.45885   0.53881   0.02824   0.00000  Uiso   1.00
C696   C     0.33871   0.43957   0.33369   0.00000  Uiso   1.00
C697   C     0.32998   0.39409   0.34314   0.00000  Uiso   1.00
C698   C     0.29689   0.38171   0.34124   0.00000  Uiso   1.00
C699   C     0.24651   0.34436   0.34273   0.00000  Uiso   1.00
C700   C     0.36316   0.49674   0.39449   0.00000  Uiso   1.00
C701   C     0.37499   0.49934   0.45508   0.00000  Uiso   1.00
C702   C     0.36248   0.53509   0.50438   0.00000  Uiso   1.00
C703   C     0.35006   0.58652   0.60028   0.00000  Uiso   1.00
C704   C     0.33019   0.51935   0.31366   0.00000  Uiso   1.00
C705   C     0.36534   0.51745   0.24850   0.00000  Uiso   1.00
C706   C     0.37441   0.54374   0.18417   0.00000  Uiso   1.00
C707   C     0.40784   0.53691   0.13110   0.00000  Uiso   1.00
C708   C     0.31521   0.47154   0.32274   0.00000  Uiso   1.00
C709   C     0.28212   0.45922   0.32084   0.00000  Uiso   1.00
C710   C     0.27335   0.41374   0.33027   0.00000  Uiso   1.00
C711   C     0.33966   0.52872   0.38355   0.00000  Uiso   1.00
C712   C     0.32713   0.56447   0.43277   0.00000  Uiso   1.00
C713   C     0.33894   0.56712   0.49342   0.00000  Uiso   1.00
H714   H     0.39175   0.43559   0.34234   0.00000  Uiso   1.00
H715   H     0.44045   0.45385   0.21495   0.00000  Uiso   1.00
H716   H     0.34817   0.36935   0.35161   0.00000  Uiso   1.00
H717   H     0.39317   0.47459   0.46353   0.00000  Uiso   1.00
H718   H     0.48407   0.48820   0.06888   0.00000  Uiso   1.00
H719   H     0.28950   0.31002   0.35706   0.00000  Uiso   1.00
H720   H     0.38440   0.53193   0.59306   0.00000  Uiso   1.00
H721   H     0.31190   0.54425   0.30514   0.00000  Uiso   1.00
H722   H     0.35622   0.56848   0.17571   0.00000  Uiso   1.00
H723   H     0.26394   0.48398   0.31237   0.00000  Uiso   1.00
H724   H     0.30894   0.58921   0.42429   0.00000  Uiso   1.00
H725   H     0.41571   0.58123   0.03703   0.00000  Uiso   1.00
H726   H     0.22114   0.40306   0.32521   0.00000  Uiso   1.00
H727   H     0.31603   0.62496   0.56121   0.00000  Uiso   1.00
O728   O     0.48048   0.54869   0.96847   0.00000  Uiso   1.00
O729   O     0.22521   0.31493   0.34657   0.00000  Uiso   1.00
O730   O     0.34971   0.60606   0.65619   0.00000  Uiso   1.00
N731   N     0.46191   0.50677   0.07916   0.00000  Uiso   1.00
N732   N     0.27999   0.34019   0.34857   0.00000  Uiso   1.00
N733   N     0.36870   0.54765   0.56923   0.00000  Uiso   1.00
N734   N     0.42512   0.55684   0.06202   0.00000  Uiso   1.00
N735   N     0.24321   0.39025   0.33143   0.00000  Uiso   1.00
N736   N     0.33192   0.59771   0.55209   0.00000  Uiso   1.00
C737   C     0.13170   0.37779   0.77310   0.00000  Uiso   1.00
C738   C     0.59263   0.88590   0.81822   0.00000  Uiso   1.00
C739   C     0.07923   0.42142   0.86747   0.00000  Uiso   1.00
C740   C     0.54269   0.92286   0.90333   0.00000  Uiso   1.00
C741   C     0.48542   0.94047   0.97534   0.00000  Uiso   1.00
C742   C     0.13420   0.37556   0.69118   0.00000  Uiso   1.00
C743   C     0.15576   0.40240   0.63362   0.00000  Uiso   1.00
C744   C     0.15422   0.39514   0.56253   0.00000  Uiso   1.00
C745   C     0.16151   0.39668   0.43729   0.00000  Uiso   1.00
C746   C     0.64012   0.83039   0.79351   0.00000  Uiso   1.00
C747   C     0.66667   0.81923   0.82197   0.00000  Uiso   1.00
C748   C     0.67012   0.77394   0.83702   0.00000  Uiso   1.00
C749   C     0.68660   0.70534   0.87067   0.00000  Uiso   1.00
C750   C     0.59063   0.81719   0.74920   0.00000  Uiso   1.00
C751   C     0.57032   0.85298   0.80524   0.00000  Uiso   1.00
C752   C     0.53379   0.85437   0.84103   0.00000  Uiso   1.00
C753   C     0.52034   0.88989   0.89033   0.00000  Uiso   1.00
C754   C     0.61190   0.84265   0.67820   0.00000  Uiso   1.00
C755   C     0.61033   0.83535   0.60718   0.00000  Uiso   1.00
C756   C     0.13188   0.36216   0.54952   0.00000  Uiso   1.00
C757   C     0.61782   0.79747   0.78053   0.00000  Uiso   1.00
C758   C     0.62123   0.75219   0.79553   0.00000  Uiso   1.00
C759   C     0.64777   0.74097   0.82401   0.00000  Uiso   1.00
H760   H     0.14906   0.40342   0.78320   0.00000  Uiso   1.00
H761   H     0.09650   0.44689   0.87750   0.00000  Uiso   1.00
H762   H     0.17302   0.42786   0.64368   0.00000  Uiso   1.00
H763   H     0.18392   0.34471   0.83201   0.00000  Uiso   1.00
H764   H     0.02838   0.48057   0.97630   0.00000  Uiso   1.00
H765   H     0.18975   0.44045   0.48327   0.00000  Uiso   1.00
H766   H     0.71273   0.76511   0.88040   0.00000  Uiso   1.00
H767   H     0.57327   0.79157   0.73909   0.00000  Uiso   1.00
H768   H     0.51654   0.82890   0.83097   0.00000  Uiso   1.00
H769   H     0.59307   0.80987   0.59715   0.00000  Uiso   1.00
H770   H     0.60396   0.72673   0.78548   0.00000  Uiso   1.00
H771   H     0.46349   0.88481   0.93853   0.00000  Uiso   1.00
H772   H     0.62485   0.84469   0.44551   0.00000  Uiso   1.00
H773   H     0.64783   0.66935   0.84264   0.00000  Uiso   1.00
O774   O     0.45999   0.95927   0.01863   0.00000  Uiso   1.00
O775   O     0.17169   0.40663   0.37180   0.00000  Uiso   1.00
O776   O     0.20185   0.17660   0.89283   0.00000  Uiso   1.00
N777   N     0.52089   0.95290   0.95481   0.00000  Uiso   1.00
N778   N     0.17176   0.41540   0.49387   0.00000  Uiso   1.00
N779   N     0.69325   0.75147   0.86513   0.00000  Uiso   1.00
N780   N     0.48597   0.90138   0.93449   0.00000  Uiso   1.00
N781   N     0.13684   0.36387   0.47355   0.00000  Uiso   1.00
N782   N     0.65833   0.69994   0.84481   0.00000  Uiso   1.00
C783   C     0.30253   0.96336   0.45081   0.00000  Uiso   1.00
C784   C     0.29586   0.91724   0.42250   0.00000  Uiso   1.00
C785   C     0.28244   0.87964   0.46676   0.00000  Uiso   1.00
C786   C     0.27828   0.84059   0.43017   0.00000  Uiso   1.00
C787   C     0.26654   0.76918   0.39809   0.00000  Uiso   1.00
C788   C     0.28144   0.99711   0.42212   0.00000  Uiso   1.00
C789   C     0.25591   0.02669   0.46606   0.00000  Uiso   1.00
C790   C     0.23962   0.05488   0.42915   0.00000  Uiso   1.00
C791   C     0.20552   0.10751   0.39648   0.00000  Uiso   1.00
C792   C     0.34158   0.97402   0.40933   0.00000  Uiso   1.00
C793   C     0.36660   0.98418   0.44252   0.00000  Uiso   1.00
C794   C     0.40094   0.99294   0.39484   0.00000  Uiso   1.00
C795   C     0.46020   0.00971   0.34231   0.00000  Uiso   1.00
C796   C     0.31900   0.96086   0.30712   0.00000  Uiso   1.00
C797   C     0.30480   0.91588   0.34445   0.00000  Uiso   1.00
C798   C     0.30066   0.87687   0.30779   0.00000  Uiso   1.00
C799   C     0.28724   0.83923   0.35199   0.00000  Uiso   1.00
C800   C     0.29039   0.99575   0.34408   0.00000  Uiso   1.00
C801   C     0.27413   0.02391   0.30709   0.00000  Uiso   1.00
C802   C     0.24858   0.05352   0.35097   0.00000  Uiso   1.00
C803   C     0.35052   0.97266   0.33129   0.00000  Uiso   1.00
C804   C     0.38482   0.98141   0.28355   0.00000  Uiso   1.00
C805   C     0.40990   0.99158   0.31666   0.00000  Uiso   1.00
H806   H     0.29557   0.96442   0.51157   0.00000  Uiso   1.00
H807   H     0.27552   0.88071   0.52716   0.00000  Uiso   1.00
H808   H     0.24900   0.02773   0.52646   0.00000  Uiso   1.00
H809   H     0.35967   0.98523   0.50292   0.00000  Uiso   1.00
H810   H     0.25722   0.78730   0.51003   0.00000  Uiso   1.00
H811   H     0.20131   0.09732   0.50855   0.00000  Uiso   1.00
H812   H     0.43469   0.00770   0.45891   0.00000  Uiso   1.00
H813   H     0.32596   0.95980   0.24636   0.00000  Uiso   1.00
H814   H     0.30759   0.87583   0.24739   0.00000  Uiso   1.00
H815   H     0.28106   0.02285   0.24670   0.00000  Uiso   1.00
H816   H     0.39174   0.98035   0.22316   0.00000  Uiso   1.00
H817   H     0.28325   0.78334   0.28296   0.00000  Uiso   1.00
H818   H     0.22733   0.09336   0.28149   0.00000  Uiso   1.00
H819   H     0.46072   0.00374   0.23184   0.00000  Uiso   1.00
O820   O     0.25759   0.73017   0.40196   0.00000  Uiso   1.00
O821   O     0.18423   0.13691   0.40003   0.00000  Uiso   1.00
O822   O     0.99042   0.51933   0.33490   0.00000  Uiso   1.00
N823   N     0.26588   0.79789   0.45644   0.00000  Uiso   1.00
N824   N     0.21359   0.08773   0.45506   0.00000  Uiso   1.00
N825   N     0.43179   0.00396   0.40866   0.00000  Uiso   1.00
N826   N     0.27988   0.79576   0.33426   0.00000  Uiso   1.00
N827   N     0.22760   0.08560   0.33288   0.00000  Uiso   1.00
N828   N     0.44579   0.00183   0.28647   0.00000  Uiso   1.00
C829   C     0.12655   0.96048   0.16619   0.00000  Uiso   1.00
C830   C     0.11116   0.98548   0.24055   0.00000  Uiso   1.00
C831   C     0.07773   0.97861   0.29354   0.00000  Uiso   1.00
C832   C     0.06862   0.00487   0.35794   0.00000  Uiso   1.00
C833   C     0.04115   0.03881   0.47176   0.00000  Uiso   1.00
C834   C     0.16129   0.93957   0.16631   0.00000  Uiso   1.00
C835   C     0.17002   0.89409   0.15686   0.00000  Uiso   1.00
C836   C     0.20311   0.88171   0.15876   0.00000  Uiso   1.00
C837   C     0.25349   0.84436   0.15727   0.00000  Uiso   1.00
C838   C     0.13684   0.99674   0.10551   0.00000  Uiso   1.00
C839   C     0.12501   0.99934   0.04492   0.00000  Uiso   1.00
C840   C     0.13752   0.03509   0.99562   0.00000  Uiso   1.00
C841   C     0.14994   0.08652   0.89972   0.00000  Uiso   1.00
C842   C     0.16981   0.01935   0.18634   0.00000  Uiso   1.00
C843   C     0.13466   0.01745   0.25150   0.00000  Uiso   1.00
C844   C     0.12559   0.04374   0.31583   0.00000  Uiso   1.00
C845   C     0.09216   0.03691   0.36890   0.00000  Uiso   1.00
C846   C     0.18479   0.97154   0.17726   0.00000  Uiso   1.00
C847   C     0.21788   0.95922   0.17916   0.00000  Uiso   1.00
C848   C     0.22665   0.91374   0.16973   0.00000  Uiso   1.00
C849   C     0.16034   0.02872   0.11645   0.00000  Uiso   1.00
C850   C     0.17287   0.06447   0.06723   0.00000  Uiso   1.00
C851   C     0.16106   0.06712   0.00658   0.00000  Uiso   1.00
H852   H     0.10825   0.93559   0.15766   0.00000  Uiso   1.00
H853   H     0.05955   0.95385   0.28505   0.00000  Uiso   1.00
H854   H     0.15183   0.86935   0.14839   0.00000  Uiso   1.00
H855   H     0.10683   0.97459   0.03647   0.00000  Uiso   1.00
H856   H     0.01593   0.98820   0.43112   0.00000  Uiso   1.00
H857   H     0.21050   0.81002   0.14294   0.00000  Uiso   1.00
H858   H     0.11560   0.03193   0.90694   0.00000  Uiso   1.00
H859   H     0.18810   0.04425   0.19486   0.00000  Uiso   1.00
H860   H     0.14378   0.06848   0.32429   0.00000  Uiso   1.00
H861   H     0.23606   0.98398   0.18763   0.00000  Uiso   1.00
H862   H     0.19106   0.08921   0.07571   0.00000  Uiso   1.00
H863   H     0.08429   0.08123   0.46297   0.00000  Uiso   1.00
H864   H     0.27886   0.90306   0.17479   0.00000  Uiso   1.00
H865   H     0.18397   0.12496   0.93879   0.00000  Uiso   1.00
O866   O     0.01952   0.04869   0.53153   0.00000  Uiso   1.00
O867   O     0.27479   0.81493   0.15343   0.00000  Uiso   1.00
O868   O     0.15029   0.10606   0.84381   0.00000  Uiso   1.00
N869   N     0.03809   0.00677   0.42084   0.00000  Uiso   1.00
N870   N     0.22001   0.84019   0.15143   0.00000  Uiso   1.00
N871   N     0.13130   0.04765   0.93077   0.00000  Uiso   1.00
N872   N     0.07488   0.05684   0.43798   0.00000  Uiso   1.00
N873   N     0.25679   0.89025   0.16857   0.00000  Uiso   1.00
N874   N     0.16808   0.09771   0.94791   0.00000  Uiso   1.00
C875   C     0.36830   0.87779   0.72690   0.00000  Uiso   1.00
C876   C     0.90737   0.38590   0.68178   0.00000  Uiso   1.00
C877   C     0.42077   0.92142   0.63253   0.00000  Uiso   1.00
C878   C     0.95731   0.42286   0.59667   0.00000  Uiso   1.00
C879   C     0.01458   0.44047   0.52466   0.00000  Uiso   1.00
C880   C     0.36580   0.87556   0.80882   0.00000  Uiso   1.00
C881   C     0.34424   0.90240   0.86638   0.00000  Uiso   1.00
C882   C     0.34578   0.89514   0.93747   0.00000  Uiso   1.00
C883   C     0.33849   0.89668   0.06271   0.00000  Uiso   1.00
C884   C     0.85988   0.33039   0.70649   0.00000  Uiso   1.00
C885   C     0.83333   0.31923   0.67803   0.00000  Uiso   1.00
C886   C     0.82988   0.27394   0.66298   0.00000  Uiso   1.00
C887   C     0.81340   0.20534   0.62933   0.00000  Uiso   1.00
C888   C     0.90937   0.31719   0.75080   0.00000  Uiso   1.00
C889   C     0.92968   0.35298   0.69476   0.00000  Uiso   1.00
C890   C     0.96621   0.35437   0.65897   0.00000  Uiso   1.00
C891   C     0.97966   0.38989   0.60967   0.00000  Uiso   1.00
C892   C     0.88810   0.34265   0.82180   0.00000  Uiso   1.00
C893   C     0.88967   0.33535   0.89282   0.00000  Uiso   1.00
C894   C     0.36812   0.86216   0.95048   0.00000  Uiso   1.00
C895   C     0.88218   0.29747   0.71947   0.00000  Uiso   1.00
C896   C     0.87877   0.25219   0.70447   0.00000  Uiso   1.00
C897   C     0.85223   0.24097   0.67599   0.00000  Uiso   1.00
H898   H     0.35094   0.90342   0.71680   0.00000  Uiso   1.00
H899   H     0.40350   0.94689   0.62250   0.00000  Uiso   1.00
H900   H     0.32698   0.92786   0.85632   0.00000  Uiso   1.00
H901   H     0.31608   0.84471   0.66799   0.00000  Uiso   1.00
H902   H     0.47162   0.98057   0.52370   0.00000  Uiso   1.00
H903   H     0.31025   0.94045   0.01673   0.00000  Uiso   1.00
H904   H     0.78727   0.26511   0.61960   0.00000  Uiso   1.00
H905   H     0.92673   0.29157   0.76091   0.00000  Uiso   1.00
H906   H     0.98346   0.32890   0.66903   0.00000  Uiso   1.00
H907   H     0.90693   0.30987   0.90285   0.00000  Uiso   1.00
H908   H     0.89604   0.22673   0.71452   0.00000  Uiso   1.00
H909   H     0.03651   0.38481   0.56147   0.00000  Uiso   1.00
H910   H     0.87515   0.34469   0.05449   0.00000  Uiso   1.00
H911   H     0.85217   0.16935   0.65736   0.00000  Uiso   1.00
O912   O     0.04001   0.45927   0.48137   0.00000  Uiso   1.00
O913   O     0.32831   0.90663   0.12820   0.00000  Uiso   1.00
O914   O     0.29815   0.67660   0.60717   0.00000  Uiso   1.00
N915   N     0.97911   0.45290   0.54519   0.00000  Uiso   1.00
N916   N     0.32824   0.91540   0.00613   0.00000  Uiso   1.00
N917   N     0.80675   0.25147   0.63487   0.00000  Uiso   1.00
N918   N     0.01403   0.40138   0.56551   0.00000  Uiso   1.00
N919   N     0.36316   0.86387   0.02645   0.00000  Uiso   1.00
N920   N     0.84167   0.19994   0.65519   0.00000  Uiso   1.00
C921   C     0.19747   0.46336   0.04919   0.00000  Uiso   1.00
C922   C     0.20414   0.41724   0.07750   0.00000  Uiso   1.00
C923   C     0.21756   0.37964   0.03324   0.00000  Uiso   1.00
C924   C     0.22172   0.34059   0.06983   0.00000  Uiso   1.00
C925   C     0.23346   0.26918   0.10191   0.00000  Uiso   1.00
C926   C     0.21856   0.49711   0.07788   0.00000  Uiso   1.00
C927   C     0.24409   0.52669   0.03394   0.00000  Uiso   1.00
C928   C     0.26038   0.55488   0.07085   0.00000  Uiso   1.00
C929   C     0.29448   0.60751   0.10352   0.00000  Uiso   1.00
C930   C     0.15842   0.47402   0.09067   0.00000  Uiso   1.00
C931   C     0.13340   0.48418   0.05748   0.00000  Uiso   1.00
C932   C     0.09906   0.49294   0.10516   0.00000  Uiso   1.00
C933   C     0.03980   0.50971   0.15769   0.00000  Uiso   1.00
C934   C     0.18100   0.46086   0.19288   0.00000  Uiso   1.00
C935   C     0.19520   0.41588   0.15555   0.00000  Uiso   1.00
C936   C     0.19934   0.37687   0.19221   0.00000  Uiso   1.00
C937   C     0.21276   0.33923   0.14801   0.00000  Uiso   1.00
C938   C     0.20961   0.49575   0.15592   0.00000  Uiso   1.00
C939   C     0.22587   0.52391   0.19291   0.00000  Uiso   1.00
C940   C     0.25142   0.55352   0.14903   0.00000  Uiso   1.00
C941   C     0.14948   0.47266   0.16871   0.00000  Uiso   1.00
C942   C     0.11518   0.48141   0.21645   0.00000  Uiso   1.00
C943   C     0.09010   0.49158   0.18334   0.00000  Uiso   1.00
H944   H     0.20443   0.46442   0.98843   0.00000  Uiso   1.00
H945   H     0.22448   0.38071   0.97284   0.00000  Uiso   1.00
H946   H     0.25100   0.52773   0.97354   0.00000  Uiso   1.00
H947   H     0.14033   0.48523   0.99708   0.00000  Uiso   1.00
H948   H     0.24278   0.28730   0.98997   0.00000  Uiso   1.00
H949   H     0.29869   0.59732   0.99145   0.00000  Uiso   1.00
H950   H     0.06531   0.50770   0.04109   0.00000  Uiso   1.00
H951   H     0.17404   0.45980   0.25364   0.00000  Uiso   1.00
H952   H     0.19241   0.37583   0.25261   0.00000  Uiso   1.00
H953   H     0.21894   0.52285   0.25330   0.00000  Uiso   1.00
H954   H     0.10826   0.48035   0.27684   0.00000  Uiso   1.00
H955   H     0.21675   0.28334   0.21704   0.00000  Uiso   1.00
H956   H     0.27267   0.59336   0.21851   0.00000  Uiso   1.00
H957   H     0.03928   0.50374   0.26816   0.00000  Uiso   1.00
O958   O     0.24241   0.23017   0.09804   0.00000  Uiso   1.00
O959   O     0.31577   0.63691   0.09997   0.00000  Uiso   1.00
O960   O     0.50958   0.01933   0.16510   0.00000  Uiso   1.00
N961   N     0.23412   0.29789   0.04356   0.00000  Uiso   1.00
N962   N     0.28641   0.58773   0.04494   0.00000  Uiso   1.00
N963   N     0.06821   0.50396   0.09134   0.00000  Uiso   1.00
N964   N     0.22012   0.29576   0.16574   0.00000  Uiso   1.00
N965   N     0.27240   0.58560   0.16712   0.00000  Uiso   1.00
N966   N     0.05421   0.50183   0.21353   0.00000  Uiso   1.00
C967   C     0.62655   0.46048   0.16619   0.00000  Uiso   1.00
C968   C     0.61116   0.48548   0.24055   0.00000  Uiso   1.00
C969   C     0.57773   0.47861   0.29354   0.00000  Uiso   1.00
C970   C     0.56862   0.50487   0.35794   0.00000  Uiso   1.00
C971   C     0.54115   0.53881   0.47176   0.00000  Uiso   1.00
C972   C     0.66129   0.43957   0.16631   0.00000  Uiso   1.00
C973   C     0.67002   0.39409   0.15686   0.00000  Uiso   1.00
C974   C     0.70311   0.38171   0.15876   0.00000  Uiso   1.00
C975   C     0.75349   0.34436   0.15727   0.00000  Uiso   1.00
C976   C     0.63684   0.49674   0.10551   0.00000  Uiso   1.00
C977   C     0.62501   0.49934   0.04492   0.00000  Uiso   1.00
C978   C     0.63752   0.53509   0.99562   0.00000  Uiso   1.00
C979   C     0.64994   0.58652   0.89972   0.00000  Uiso   1.00
C980   C     0.66981   0.51935   0.18634   0.00000  Uiso   1.00
C981   C     0.63466   0.51745   0.25150   0.00000  Uiso   1.00
C982   C     0.62559   0.54374   0.31583   0.00000  Uiso   1.00
C983   C     0.59216   0.53691   0.36890   0.00000  Uiso   1.00
C984   C     0.68479   0.47154   0.17726   0.00000  Uiso   1.00
C985   C     0.71788   0.45922   0.17916   0.00000  Uiso   1.00
C986   C     0.72665   0.41374   0.16973   0.00000  Uiso   1.00
C987   C     0.66034   0.52872   0.11645   0.00000  Uiso   1.00
C988   C     0.67287   0.56447   0.06723   0.00000  Uiso   1.00
C989   C     0.66106   0.56712   0.00658   0.00000  Uiso   1.00
H990   H     0.60825   0.43559   0.15766   0.00000  Uiso   1.00
H991   H     0.55955   0.45385   0.28505   0.00000  Uiso   1.00
H992   H     0.65183   0.36935   0.14839   0.00000  Uiso   1.00
H993   H     0.60683   0.47459   0.03647   0.00000  Uiso   1.00
H994   H     0.51593   0.48820   0.43112   0.00000  Uiso   1.00
H995   H     0.71050   0.31002   0.14294   0.00000  Uiso   1.00
H996   H     0.61560   0.53193   0.90694   0.00000  Uiso   1.00
H997   H     0.68810   0.54425   0.19486   0.00000  Uiso   1.00
H998   H     0.64378   0.56848   0.32429   0.00000  Uiso   1.00
H999   H     0.73606   0.48398   0.18763   0.00000  Uiso   1.00
H1000  H     0.69106   0.58921   0.07571   0.00000  Uiso   1.00
H1001  H     0.58429   0.58123   0.46297   0.00000  Uiso   1.00
H1002  H     0.77886   0.40306   0.17479   0.00000  Uiso   1.00
H1003  H     0.68397   0.62496   0.93879   0.00000  Uiso   1.00
O1004  O     0.51952   0.54869   0.53153   0.00000  Uiso   1.00
O1005  O     0.77479   0.31493   0.15343   0.00000  Uiso   1.00
O1006  O     0.65029   0.60606   0.84381   0.00000  Uiso   1.00
N1007  N     0.53809   0.50677   0.42084   0.00000  Uiso   1.00
N1008  N     0.72001   0.34019   0.15143   0.00000  Uiso   1.00
N1009  N     0.63130   0.54765   0.93077   0.00000  Uiso   1.00
N1010  N     0.57488   0.55684   0.43798   0.00000  Uiso   1.00
N1011  N     0.75679   0.39025   0.16857   0.00000  Uiso   1.00
N1012  N     0.66808   0.59771   0.94791   0.00000  Uiso   1.00
C1013  C     0.86830   0.37779   0.72690   0.00000  Uiso   1.00
C1014  C     0.40737   0.88590   0.68178   0.00000  Uiso   1.00
C1015  C     0.92077   0.42142   0.63253   0.00000  Uiso   1.00
C1016  C     0.45731   0.92286   0.59667   0.00000  Uiso   1.00
C1017  C     0.51458   0.94047   0.52466   0.00000  Uiso   1.00
C1018  C     0.86580   0.37556   0.80882   0.00000  Uiso   1.00
C1019  C     0.84424   0.40240   0.86638   0.00000  Uiso   1.00
C1020  C     0.84578   0.39514   0.93747   0.00000  Uiso   1.00
C1021  C     0.83849   0.39668   0.06271   0.00000  Uiso   1.00
C1022  C     0.35988   0.83039   0.70649   0.00000  Uiso   1.00
C1023  C     0.33333   0.81923   0.67803   0.00000  Uiso   1.00
C1024  C     0.32988   0.77394   0.66298   0.00000  Uiso   1.00
C1025  C     0.31340   0.70534   0.62933   0.00000  Uiso   1.00
C1026  C     0.40937   0.81719   0.75080   0.00000  Uiso   1.00
C1027  C     0.42968   0.85298   0.69476   0.00000  Uiso   1.00
C1028  C     0.46621   0.85437   0.65897   0.00000  Uiso   1.00
C1029  C     0.47966   0.88989   0.60967   0.00000  Uiso   1.00
C1030  C     0.38810   0.84265   0.82180   0.00000  Uiso   1.00
C1031  C     0.38967   0.83535   0.89282   0.00000  Uiso   1.00
C1032  C     0.86812   0.36216   0.95048   0.00000  Uiso   1.00
C1033  C     0.38218   0.79747   0.71947   0.00000  Uiso   1.00
C1034  C     0.37877   0.75219   0.70447   0.00000  Uiso   1.00
C1035  C     0.35223   0.74097   0.67599   0.00000  Uiso   1.00
H1036  H     0.85094   0.40342   0.71680   0.00000  Uiso   1.00
H1037  H     0.90350   0.44689   0.62250   0.00000  Uiso   1.00
H1038  H     0.82698   0.42786   0.85632   0.00000  Uiso   1.00
H1039  H     0.81608   0.34471   0.66799   0.00000  Uiso   1.00
H1040  H     0.97162   0.48057   0.52370   0.00000  Uiso   1.00
H1041  H     0.81025   0.44045   0.01673   0.00000  Uiso   1.00
H1042  H     0.28727   0.76511   0.61960   0.00000  Uiso   1.00
H1043  H     0.42673   0.79157   0.76091   0.00000  Uiso   1.00
H1044  H     0.48346   0.82890   0.66903   0.00000  Uiso   1.00
H1045  H     0.40693   0.80987   0.90285   0.00000  Uiso   1.00
H1046  H     0.39604   0.72673   0.71452   0.00000  Uiso   1.00
H1047  H     0.53651   0.88481   0.56147   0.00000  Uiso   1.00
H1048  H     0.37515   0.84469   0.05449   0.00000  Uiso   1.00
H1049  H     0.35217   0.66935   0.65736   0.00000  Uiso   1.00
O1050  O     0.54001   0.95927   0.48137   0.00000  Uiso   1.00
O1051  O     0.82831   0.40663   0.12820   0.00000  Uiso   1.00
O1052  O     0.79815   0.17660   0.60717   0.00000  Uiso   1.00
N1053  N     0.47911   0.95290   0.54519   0.00000  Uiso   1.00
N1054  N     0.82824   0.41540   0.00613   0.00000  Uiso   1.00
N1055  N     0.30675   0.75147   0.63487   0.00000  Uiso   1.00
N1056  N     0.51403   0.90138   0.56551   0.00000  Uiso   1.00
N1057  N     0.86316   0.36387   0.02645   0.00000  Uiso   1.00
N1058  N     0.34167   0.69994   0.65519   0.00000  Uiso   1.00
C1059  C     0.69747   0.96336   0.04919   0.00000  Uiso   1.00
C1060  C     0.70414   0.91724   0.07750   0.00000  Uiso   1.00
C1061  C     0.71756   0.87964   0.03324   0.00000  Uiso   1.00
C1062  C     0.72172   0.84059   0.06983   0.00000  Uiso   1.00
C1063  C     0.73346   0.76918   0.10191   0.00000  Uiso   1.00
C1064  C     0.71856   0.99711   0.07788   0.00000  Uiso   1.00
C1065  C     0.74409   0.02669   0.03394   0.00000  Uiso   1.00
C1066  C     0.76038   0.05488   0.07085   0.00000  Uiso   1.00
C1067  C     0.79448   0.10751   0.10352   0.00000  Uiso   1.00
C1068  C     0.65842   0.97402   0.09067   0.00000  Uiso   1.00
C1069  C     0.63340   0.98418   0.05748   0.00000  Uiso   1.00
C1070  C     0.59906   0.99294   0.10516   0.00000  Uiso   1.00
C1071  C     0.53980   0.00971   0.15769   0.00000  Uiso   1.00
C1072  C     0.68100   0.96086   0.19288   0.00000  Uiso   1.00
C1073  C     0.69520   0.91588   0.15555   0.00000  Uiso   1.00
C1074  C     0.69934   0.87687   0.19221   0.00000  Uiso   1.00
C1075  C     0.71276   0.83923   0.14801   0.00000  Uiso   1.00
C1076  C     0.70961   0.99575   0.15592   0.00000  Uiso   1.00
C1077  C     0.72587   0.02391   0.19291   0.00000  Uiso   1.00
C1078  C     0.75142   0.05352   0.14903   0.00000  Uiso   1.00
C1079  C     0.64948   0.97266   0.16871   0.00000  Uiso   1.00
C1080  C     0.61518   0.98141   0.21645   0.00000  Uiso   1.00
C1081  C     0.59010   0.99158   0.18334   0.00000  Uiso   1.00
H1082  H     0.70443   0.96442   0.98843   0.00000  Uiso   1.00
H1083  H     0.72448   0.88071   0.97284   0.00000  Uiso   1.00
H1084  H     0.75100   0.02773   0.97354   0.00000  Uiso   1.00
H1085  H     0.64033   0.98523   0.99708   0.00000  Uiso   1.00
H1086  H     0.74278   0.78730   0.98997   0.00000  Uiso   1.00
H1087  H     0.79869   0.09732   0.99145   0.00000  Uiso   1.00
H1088  H     0.56531   0.00770   0.04109   0.00000  Uiso   1.00
H1089  H     0.67404   0.95980   0.25364   0.00000  Uiso   1.00
H1090  H     0.69241   0.87583   0.25261   0.00000  Uiso   1.00
H1091  H     0.71894   0.02285   0.25330   0.00000  Uiso   1.00
H1092  H     0.60826   0.98035   0.27684   0.00000  Uiso   1.00
H1093  H     0.71675   0.78334   0.21704   0.00000  Uiso   1.00
H1094  H     0.77267   0.09336   0.21851   0.00000  Uiso   1.00
H1095  H     0.53928   0.00374   0.26816   0.00000  Uiso   1.00
O1096  O     0.74241   0.73017   0.09804   0.00000  Uiso   1.00
O1097  O     0.81577   0.13691   0.09997   0.00000  Uiso   1.00
O1098  O     0.00958   0.51933   0.16510   0.00000  Uiso   1.00
N1099  N     0.73412   0.79789   0.04356   0.00000  Uiso   1.00
N1100  N     0.78641   0.08773   0.04494   0.00000  Uiso   1.00
N1101  N     0.56821   0.00396   0.09134   0.00000  Uiso   1.00
N1102  N     0.72012   0.79576   0.16574   0.00000  Uiso   1.00
N1103  N     0.77240   0.08560   0.16712   0.00000  Uiso   1.00
N1104  N     0.55421   0.00183   0.21353   0.00000  Uiso   1.00
