data_job_05258
_audit_creation_date              2018-12-19
_audit_creation_method            'Materials Studio'
_symmetry_space_group_name_H-M    'P1'
_symmetry_Int_Tables_number       1
_symmetry_cell_setting            triclinic
loop_
_symmetry_equiv_pos_as_xyz
  x,y,z
_cell_length_a                    26.8658
_cell_length_b                    26.8658
_cell_length_c                    14.3759
_cell_angle_alpha                 90.0000
_cell_angle_beta                  90.0000
_cell_angle_gamma                 90.0000
loop_
_atom_site_label
_atom_site_type_symbol
_atom_site_fract_x
_atom_site_fract_y
_atom_site_fract_z
_atom_site_U_iso_or_equiv
_atom_site_adp_type
_atom_site_occupancy
C1     C     0.30007   0.61658   0.27258   0.00000  Uiso   1.00
C2     C     0.25997   0.59275   0.33302   0.00000  Uiso   1.00
C3     C     0.20967   0.59000   0.31163   0.00000  Uiso   1.00
C4     C     0.17902   0.56671   0.37606   0.00000  Uiso   1.00
C5     C     0.11385   0.53275   0.45733   0.00000  Uiso   1.00
C6     C     0.32521   0.65573   0.33333   0.00000  Uiso   1.00
C7     C     0.32978   0.70593   0.31219   0.00000  Uiso   1.00
C8     C     0.35406   0.73565   0.37687   0.00000  Uiso   1.00
C9     C     0.39022   0.79946   0.45859   0.00000  Uiso   1.00
C10    C     0.33901   0.57626   0.25588   0.00000  Uiso   1.00
C11    C     0.35519   0.55965   0.16962   0.00000  Uiso   1.00
C12    C     0.39110   0.52248   0.16910   0.00000  Uiso   1.00
C13    C     0.44869   0.46290   0.13056   0.00000  Uiso   1.00
C14    C     0.33507   0.58011   0.42505   0.00000  Uiso   1.00
C15    C     0.27898   0.57295   0.41584   0.00000  Uiso   1.00
C16    C     0.24839   0.54965   0.48031   0.00000  Uiso   1.00
C17    C     0.19806   0.54687   0.45902   0.00000  Uiso   1.00
C18    C     0.34422   0.63593   0.41614   0.00000  Uiso   1.00
C19    C     0.36850   0.66558   0.48087   0.00000  Uiso   1.00
C20    C     0.37310   0.71581   0.45983   0.00000  Uiso   1.00
C21    C     0.35802   0.55646   0.33869   0.00000  Uiso   1.00
C22    C     0.39391   0.51930   0.33830   0.00000  Uiso   1.00
C23    C     0.41014   0.50264   0.25206   0.00000  Uiso   1.00
H24    H     0.28527   0.63200   0.20812   0.00000  Uiso   1.00
H25    H     0.19497   0.60534   0.24754   0.00000  Uiso   1.00
H26    H     0.31507   0.72124   0.24809   0.00000  Uiso   1.00
H27    H     0.34048   0.57499   0.10555   0.00000  Uiso   1.00
H28    H     0.10324   0.56706   0.32779   0.00000  Uiso   1.00
H29    H     0.35649   0.81145   0.32894   0.00000  Uiso   1.00
H30    H     0.41006   0.50304   0.02836   0.00000  Uiso   1.00
H31    H     0.34987   0.56469   0.48952   0.00000  Uiso   1.00
H32    H     0.26311   0.53433   0.54439   0.00000  Uiso   1.00
H33    H     0.38321   0.65024   0.54494   0.00000  Uiso   1.00
H34    H     0.40861   0.50399   0.40240   0.00000  Uiso   1.00
H35    H     0.15854   0.50943   0.56873   0.00000  Uiso   1.00
H36    H     0.41179   0.75383   0.56987   0.00000  Uiso   1.00
H37    H     0.46536   0.44541   0.26930   0.00000  Uiso   1.00
O38    O     0.07265   0.51950   0.47929   0.00000  Uiso   1.00
O39    O     0.40491   0.84014   0.48078   0.00000  Uiso   1.00
O40    O     0.47519   0.43551   0.08643   0.00000  Uiso   1.00
N41    N     0.12816   0.55765   0.37696   0.00000  Uiso   1.00
N42    N     0.36493   0.78615   0.37803   0.00000  Uiso   1.00
N43    N     0.41502   0.49782   0.09702   0.00000  Uiso   1.00
N44    N     0.15792   0.52664   0.50660   0.00000  Uiso   1.00
N45    N     0.39468   0.75514   0.50768   0.00000  Uiso   1.00
N46    N     0.44478   0.46681   0.22666   0.00000  Uiso   1.00
C47    C     0.89578   0.27998   0.54349   0.00000  Uiso   1.00
C48    C     0.92093   0.24952   0.61968   0.00000  Uiso   1.00
C49    C     0.92528   0.19806   0.62130   0.00000  Uiso   1.00
C50    C     0.94959   0.17726   0.69715   0.00000  Uiso   1.00
C51    C     0.98569   0.12546   0.80457   0.00000  Uiso   1.00
C52    C     0.85588   0.31094   0.59192   0.00000  Uiso   1.00
C53    C     0.80554   0.31111   0.57019   0.00000  Uiso   1.00
C54    C     0.77510   0.34202   0.62267   0.00000  Uiso   1.00
C55    C     0.71021   0.38559   0.68696   0.00000  Uiso   1.00
C56    C     0.93480   0.31689   0.50922   0.00000  Uiso   1.00
C57    C     0.95083   0.32208   0.41796   0.00000  Uiso   1.00
C58    C     0.98682   0.35801   0.40081   0.00000  Uiso   1.00
C59    C     0.04448   0.41082   0.33670   0.00000  Uiso   1.00
C60    C     0.93121   0.33457   0.67531   0.00000  Uiso   1.00
C61    C     0.94017   0.27917   0.69128   0.00000  Uiso   1.00
C62    C     0.96448   0.25845   0.76714   0.00000  Uiso   1.00
C63    C     0.96887   0.20697   0.76887   0.00000  Uiso   1.00
C64    C     0.87512   0.34059   0.66352   0.00000  Uiso   1.00
C65    C     0.84474   0.37151   0.71604   0.00000  Uiso   1.00
C66    C     0.79437   0.37172   0.69440   0.00000  Uiso   1.00
C67    C     0.95405   0.34654   0.58082   0.00000  Uiso   1.00
C68    C     0.99002   0.38247   0.56381   0.00000  Uiso   1.00
C69    C     0.00610   0.38771   0.47254   0.00000  Uiso   1.00
H70    H     0.88079   0.25690   0.48775   0.00000  Uiso   1.00
H71    H     0.91038   0.17513   0.56588   0.00000  Uiso   1.00
H72    H     0.79066   0.28817   0.51478   0.00000  Uiso   1.00
H73    H     0.93593   0.29913   0.36257   0.00000  Uiso   1.00
H74    H     0.95165   0.09754   0.68409   0.00000  Uiso   1.00
H75    H     0.69923   0.33590   0.57632   0.00000  Uiso   1.00
H76    H     0.00554   0.35902   0.25536   0.00000  Uiso   1.00
H77    H     0.94619   0.35765   0.73106   0.00000  Uiso   1.00
H78    H     0.97937   0.28141   0.82254   0.00000  Uiso   1.00
H79    H     0.85965   0.39445   0.77143   0.00000  Uiso   1.00
H80    H     0.00491   0.40541   0.61923   0.00000  Uiso   1.00
H81    H     0.00764   0.18380   0.89241   0.00000  Uiso   1.00
H82    H     0.75521   0.42217   0.78463   0.00000  Uiso   1.00
H83    H     0.06153   0.44529   0.46367   0.00000  Uiso   1.00
O84    O     0.00028   0.08870   0.84405   0.00000  Uiso   1.00
O85    O     0.66911   0.40142   0.70264   0.00000  Uiso   1.00
O86    O     0.07098   0.43176   0.28156   0.00000  Uiso   1.00
N87    N     0.96029   0.12831   0.72055   0.00000  Uiso   1.00
N88    N     0.72428   0.35116   0.61980   0.00000  Uiso   1.00
N89    N     0.01065   0.37278   0.31973   0.00000  Uiso   1.00
N90    N     0.99041   0.17472   0.83265   0.00000  Uiso   1.00
N91    N     0.75441   0.39757   0.73189   0.00000  Uiso   1.00
N92    N     0.04077   0.41920   0.43182   0.00000  Uiso   1.00
C93    C     0.80007   0.11658   0.77258   0.00000  Uiso   1.00
C94    C     0.75997   0.09275   0.83302   0.00000  Uiso   1.00
C95    C     0.70967   0.09000   0.81163   0.00000  Uiso   1.00
C96    C     0.67902   0.06671   0.87606   0.00000  Uiso   1.00
C97    C     0.61385   0.03275   0.95733   0.00000  Uiso   1.00
C98    C     0.82521   0.15573   0.83333   0.00000  Uiso   1.00
C99    C     0.82978   0.20593   0.81219   0.00000  Uiso   1.00
C100   C     0.85406   0.23565   0.87687   0.00000  Uiso   1.00
C101   C     0.89022   0.29946   0.95859   0.00000  Uiso   1.00
C102   C     0.83901   0.07626   0.75588   0.00000  Uiso   1.00
C103   C     0.85519   0.05965   0.66962   0.00000  Uiso   1.00
C104   C     0.89110   0.02248   0.66910   0.00000  Uiso   1.00
C105   C     0.94869   0.96290   0.63056   0.00000  Uiso   1.00
C106   C     0.83507   0.08011   0.92505   0.00000  Uiso   1.00
C107   C     0.77898   0.07295   0.91584   0.00000  Uiso   1.00
C108   C     0.74839   0.04965   0.98031   0.00000  Uiso   1.00
C109   C     0.69806   0.04687   0.95902   0.00000  Uiso   1.00
C110   C     0.84422   0.13593   0.91614   0.00000  Uiso   1.00
C111   C     0.86850   0.16558   0.98087   0.00000  Uiso   1.00
C112   C     0.87310   0.21581   0.95983   0.00000  Uiso   1.00
C113   C     0.85802   0.05646   0.83869   0.00000  Uiso   1.00
C114   C     0.89391   0.01930   0.83830   0.00000  Uiso   1.00
C115   C     0.91014   0.00264   0.75206   0.00000  Uiso   1.00
H116   H     0.78527   0.13200   0.70812   0.00000  Uiso   1.00
H117   H     0.69497   0.10534   0.74754   0.00000  Uiso   1.00
H118   H     0.81507   0.22124   0.74809   0.00000  Uiso   1.00
H119   H     0.84048   0.07499   0.60555   0.00000  Uiso   1.00
H120   H     0.60324   0.06706   0.82779   0.00000  Uiso   1.00
H121   H     0.85649   0.31145   0.82894   0.00000  Uiso   1.00
H122   H     0.91006   0.00304   0.52836   0.00000  Uiso   1.00
H123   H     0.84987   0.06469   0.98952   0.00000  Uiso   1.00
H124   H     0.76311   0.03433   0.04439   0.00000  Uiso   1.00
H125   H     0.88321   0.15024   0.04494   0.00000  Uiso   1.00
H126   H     0.90861   0.00399   0.90240   0.00000  Uiso   1.00
H127   H     0.65854   0.00943   0.06873   0.00000  Uiso   1.00
H128   H     0.91179   0.25383   0.06987   0.00000  Uiso   1.00
H129   H     0.96536   0.94541   0.76930   0.00000  Uiso   1.00
O130   O     0.57265   0.01950   0.97929   0.00000  Uiso   1.00
O131   O     0.90491   0.34014   0.98078   0.00000  Uiso   1.00
O132   O     0.97519   0.93551   0.58643   0.00000  Uiso   1.00
N133   N     0.62816   0.05765   0.87696   0.00000  Uiso   1.00
N134   N     0.86493   0.28615   0.87803   0.00000  Uiso   1.00
N135   N     0.91502   0.99782   0.59702   0.00000  Uiso   1.00
N136   N     0.65792   0.02664   0.00660   0.00000  Uiso   1.00
N137   N     0.89468   0.25514   0.00768   0.00000  Uiso   1.00
N138   N     0.94478   0.96681   0.72666   0.00000  Uiso   1.00
C139   C     0.39578   0.77998   0.04349   0.00000  Uiso   1.00
C140   C     0.42093   0.74952   0.11968   0.00000  Uiso   1.00
C141   C     0.42528   0.69806   0.12130   0.00000  Uiso   1.00
C142   C     0.44959   0.67726   0.19715   0.00000  Uiso   1.00
C143   C     0.48569   0.62546   0.30457   0.00000  Uiso   1.00
C144   C     0.35588   0.81094   0.09192   0.00000  Uiso   1.00
C145   C     0.30554   0.81111   0.07019   0.00000  Uiso   1.00
C146   C     0.27510   0.84202   0.12267   0.00000  Uiso   1.00
C147   C     0.21021   0.88559   0.18696   0.00000  Uiso   1.00
C148   C     0.43480   0.81689   0.00922   0.00000  Uiso   1.00
C149   C     0.45083   0.82208   0.91796   0.00000  Uiso   1.00
C150   C     0.48682   0.85801   0.90081   0.00000  Uiso   1.00
C151   C     0.54448   0.91082   0.83670   0.00000  Uiso   1.00
C152   C     0.43121   0.83457   0.17531   0.00000  Uiso   1.00
C153   C     0.44017   0.77917   0.19128   0.00000  Uiso   1.00
C154   C     0.46448   0.75845   0.26714   0.00000  Uiso   1.00
C155   C     0.46887   0.70697   0.26887   0.00000  Uiso   1.00
C156   C     0.37512   0.84059   0.16352   0.00000  Uiso   1.00
C157   C     0.34474   0.87151   0.21604   0.00000  Uiso   1.00
C158   C     0.29437   0.87172   0.19440   0.00000  Uiso   1.00
C159   C     0.45405   0.84654   0.08082   0.00000  Uiso   1.00
C160   C     0.49002   0.88247   0.06381   0.00000  Uiso   1.00
C161   C     0.50610   0.88771   0.97254   0.00000  Uiso   1.00
H162   H     0.38079   0.75690   0.98775   0.00000  Uiso   1.00
H163   H     0.41038   0.67513   0.06588   0.00000  Uiso   1.00
H164   H     0.29066   0.78817   0.01478   0.00000  Uiso   1.00
H165   H     0.43593   0.79913   0.86257   0.00000  Uiso   1.00
H166   H     0.45165   0.59754   0.18409   0.00000  Uiso   1.00
H167   H     0.19923   0.83590   0.07632   0.00000  Uiso   1.00
H168   H     0.50554   0.85902   0.75536   0.00000  Uiso   1.00
H169   H     0.44619   0.85765   0.23106   0.00000  Uiso   1.00
H170   H     0.47937   0.78141   0.32254   0.00000  Uiso   1.00
H171   H     0.35965   0.89445   0.27143   0.00000  Uiso   1.00
H172   H     0.50491   0.90541   0.11923   0.00000  Uiso   1.00
H173   H     0.50764   0.68380   0.39241   0.00000  Uiso   1.00
H174   H     0.25521   0.92217   0.28463   0.00000  Uiso   1.00
H175   H     0.56153   0.94529   0.96367   0.00000  Uiso   1.00
O176   O     0.50028   0.58870   0.34405   0.00000  Uiso   1.00
O177   O     0.16911   0.90142   0.20264   0.00000  Uiso   1.00
O178   O     0.57098   0.93176   0.78156   0.00000  Uiso   1.00
N179   N     0.46029   0.62831   0.22055   0.00000  Uiso   1.00
N180   N     0.22428   0.85116   0.11980   0.00000  Uiso   1.00
N181   N     0.51065   0.87278   0.81973   0.00000  Uiso   1.00
N182   N     0.49041   0.67472   0.33265   0.00000  Uiso   1.00
N183   N     0.25441   0.89757   0.23189   0.00000  Uiso   1.00
N184   N     0.54077   0.91920   0.93182   0.00000  Uiso   1.00
C185   C     0.69993   0.38342   0.27258   0.00000  Uiso   1.00
C186   C     0.74003   0.40725   0.33302   0.00000  Uiso   1.00
C187   C     0.79033   0.41000   0.31163   0.00000  Uiso   1.00
C188   C     0.82098   0.43329   0.37606   0.00000  Uiso   1.00
C189   C     0.88615   0.46725   0.45733   0.00000  Uiso   1.00
C190   C     0.67479   0.34427   0.33333   0.00000  Uiso   1.00
C191   C     0.67022   0.29407   0.31219   0.00000  Uiso   1.00
C192   C     0.64594   0.26435   0.37687   0.00000  Uiso   1.00
C193   C     0.60978   0.20054   0.45859   0.00000  Uiso   1.00
C194   C     0.66099   0.42374   0.25588   0.00000  Uiso   1.00
C195   C     0.64481   0.44035   0.16962   0.00000  Uiso   1.00
C196   C     0.60890   0.47752   0.16910   0.00000  Uiso   1.00
C197   C     0.55131   0.53710   0.13056   0.00000  Uiso   1.00
C198   C     0.66493   0.41989   0.42505   0.00000  Uiso   1.00
C199   C     0.72102   0.42705   0.41584   0.00000  Uiso   1.00
C200   C     0.75161   0.45035   0.48031   0.00000  Uiso   1.00
C201   C     0.80194   0.45313   0.45902   0.00000  Uiso   1.00
C202   C     0.65578   0.36407   0.41614   0.00000  Uiso   1.00
C203   C     0.63150   0.33442   0.48087   0.00000  Uiso   1.00
C204   C     0.62690   0.28419   0.45983   0.00000  Uiso   1.00
C205   C     0.64198   0.44354   0.33869   0.00000  Uiso   1.00
C206   C     0.60609   0.48070   0.33830   0.00000  Uiso   1.00
C207   C     0.58986   0.49736   0.25206   0.00000  Uiso   1.00
H208   H     0.71473   0.36800   0.20812   0.00000  Uiso   1.00
H209   H     0.80503   0.39466   0.24754   0.00000  Uiso   1.00
H210   H     0.68493   0.27876   0.24809   0.00000  Uiso   1.00
H211   H     0.65952   0.42501   0.10555   0.00000  Uiso   1.00
H212   H     0.89676   0.43294   0.32779   0.00000  Uiso   1.00
H213   H     0.64351   0.18855   0.32894   0.00000  Uiso   1.00
H214   H     0.58994   0.49696   0.02836   0.00000  Uiso   1.00
H215   H     0.65013   0.43531   0.48952   0.00000  Uiso   1.00
H216   H     0.73689   0.46567   0.54439   0.00000  Uiso   1.00
H217   H     0.61679   0.34976   0.54494   0.00000  Uiso   1.00
H218   H     0.59139   0.49601   0.40240   0.00000  Uiso   1.00
H219   H     0.84146   0.49057   0.56873   0.00000  Uiso   1.00
H220   H     0.58821   0.24617   0.56987   0.00000  Uiso   1.00
H221   H     0.53464   0.55459   0.26930   0.00000  Uiso   1.00
O222   O     0.92735   0.48050   0.47929   0.00000  Uiso   1.00
O223   O     0.59509   0.15986   0.48078   0.00000  Uiso   1.00
O224   O     0.52481   0.56449   0.08643   0.00000  Uiso   1.00
N225   N     0.87184   0.44235   0.37696   0.00000  Uiso   1.00
N226   N     0.63507   0.21385   0.37803   0.00000  Uiso   1.00
N227   N     0.58498   0.50218   0.09702   0.00000  Uiso   1.00
N228   N     0.84208   0.47336   0.50660   0.00000  Uiso   1.00
N229   N     0.60532   0.24486   0.50768   0.00000  Uiso   1.00
N230   N     0.55522   0.53319   0.22666   0.00000  Uiso   1.00
C231   C     0.10422   0.72002   0.54349   0.00000  Uiso   1.00
C232   C     0.07907   0.75048   0.61968   0.00000  Uiso   1.00
C233   C     0.07472   0.80194   0.62130   0.00000  Uiso   1.00
C234   C     0.05041   0.82274   0.69715   0.00000  Uiso   1.00
C235   C     0.01431   0.87454   0.80457   0.00000  Uiso   1.00
C236   C     0.14412   0.68906   0.59192   0.00000  Uiso   1.00
C237   C     0.19446   0.68889   0.57019   0.00000  Uiso   1.00
C238   C     0.22490   0.65798   0.62267   0.00000  Uiso   1.00
C239   C     0.28979   0.61441   0.68696   0.00000  Uiso   1.00
C240   C     0.06520   0.68311   0.50922   0.00000  Uiso   1.00
C241   C     0.04917   0.67792   0.41796   0.00000  Uiso   1.00
C242   C     0.01318   0.64199   0.40081   0.00000  Uiso   1.00
C243   C     0.95552   0.58918   0.33670   0.00000  Uiso   1.00
C244   C     0.06879   0.66543   0.67531   0.00000  Uiso   1.00
C245   C     0.05983   0.72083   0.69128   0.00000  Uiso   1.00
C246   C     0.03552   0.74155   0.76714   0.00000  Uiso   1.00
C247   C     0.03113   0.79303   0.76887   0.00000  Uiso   1.00
C248   C     0.12488   0.65941   0.66352   0.00000  Uiso   1.00
C249   C     0.15526   0.62849   0.71604   0.00000  Uiso   1.00
C250   C     0.20563   0.62828   0.69440   0.00000  Uiso   1.00
C251   C     0.04595   0.65346   0.58082   0.00000  Uiso   1.00
C252   C     0.00998   0.61753   0.56381   0.00000  Uiso   1.00
C253   C     0.99390   0.61229   0.47254   0.00000  Uiso   1.00
H254   H     0.11921   0.74310   0.48775   0.00000  Uiso   1.00
H255   H     0.08962   0.82487   0.56588   0.00000  Uiso   1.00
H256   H     0.20934   0.71183   0.51478   0.00000  Uiso   1.00
H257   H     0.06407   0.70087   0.36257   0.00000  Uiso   1.00
H258   H     0.04835   0.90246   0.68409   0.00000  Uiso   1.00
H259   H     0.30077   0.66410   0.57632   0.00000  Uiso   1.00
H260   H     0.99446   0.64098   0.25536   0.00000  Uiso   1.00
H261   H     0.05381   0.64235   0.73106   0.00000  Uiso   1.00
H262   H     0.02063   0.71859   0.82254   0.00000  Uiso   1.00
H263   H     0.14035   0.60555   0.77143   0.00000  Uiso   1.00
H264   H     0.99509   0.59459   0.61923   0.00000  Uiso   1.00
H265   H     0.99236   0.81620   0.89241   0.00000  Uiso   1.00
H266   H     0.24479   0.57783   0.78463   0.00000  Uiso   1.00
H267   H     0.93847   0.55471   0.46367   0.00000  Uiso   1.00
O268   O     0.99972   0.91130   0.84405   0.00000  Uiso   1.00
O269   O     0.33089   0.59858   0.70264   0.00000  Uiso   1.00
O270   O     0.92902   0.56824   0.28156   0.00000  Uiso   1.00
N271   N     0.03971   0.87169   0.72055   0.00000  Uiso   1.00
N272   N     0.27572   0.64884   0.61980   0.00000  Uiso   1.00
N273   N     0.98935   0.62722   0.31973   0.00000  Uiso   1.00
N274   N     0.00959   0.82528   0.83265   0.00000  Uiso   1.00
N275   N     0.24559   0.60243   0.73189   0.00000  Uiso   1.00
N276   N     0.95923   0.58080   0.43182   0.00000  Uiso   1.00
C277   C     0.19993   0.88342   0.77258   0.00000  Uiso   1.00
C278   C     0.24003   0.90725   0.83302   0.00000  Uiso   1.00
C279   C     0.29033   0.91000   0.81163   0.00000  Uiso   1.00
C280   C     0.32098   0.93329   0.87606   0.00000  Uiso   1.00
C281   C     0.38615   0.96725   0.95733   0.00000  Uiso   1.00
C282   C     0.17479   0.84427   0.83333   0.00000  Uiso   1.00
C283   C     0.17022   0.79407   0.81219   0.00000  Uiso   1.00
C284   C     0.14594   0.76435   0.87687   0.00000  Uiso   1.00
C285   C     0.10978   0.70054   0.95859   0.00000  Uiso   1.00
C286   C     0.16099   0.92374   0.75588   0.00000  Uiso   1.00
C287   C     0.14481   0.94035   0.66962   0.00000  Uiso   1.00
C288   C     0.10890   0.97752   0.66910   0.00000  Uiso   1.00
C289   C     0.05131   0.03710   0.63056   0.00000  Uiso   1.00
C290   C     0.16493   0.91989   0.92505   0.00000  Uiso   1.00
C291   C     0.22102   0.92705   0.91584   0.00000  Uiso   1.00
C292   C     0.25161   0.95035   0.98031   0.00000  Uiso   1.00
C293   C     0.30194   0.95313   0.95902   0.00000  Uiso   1.00
C294   C     0.15578   0.86407   0.91614   0.00000  Uiso   1.00
C295   C     0.13150   0.83442   0.98087   0.00000  Uiso   1.00
C296   C     0.12690   0.78419   0.95983   0.00000  Uiso   1.00
C297   C     0.14198   0.94354   0.83869   0.00000  Uiso   1.00
C298   C     0.10609   0.98070   0.83830   0.00000  Uiso   1.00
C299   C     0.08986   0.99736   0.75206   0.00000  Uiso   1.00
H300   H     0.21473   0.86800   0.70812   0.00000  Uiso   1.00
H301   H     0.30503   0.89466   0.74754   0.00000  Uiso   1.00
H302   H     0.18493   0.77876   0.74809   0.00000  Uiso   1.00
H303   H     0.15952   0.92501   0.60555   0.00000  Uiso   1.00
H304   H     0.39676   0.93294   0.82779   0.00000  Uiso   1.00
H305   H     0.14351   0.68855   0.82894   0.00000  Uiso   1.00
H306   H     0.08994   0.99696   0.52836   0.00000  Uiso   1.00
H307   H     0.15013   0.93531   0.98952   0.00000  Uiso   1.00
H308   H     0.23689   0.96567   0.04439   0.00000  Uiso   1.00
H309   H     0.11679   0.84976   0.04494   0.00000  Uiso   1.00
H310   H     0.09139   0.99601   0.90240   0.00000  Uiso   1.00
H311   H     0.34146   0.99057   0.06873   0.00000  Uiso   1.00
H312   H     0.08821   0.74617   0.06987   0.00000  Uiso   1.00
H313   H     0.03464   0.05459   0.76930   0.00000  Uiso   1.00
O314   O     0.42735   0.98050   0.97929   0.00000  Uiso   1.00
O315   O     0.09509   0.65986   0.98078   0.00000  Uiso   1.00
O316   O     0.02481   0.06449   0.58643   0.00000  Uiso   1.00
N317   N     0.37184   0.94235   0.87696   0.00000  Uiso   1.00
N318   N     0.13507   0.71385   0.87803   0.00000  Uiso   1.00
N319   N     0.08498   0.00218   0.59702   0.00000  Uiso   1.00
N320   N     0.34208   0.97336   0.00660   0.00000  Uiso   1.00
N321   N     0.10532   0.74486   0.00768   0.00000  Uiso   1.00
N322   N     0.05522   0.03319   0.72666   0.00000  Uiso   1.00
C323   C     0.60422   0.22002   0.04349   0.00000  Uiso   1.00
C324   C     0.57907   0.25048   0.11968   0.00000  Uiso   1.00
C325   C     0.57472   0.30194   0.12130   0.00000  Uiso   1.00
C326   C     0.55041   0.32274   0.19715   0.00000  Uiso   1.00
C327   C     0.51431   0.37454   0.30457   0.00000  Uiso   1.00
C328   C     0.64412   0.18906   0.09192   0.00000  Uiso   1.00
C329   C     0.69446   0.18889   0.07019   0.00000  Uiso   1.00
C330   C     0.72490   0.15798   0.12267   0.00000  Uiso   1.00
C331   C     0.78979   0.11441   0.18696   0.00000  Uiso   1.00
C332   C     0.56520   0.18311   0.00922   0.00000  Uiso   1.00
C333   C     0.54917   0.17792   0.91796   0.00000  Uiso   1.00
C334   C     0.51318   0.14199   0.90081   0.00000  Uiso   1.00
C335   C     0.45552   0.08918   0.83670   0.00000  Uiso   1.00
C336   C     0.56879   0.16543   0.17531   0.00000  Uiso   1.00
C337   C     0.55983   0.22083   0.19128   0.00000  Uiso   1.00
C338   C     0.53552   0.24155   0.26714   0.00000  Uiso   1.00
C339   C     0.53113   0.29303   0.26887   0.00000  Uiso   1.00
C340   C     0.62488   0.15941   0.16352   0.00000  Uiso   1.00
C341   C     0.65526   0.12849   0.21604   0.00000  Uiso   1.00
C342   C     0.70563   0.12828   0.19440   0.00000  Uiso   1.00
C343   C     0.54595   0.15346   0.08082   0.00000  Uiso   1.00
C344   C     0.50998   0.11753   0.06381   0.00000  Uiso   1.00
C345   C     0.49390   0.11229   0.97254   0.00000  Uiso   1.00
H346   H     0.61921   0.24310   0.98775   0.00000  Uiso   1.00
H347   H     0.58962   0.32487   0.06588   0.00000  Uiso   1.00
H348   H     0.70934   0.21183   0.01478   0.00000  Uiso   1.00
H349   H     0.56407   0.20087   0.86257   0.00000  Uiso   1.00
H350   H     0.54835   0.40246   0.18409   0.00000  Uiso   1.00
H351   H     0.80077   0.16410   0.07632   0.00000  Uiso   1.00
H352   H     0.49446   0.14098   0.75536   0.00000  Uiso   1.00
H353   H     0.55381   0.14235   0.23106   0.00000  Uiso   1.00
H354   H     0.52063   0.21859   0.32254   0.00000  Uiso   1.00
H355   H     0.64035   0.10555   0.27143   0.00000  Uiso   1.00
H356   H     0.49509   0.09459   0.11923   0.00000  Uiso   1.00
H357   H     0.49236   0.31620   0.39241   0.00000  Uiso   1.00
H358   H     0.74479   0.07783   0.28463   0.00000  Uiso   1.00
H359   H     0.43847   0.05471   0.96367   0.00000  Uiso   1.00
O360   O     0.49972   0.41130   0.34405   0.00000  Uiso   1.00
O361   O     0.83089   0.09858   0.20264   0.00000  Uiso   1.00
O362   O     0.42902   0.06824   0.78156   0.00000  Uiso   1.00
N363   N     0.53971   0.37169   0.22055   0.00000  Uiso   1.00
N364   N     0.77572   0.14884   0.11980   0.00000  Uiso   1.00
N365   N     0.48935   0.12722   0.81973   0.00000  Uiso   1.00
N366   N     0.50959   0.32528   0.33265   0.00000  Uiso   1.00
N367   N     0.74559   0.10243   0.23189   0.00000  Uiso   1.00
N368   N     0.45923   0.08080   0.93182   0.00000  Uiso   1.00
C369   C     0.61658   0.69993   0.72742   0.00000  Uiso   1.00
C370   C     0.59275   0.74003   0.66698   0.00000  Uiso   1.00
C371   C     0.59000   0.79033   0.68837   0.00000  Uiso   1.00
C372   C     0.56671   0.82098   0.62394   0.00000  Uiso   1.00
C373   C     0.53275   0.88615   0.54267   0.00000  Uiso   1.00
C374   C     0.65573   0.67479   0.66667   0.00000  Uiso   1.00
C375   C     0.70593   0.67022   0.68781   0.00000  Uiso   1.00
C376   C     0.73565   0.64594   0.62313   0.00000  Uiso   1.00
C377   C     0.79946   0.60978   0.54141   0.00000  Uiso   1.00
C378   C     0.57626   0.66099   0.74412   0.00000  Uiso   1.00
C379   C     0.55965   0.64481   0.83038   0.00000  Uiso   1.00
C380   C     0.52248   0.60890   0.83090   0.00000  Uiso   1.00
C381   C     0.46290   0.55131   0.86944   0.00000  Uiso   1.00
C382   C     0.58011   0.66493   0.57495   0.00000  Uiso   1.00
C383   C     0.57295   0.72102   0.58416   0.00000  Uiso   1.00
C384   C     0.54965   0.75161   0.51969   0.00000  Uiso   1.00
C385   C     0.54687   0.80194   0.54098   0.00000  Uiso   1.00
C386   C     0.63593   0.65578   0.58386   0.00000  Uiso   1.00
C387   C     0.66558   0.63150   0.51913   0.00000  Uiso   1.00
C388   C     0.71581   0.62690   0.54017   0.00000  Uiso   1.00
C389   C     0.55646   0.64198   0.66131   0.00000  Uiso   1.00
C390   C     0.51930   0.60609   0.66170   0.00000  Uiso   1.00
C391   C     0.50264   0.58986   0.74794   0.00000  Uiso   1.00
H392   H     0.63200   0.71473   0.79188   0.00000  Uiso   1.00
H393   H     0.60534   0.80503   0.75246   0.00000  Uiso   1.00
H394   H     0.72124   0.68493   0.75191   0.00000  Uiso   1.00
H395   H     0.57499   0.65952   0.89445   0.00000  Uiso   1.00
H396   H     0.56706   0.89676   0.67221   0.00000  Uiso   1.00
H397   H     0.81145   0.64351   0.67106   0.00000  Uiso   1.00
H398   H     0.50304   0.58994   0.97164   0.00000  Uiso   1.00
H399   H     0.56469   0.65013   0.51048   0.00000  Uiso   1.00
H400   H     0.53433   0.73689   0.45561   0.00000  Uiso   1.00
H401   H     0.65024   0.61679   0.45506   0.00000  Uiso   1.00
H402   H     0.50399   0.59139   0.59760   0.00000  Uiso   1.00
H403   H     0.50943   0.84146   0.43127   0.00000  Uiso   1.00
H404   H     0.75383   0.58821   0.43013   0.00000  Uiso   1.00
H405   H     0.44541   0.53464   0.73070   0.00000  Uiso   1.00
O406   O     0.51950   0.92735   0.52071   0.00000  Uiso   1.00
O407   O     0.84014   0.59509   0.51922   0.00000  Uiso   1.00
O408   O     0.43551   0.52481   0.91357   0.00000  Uiso   1.00
N409   N     0.55765   0.87184   0.62304   0.00000  Uiso   1.00
N410   N     0.78615   0.63507   0.62197   0.00000  Uiso   1.00
N411   N     0.49782   0.58498   0.90298   0.00000  Uiso   1.00
N412   N     0.52664   0.84208   0.49340   0.00000  Uiso   1.00
N413   N     0.75514   0.60532   0.49232   0.00000  Uiso   1.00
N414   N     0.46681   0.55522   0.77334   0.00000  Uiso   1.00
C415   C     0.27998   0.10422   0.45651   0.00000  Uiso   1.00
C416   C     0.24952   0.07907   0.38032   0.00000  Uiso   1.00
C417   C     0.19806   0.07472   0.37870   0.00000  Uiso   1.00
C418   C     0.17726   0.05041   0.30285   0.00000  Uiso   1.00
C419   C     0.12546   0.01431   0.19543   0.00000  Uiso   1.00
C420   C     0.31094   0.14412   0.40808   0.00000  Uiso   1.00
C421   C     0.31111   0.19446   0.42981   0.00000  Uiso   1.00
C422   C     0.34202   0.22490   0.37733   0.00000  Uiso   1.00
C423   C     0.38559   0.28979   0.31304   0.00000  Uiso   1.00
C424   C     0.31689   0.06520   0.49078   0.00000  Uiso   1.00
C425   C     0.32208   0.04917   0.58204   0.00000  Uiso   1.00
C426   C     0.35801   0.01318   0.59919   0.00000  Uiso   1.00
C427   C     0.41082   0.95552   0.66330   0.00000  Uiso   1.00
C428   C     0.33457   0.06879   0.32469   0.00000  Uiso   1.00
C429   C     0.27917   0.05983   0.30872   0.00000  Uiso   1.00
C430   C     0.25845   0.03552   0.23286   0.00000  Uiso   1.00
C431   C     0.20697   0.03113   0.23113   0.00000  Uiso   1.00
C432   C     0.34059   0.12488   0.33648   0.00000  Uiso   1.00
C433   C     0.37151   0.15526   0.28396   0.00000  Uiso   1.00
C434   C     0.37172   0.20563   0.30560   0.00000  Uiso   1.00
C435   C     0.34654   0.04595   0.41918   0.00000  Uiso   1.00
C436   C     0.38247   0.00998   0.43619   0.00000  Uiso   1.00
C437   C     0.38771   0.99390   0.52746   0.00000  Uiso   1.00
H438   H     0.25690   0.11921   0.51225   0.00000  Uiso   1.00
H439   H     0.17513   0.08962   0.43412   0.00000  Uiso   1.00
H440   H     0.28817   0.20934   0.48522   0.00000  Uiso   1.00
H441   H     0.29913   0.06407   0.63743   0.00000  Uiso   1.00
H442   H     0.09754   0.04835   0.31591   0.00000  Uiso   1.00
H443   H     0.33590   0.30077   0.42368   0.00000  Uiso   1.00
H444   H     0.35902   0.99446   0.74464   0.00000  Uiso   1.00
H445   H     0.35765   0.05381   0.26894   0.00000  Uiso   1.00
H446   H     0.28141   0.02063   0.17746   0.00000  Uiso   1.00
H447   H     0.39445   0.14035   0.22857   0.00000  Uiso   1.00
H448   H     0.40541   0.99509   0.38077   0.00000  Uiso   1.00
H449   H     0.18380   0.99236   0.10759   0.00000  Uiso   1.00
H450   H     0.42217   0.24479   0.21537   0.00000  Uiso   1.00
H451   H     0.44529   0.93847   0.53633   0.00000  Uiso   1.00
O452   O     0.08870   0.99972   0.15595   0.00000  Uiso   1.00
O453   O     0.40142   0.33089   0.29736   0.00000  Uiso   1.00
O454   O     0.43176   0.92902   0.71844   0.00000  Uiso   1.00
N455   N     0.12831   0.03971   0.27945   0.00000  Uiso   1.00
N456   N     0.35116   0.27572   0.38020   0.00000  Uiso   1.00
N457   N     0.37278   0.98935   0.68027   0.00000  Uiso   1.00
N458   N     0.17472   0.00959   0.16735   0.00000  Uiso   1.00
N459   N     0.39757   0.24559   0.26811   0.00000  Uiso   1.00
N460   N     0.41920   0.95923   0.56818   0.00000  Uiso   1.00
C461   C     0.11658   0.19993   0.22742   0.00000  Uiso   1.00
C462   C     0.09275   0.24003   0.16698   0.00000  Uiso   1.00
C463   C     0.09000   0.29033   0.18837   0.00000  Uiso   1.00
C464   C     0.06671   0.32098   0.12394   0.00000  Uiso   1.00
C465   C     0.03275   0.38615   0.04267   0.00000  Uiso   1.00
C466   C     0.15573   0.17479   0.16667   0.00000  Uiso   1.00
C467   C     0.20593   0.17022   0.18781   0.00000  Uiso   1.00
C468   C     0.23565   0.14594   0.12313   0.00000  Uiso   1.00
C469   C     0.29946   0.10978   0.04141   0.00000  Uiso   1.00
C470   C     0.07626   0.16099   0.24412   0.00000  Uiso   1.00
C471   C     0.05965   0.14481   0.33038   0.00000  Uiso   1.00
C472   C     0.02248   0.10890   0.33090   0.00000  Uiso   1.00
C473   C     0.96290   0.05131   0.36944   0.00000  Uiso   1.00
C474   C     0.08011   0.16493   0.07495   0.00000  Uiso   1.00
C475   C     0.07295   0.22102   0.08416   0.00000  Uiso   1.00
C476   C     0.04965   0.25161   0.01969   0.00000  Uiso   1.00
C477   C     0.04687   0.30194   0.04098   0.00000  Uiso   1.00
C478   C     0.13593   0.15578   0.08386   0.00000  Uiso   1.00
C479   C     0.16558   0.13150   0.01913   0.00000  Uiso   1.00
C480   C     0.21581   0.12690   0.04017   0.00000  Uiso   1.00
C481   C     0.05646   0.14198   0.16131   0.00000  Uiso   1.00
C482   C     0.01930   0.10609   0.16170   0.00000  Uiso   1.00
C483   C     0.00264   0.08986   0.24794   0.00000  Uiso   1.00
H484   H     0.13200   0.21473   0.29188   0.00000  Uiso   1.00
H485   H     0.10534   0.30503   0.25246   0.00000  Uiso   1.00
H486   H     0.22124   0.18493   0.25191   0.00000  Uiso   1.00
H487   H     0.07499   0.15952   0.39445   0.00000  Uiso   1.00
H488   H     0.06706   0.39676   0.17221   0.00000  Uiso   1.00
H489   H     0.31145   0.14351   0.17106   0.00000  Uiso   1.00
H490   H     0.00304   0.08994   0.47164   0.00000  Uiso   1.00
H491   H     0.06469   0.15013   0.01048   0.00000  Uiso   1.00
H492   H     0.03433   0.23689   0.95561   0.00000  Uiso   1.00
H493   H     0.15024   0.11679   0.95506   0.00000  Uiso   1.00
H494   H     0.00399   0.09139   0.09760   0.00000  Uiso   1.00
H495   H     0.00943   0.34146   0.93127   0.00000  Uiso   1.00
H496   H     0.25383   0.08821   0.93013   0.00000  Uiso   1.00
H497   H     0.94541   0.03464   0.23070   0.00000  Uiso   1.00
O498   O     0.01950   0.42735   0.02071   0.00000  Uiso   1.00
O499   O     0.34014   0.09509   0.01922   0.00000  Uiso   1.00
O500   O     0.93551   0.02481   0.41357   0.00000  Uiso   1.00
N501   N     0.05765   0.37184   0.12304   0.00000  Uiso   1.00
N502   N     0.28615   0.13507   0.12197   0.00000  Uiso   1.00
N503   N     0.99782   0.08498   0.40298   0.00000  Uiso   1.00
N504   N     0.02664   0.34208   0.99340   0.00000  Uiso   1.00
N505   N     0.25514   0.10532   0.99232   0.00000  Uiso   1.00
N506   N     0.96681   0.05522   0.27334   0.00000  Uiso   1.00
C507   C     0.77998   0.60422   0.95651   0.00000  Uiso   1.00
C508   C     0.74952   0.57907   0.88032   0.00000  Uiso   1.00
C509   C     0.69806   0.57472   0.87870   0.00000  Uiso   1.00
C510   C     0.67726   0.55041   0.80285   0.00000  Uiso   1.00
C511   C     0.62546   0.51431   0.69543   0.00000  Uiso   1.00
C512   C     0.81094   0.64412   0.90808   0.00000  Uiso   1.00
C513   C     0.81111   0.69446   0.92981   0.00000  Uiso   1.00
C514   C     0.84202   0.72490   0.87733   0.00000  Uiso   1.00
C515   C     0.88559   0.78979   0.81304   0.00000  Uiso   1.00
C516   C     0.81689   0.56520   0.99078   0.00000  Uiso   1.00
C517   C     0.82208   0.54917   0.08204   0.00000  Uiso   1.00
C518   C     0.85801   0.51318   0.09919   0.00000  Uiso   1.00
C519   C     0.91082   0.45552   0.16330   0.00000  Uiso   1.00
C520   C     0.83457   0.56879   0.82469   0.00000  Uiso   1.00
C521   C     0.77917   0.55983   0.80872   0.00000  Uiso   1.00
C522   C     0.75845   0.53552   0.73286   0.00000  Uiso   1.00
C523   C     0.70697   0.53113   0.73113   0.00000  Uiso   1.00
C524   C     0.84059   0.62488   0.83648   0.00000  Uiso   1.00
C525   C     0.87151   0.65526   0.78396   0.00000  Uiso   1.00
C526   C     0.87172   0.70563   0.80560   0.00000  Uiso   1.00
C527   C     0.84654   0.54595   0.91918   0.00000  Uiso   1.00
C528   C     0.88247   0.50998   0.93619   0.00000  Uiso   1.00
C529   C     0.88771   0.49390   0.02746   0.00000  Uiso   1.00
H530   H     0.75690   0.61921   0.01225   0.00000  Uiso   1.00
H531   H     0.67513   0.58962   0.93412   0.00000  Uiso   1.00
H532   H     0.78817   0.70934   0.98522   0.00000  Uiso   1.00
H533   H     0.79913   0.56407   0.13743   0.00000  Uiso   1.00
H534   H     0.59754   0.54835   0.81591   0.00000  Uiso   1.00
H535   H     0.83590   0.80077   0.92368   0.00000  Uiso   1.00
H536   H     0.85902   0.49446   0.24464   0.00000  Uiso   1.00
H537   H     0.85765   0.55381   0.76894   0.00000  Uiso   1.00
H538   H     0.78141   0.52063   0.67746   0.00000  Uiso   1.00
H539   H     0.89445   0.64035   0.72857   0.00000  Uiso   1.00
H540   H     0.90541   0.49509   0.88077   0.00000  Uiso   1.00
H541   H     0.68380   0.49236   0.60759   0.00000  Uiso   1.00
H542   H     0.92217   0.74479   0.71537   0.00000  Uiso   1.00
H543   H     0.94529   0.43847   0.03633   0.00000  Uiso   1.00
O544   O     0.58870   0.49972   0.65595   0.00000  Uiso   1.00
O545   O     0.90142   0.83089   0.79736   0.00000  Uiso   1.00
O546   O     0.93176   0.42902   0.21844   0.00000  Uiso   1.00
N547   N     0.62831   0.53971   0.77945   0.00000  Uiso   1.00
N548   N     0.85116   0.77572   0.88020   0.00000  Uiso   1.00
N549   N     0.87278   0.48935   0.18027   0.00000  Uiso   1.00
N550   N     0.67472   0.50959   0.66735   0.00000  Uiso   1.00
N551   N     0.89757   0.74559   0.76811   0.00000  Uiso   1.00
N552   N     0.91920   0.45923   0.06818   0.00000  Uiso   1.00
C553   C     0.38342   0.30007   0.72742   0.00000  Uiso   1.00
C554   C     0.40725   0.25997   0.66698   0.00000  Uiso   1.00
C555   C     0.41000   0.20967   0.68837   0.00000  Uiso   1.00
C556   C     0.43329   0.17902   0.62394   0.00000  Uiso   1.00
C557   C     0.46725   0.11385   0.54267   0.00000  Uiso   1.00
C558   C     0.34427   0.32521   0.66667   0.00000  Uiso   1.00
C559   C     0.29407   0.32978   0.68781   0.00000  Uiso   1.00
C560   C     0.26435   0.35406   0.62313   0.00000  Uiso   1.00
C561   C     0.20054   0.39022   0.54141   0.00000  Uiso   1.00
C562   C     0.42374   0.33901   0.74412   0.00000  Uiso   1.00
C563   C     0.44035   0.35519   0.83038   0.00000  Uiso   1.00
C564   C     0.47752   0.39110   0.83090   0.00000  Uiso   1.00
C565   C     0.53710   0.44869   0.86944   0.00000  Uiso   1.00
C566   C     0.41989   0.33507   0.57495   0.00000  Uiso   1.00
C567   C     0.42705   0.27898   0.58416   0.00000  Uiso   1.00
C568   C     0.45035   0.24839   0.51969   0.00000  Uiso   1.00
C569   C     0.45313   0.19806   0.54098   0.00000  Uiso   1.00
C570   C     0.36407   0.34422   0.58386   0.00000  Uiso   1.00
C571   C     0.33442   0.36850   0.51913   0.00000  Uiso   1.00
C572   C     0.28419   0.37310   0.54017   0.00000  Uiso   1.00
C573   C     0.44354   0.35802   0.66131   0.00000  Uiso   1.00
C574   C     0.48070   0.39391   0.66170   0.00000  Uiso   1.00
C575   C     0.49736   0.41014   0.74794   0.00000  Uiso   1.00
H576   H     0.36800   0.28527   0.79188   0.00000  Uiso   1.00
H577   H     0.39466   0.19497   0.75246   0.00000  Uiso   1.00
H578   H     0.27876   0.31507   0.75191   0.00000  Uiso   1.00
H579   H     0.42501   0.34048   0.89445   0.00000  Uiso   1.00
H580   H     0.43294   0.10324   0.67221   0.00000  Uiso   1.00
H581   H     0.18855   0.35649   0.67106   0.00000  Uiso   1.00
H582   H     0.49696   0.41006   0.97164   0.00000  Uiso   1.00
H583   H     0.43531   0.34987   0.51048   0.00000  Uiso   1.00
H584   H     0.46567   0.26311   0.45561   0.00000  Uiso   1.00
H585   H     0.34976   0.38321   0.45506   0.00000  Uiso   1.00
H586   H     0.49601   0.40861   0.59760   0.00000  Uiso   1.00
H587   H     0.49057   0.15854   0.43127   0.00000  Uiso   1.00
H588   H     0.24617   0.41179   0.43013   0.00000  Uiso   1.00
H589   H     0.55459   0.46536   0.73070   0.00000  Uiso   1.00
O590   O     0.48050   0.07265   0.52071   0.00000  Uiso   1.00
O591   O     0.15986   0.40491   0.51922   0.00000  Uiso   1.00
O592   O     0.56449   0.47519   0.91357   0.00000  Uiso   1.00
N593   N     0.44235   0.12816   0.62304   0.00000  Uiso   1.00
N594   N     0.21385   0.36493   0.62197   0.00000  Uiso   1.00
N595   N     0.50218   0.41502   0.90298   0.00000  Uiso   1.00
N596   N     0.47336   0.15792   0.49340   0.00000  Uiso   1.00
N597   N     0.24486   0.39468   0.49232   0.00000  Uiso   1.00
N598   N     0.53319   0.44478   0.77334   0.00000  Uiso   1.00
C599   C     0.72002   0.89578   0.45651   0.00000  Uiso   1.00
C600   C     0.75048   0.92093   0.38032   0.00000  Uiso   1.00
C601   C     0.80194   0.92528   0.37870   0.00000  Uiso   1.00
C602   C     0.82274   0.94959   0.30285   0.00000  Uiso   1.00
C603   C     0.87454   0.98569   0.19543   0.00000  Uiso   1.00
C604   C     0.68906   0.85588   0.40808   0.00000  Uiso   1.00
C605   C     0.68889   0.80554   0.42981   0.00000  Uiso   1.00
C606   C     0.65798   0.77510   0.37733   0.00000  Uiso   1.00
C607   C     0.61441   0.71021   0.31304   0.00000  Uiso   1.00
C608   C     0.68311   0.93480   0.49078   0.00000  Uiso   1.00
C609   C     0.67792   0.95083   0.58204   0.00000  Uiso   1.00
C610   C     0.64199   0.98682   0.59919   0.00000  Uiso   1.00
C611   C     0.58918   0.04448   0.66330   0.00000  Uiso   1.00
C612   C     0.66543   0.93121   0.32469   0.00000  Uiso   1.00
C613   C     0.72083   0.94017   0.30872   0.00000  Uiso   1.00
C614   C     0.74155   0.96448   0.23286   0.00000  Uiso   1.00
C615   C     0.79303   0.96887   0.23113   0.00000  Uiso   1.00
C616   C     0.65941   0.87512   0.33648   0.00000  Uiso   1.00
C617   C     0.62849   0.84474   0.28396   0.00000  Uiso   1.00
C618   C     0.62828   0.79437   0.30560   0.00000  Uiso   1.00
C619   C     0.65346   0.95405   0.41918   0.00000  Uiso   1.00
C620   C     0.61753   0.99002   0.43619   0.00000  Uiso   1.00
C621   C     0.61229   0.00610   0.52746   0.00000  Uiso   1.00
H622   H     0.74310   0.88079   0.51225   0.00000  Uiso   1.00
H623   H     0.82487   0.91038   0.43412   0.00000  Uiso   1.00
H624   H     0.71183   0.79066   0.48522   0.00000  Uiso   1.00
H625   H     0.70087   0.93593   0.63743   0.00000  Uiso   1.00
H626   H     0.90246   0.95165   0.31591   0.00000  Uiso   1.00
H627   H     0.66410   0.69923   0.42368   0.00000  Uiso   1.00
H628   H     0.64098   0.00554   0.74464   0.00000  Uiso   1.00
H629   H     0.64235   0.94619   0.26894   0.00000  Uiso   1.00
H630   H     0.71859   0.97937   0.17746   0.00000  Uiso   1.00
H631   H     0.60555   0.85965   0.22857   0.00000  Uiso   1.00
H632   H     0.59459   0.00491   0.38077   0.00000  Uiso   1.00
H633   H     0.81620   0.00764   0.10759   0.00000  Uiso   1.00
H634   H     0.57783   0.75521   0.21537   0.00000  Uiso   1.00
H635   H     0.55471   0.06153   0.53633   0.00000  Uiso   1.00
O636   O     0.91130   0.00028   0.15595   0.00000  Uiso   1.00
O637   O     0.59858   0.66911   0.29736   0.00000  Uiso   1.00
O638   O     0.56824   0.07098   0.71844   0.00000  Uiso   1.00
N639   N     0.87169   0.96029   0.27945   0.00000  Uiso   1.00
N640   N     0.64884   0.72428   0.38020   0.00000  Uiso   1.00
N641   N     0.62722   0.01065   0.68027   0.00000  Uiso   1.00
N642   N     0.82528   0.99041   0.16735   0.00000  Uiso   1.00
N643   N     0.60243   0.75441   0.26811   0.00000  Uiso   1.00
N644   N     0.58080   0.04077   0.56818   0.00000  Uiso   1.00
C645   C     0.88342   0.80007   0.22742   0.00000  Uiso   1.00
C646   C     0.90725   0.75997   0.16698   0.00000  Uiso   1.00
C647   C     0.91000   0.70967   0.18837   0.00000  Uiso   1.00
C648   C     0.93329   0.67902   0.12394   0.00000  Uiso   1.00
C649   C     0.96725   0.61385   0.04267   0.00000  Uiso   1.00
C650   C     0.84427   0.82521   0.16667   0.00000  Uiso   1.00
C651   C     0.79407   0.82978   0.18781   0.00000  Uiso   1.00
C652   C     0.76435   0.85406   0.12313   0.00000  Uiso   1.00
C653   C     0.70054   0.89022   0.04141   0.00000  Uiso   1.00
C654   C     0.92374   0.83901   0.24412   0.00000  Uiso   1.00
C655   C     0.94035   0.85519   0.33038   0.00000  Uiso   1.00
C656   C     0.97752   0.89110   0.33090   0.00000  Uiso   1.00
C657   C     0.03710   0.94869   0.36944   0.00000  Uiso   1.00
C658   C     0.91989   0.83507   0.07495   0.00000  Uiso   1.00
C659   C     0.92705   0.77898   0.08416   0.00000  Uiso   1.00
C660   C     0.95035   0.74839   0.01969   0.00000  Uiso   1.00
C661   C     0.95313   0.69806   0.04098   0.00000  Uiso   1.00
C662   C     0.86407   0.84422   0.08386   0.00000  Uiso   1.00
C663   C     0.83442   0.86850   0.01913   0.00000  Uiso   1.00
C664   C     0.78419   0.87310   0.04017   0.00000  Uiso   1.00
C665   C     0.94354   0.85802   0.16131   0.00000  Uiso   1.00
C666   C     0.98070   0.89391   0.16170   0.00000  Uiso   1.00
C667   C     0.99736   0.91014   0.24794   0.00000  Uiso   1.00
H668   H     0.86800   0.78527   0.29188   0.00000  Uiso   1.00
H669   H     0.89466   0.69497   0.25246   0.00000  Uiso   1.00
H670   H     0.77876   0.81507   0.25191   0.00000  Uiso   1.00
H671   H     0.92501   0.84048   0.39445   0.00000  Uiso   1.00
H672   H     0.93294   0.60324   0.17221   0.00000  Uiso   1.00
H673   H     0.68855   0.85649   0.17106   0.00000  Uiso   1.00
H674   H     0.99696   0.91006   0.47164   0.00000  Uiso   1.00
H675   H     0.93531   0.84987   0.01048   0.00000  Uiso   1.00
H676   H     0.96567   0.76311   0.95561   0.00000  Uiso   1.00
H677   H     0.84976   0.88321   0.95506   0.00000  Uiso   1.00
H678   H     0.99601   0.90861   0.09760   0.00000  Uiso   1.00
H679   H     0.99057   0.65854   0.93127   0.00000  Uiso   1.00
H680   H     0.74617   0.91179   0.93013   0.00000  Uiso   1.00
H681   H     0.05459   0.96536   0.23070   0.00000  Uiso   1.00
O682   O     0.98050   0.57265   0.02071   0.00000  Uiso   1.00
O683   O     0.65986   0.90491   0.01922   0.00000  Uiso   1.00
O684   O     0.06449   0.97519   0.41357   0.00000  Uiso   1.00
N685   N     0.94235   0.62816   0.12304   0.00000  Uiso   1.00
N686   N     0.71385   0.86493   0.12197   0.00000  Uiso   1.00
N687   N     0.00218   0.91502   0.40298   0.00000  Uiso   1.00
N688   N     0.97336   0.65792   0.99340   0.00000  Uiso   1.00
N689   N     0.74486   0.89468   0.99232   0.00000  Uiso   1.00
N690   N     0.03319   0.94478   0.27334   0.00000  Uiso   1.00
C691   C     0.22002   0.39578   0.95651   0.00000  Uiso   1.00
C692   C     0.25048   0.42093   0.88032   0.00000  Uiso   1.00
C693   C     0.30194   0.42528   0.87870   0.00000  Uiso   1.00
C694   C     0.32274   0.44959   0.80285   0.00000  Uiso   1.00
C695   C     0.37454   0.48569   0.69543   0.00000  Uiso   1.00
C696   C     0.18906   0.35588   0.90808   0.00000  Uiso   1.00
C697   C     0.18889   0.30554   0.92981   0.00000  Uiso   1.00
C698   C     0.15798   0.27510   0.87733   0.00000  Uiso   1.00
C699   C     0.11441   0.21021   0.81304   0.00000  Uiso   1.00
C700   C     0.18311   0.43480   0.99078   0.00000  Uiso   1.00
C701   C     0.17792   0.45083   0.08204   0.00000  Uiso   1.00
C702   C     0.14199   0.48682   0.09919   0.00000  Uiso   1.00
C703   C     0.08918   0.54448   0.16330   0.00000  Uiso   1.00
C704   C     0.16543   0.43121   0.82469   0.00000  Uiso   1.00
C705   C     0.22083   0.44017   0.80872   0.00000  Uiso   1.00
C706   C     0.24155   0.46448   0.73286   0.00000  Uiso   1.00
C707   C     0.29303   0.46887   0.73113   0.00000  Uiso   1.00
C708   C     0.15941   0.37512   0.83648   0.00000  Uiso   1.00
C709   C     0.12849   0.34474   0.78396   0.00000  Uiso   1.00
C710   C     0.12828   0.29437   0.80560   0.00000  Uiso   1.00
C711   C     0.15346   0.45405   0.91918   0.00000  Uiso   1.00
C712   C     0.11753   0.49002   0.93619   0.00000  Uiso   1.00
C713   C     0.11229   0.50610   0.02746   0.00000  Uiso   1.00
H714   H     0.24310   0.38079   0.01225   0.00000  Uiso   1.00
H715   H     0.32487   0.41038   0.93412   0.00000  Uiso   1.00
H716   H     0.21183   0.29066   0.98522   0.00000  Uiso   1.00
H717   H     0.20087   0.43593   0.13743   0.00000  Uiso   1.00
H718   H     0.40246   0.45165   0.81591   0.00000  Uiso   1.00
H719   H     0.16410   0.19923   0.92368   0.00000  Uiso   1.00
H720   H     0.14098   0.50554   0.24464   0.00000  Uiso   1.00
H721   H     0.14235   0.44619   0.76894   0.00000  Uiso   1.00
H722   H     0.21859   0.47937   0.67746   0.00000  Uiso   1.00
H723   H     0.10555   0.35965   0.72857   0.00000  Uiso   1.00
H724   H     0.09459   0.50491   0.88077   0.00000  Uiso   1.00
H725   H     0.31620   0.50764   0.60759   0.00000  Uiso   1.00
H726   H     0.07783   0.25521   0.71537   0.00000  Uiso   1.00
H727   H     0.05471   0.56153   0.03633   0.00000  Uiso   1.00
O728   O     0.41130   0.50028   0.65595   0.00000  Uiso   1.00
O729   O     0.09858   0.16911   0.79736   0.00000  Uiso   1.00
O730   O     0.06824   0.57098   0.21844   0.00000  Uiso   1.00
N731   N     0.37169   0.46029   0.77945   0.00000  Uiso   1.00
N732   N     0.14884   0.22428   0.88020   0.00000  Uiso   1.00
N733   N     0.12722   0.51065   0.18027   0.00000  Uiso   1.00
N734   N     0.32528   0.49041   0.66735   0.00000  Uiso   1.00
N735   N     0.10243   0.25441   0.76811   0.00000  Uiso   1.00
N736   N     0.08080   0.54077   0.06818   0.00000  Uiso   1.00
