data_job_02377
_audit_creation_date              2018-12-19
_audit_creation_method            'Materials Studio'
_symmetry_space_group_name_H-M    'P1'
_symmetry_Int_Tables_number       1
_symmetry_cell_setting            triclinic
loop_
_symmetry_equiv_pos_as_xyz
  x,y,z
_cell_length_a                    45.6641
_cell_length_b                    16.2326
_cell_length_c                    13.4480
_cell_angle_alpha                 90.0000
_cell_angle_beta                  90.0000
_cell_angle_gamma                 90.0000
loop_
_atom_site_label
_atom_site_type_symbol
_atom_site_fract_x
_atom_site_fract_y
_atom_site_fract_z
_atom_site_U_iso_or_equiv
_atom_site_adp_type
_atom_site_occupancy
C1     C     0.56419   0.84453   0.35714   0.00000  Uiso   1.00
C2     C     0.55075   0.78653   0.28050   0.00000  Uiso   1.00
C3     C     0.52434   0.74501   0.29050   0.00000  Uiso   1.00
C4     C     0.51586   0.69481   0.21203   0.00000  Uiso   1.00
C5     C     0.49236   0.60599   0.10603   0.00000  Uiso   1.00
C6     C     0.59458   0.81038   0.37967   0.00000  Uiso   1.00
C7     C     0.60504   0.78893   0.47305   0.00000  Uiso   1.00
C8     C     0.63346   0.75882   0.47805   0.00000  Uiso   1.00
C9     C     0.67803   0.70708   0.52602   0.00000  Uiso   1.00
C10    C     0.56909   0.92617   0.30358   0.00000  Uiso   1.00
C11    C     0.55812   0.00208   0.33299   0.00000  Uiso   1.00
C12    C     0.56508   0.06946   0.27395   0.00000  Uiso   1.00
C13    C     0.57006   0.19750   0.20377   0.00000  Uiso   1.00
C14    C     0.59607   0.82921   0.20000   0.00000  Uiso   1.00
C15    C     0.56807   0.77821   0.19515   0.00000  Uiso   1.00
C16    C     0.55962   0.72806   0.11664   0.00000  Uiso   1.00
C17    C     0.53321   0.68648   0.12652   0.00000  Uiso   1.00
C18    C     0.61190   0.80206   0.29432   0.00000  Uiso   1.00
C19    C     0.64032   0.77198   0.29918   0.00000  Uiso   1.00
C20    C     0.65081   0.75048   0.39254   0.00000  Uiso   1.00
C21    C     0.58641   0.91785   0.21822   0.00000  Uiso   1.00
C22    C     0.59339   0.98513   0.15913   0.00000  Uiso   1.00
C23    C     0.58243   0.06112   0.18844   0.00000  Uiso   1.00
H24    H     0.55071   0.85100   0.42360   0.00000  Uiso   1.00
H25    H     0.51095   0.75146   0.35657   0.00000  Uiso   1.00
H26    H     0.59163   0.79538   0.53908   0.00000  Uiso   1.00
H27    H     0.54471   0.00849   0.39905   0.00000  Uiso   1.00
H28    H     0.47451   0.63741   0.24463   0.00000  Uiso   1.00
H29    H     0.64464   0.73004   0.62948   0.00000  Uiso   1.00
H30    H     0.54570   0.17944   0.33419   0.00000  Uiso   1.00
H31    H     0.60956   0.82273   0.13355   0.00000  Uiso   1.00
H32    H     0.57303   0.72163   0.05060   0.00000  Uiso   1.00
H33    H     0.65371   0.76555   0.23312   0.00000  Uiso   1.00
H34    H     0.60679   0.97867   0.09308   0.00000  Uiso   1.00
H35    H     0.52490   0.61319   0.99630   0.00000  Uiso   1.00
H36    H     0.69503   0.70583   0.38115   0.00000  Uiso   1.00
H37    H     0.59609   0.15522   0.08585   0.00000  Uiso   1.00
O38    O     0.47462   0.55929   0.07115   0.00000  Uiso   1.00
O39    O     0.69782   0.68083   0.57606   0.00000  Uiso   1.00
O40    O     0.56802   0.27042   0.18864   0.00000  Uiso   1.00
N41    N     0.49138   0.64560   0.19756   0.00000  Uiso   1.00
N42    N     0.65044   0.73219   0.55737   0.00000  Uiso   1.00
N43    N     0.55795   0.15234   0.28131   0.00000  Uiso   1.00
N44    N     0.51849   0.63257   0.06393   0.00000  Uiso   1.00
N45    N     0.67755   0.71916   0.42374   0.00000  Uiso   1.00
N46    N     0.58506   0.13931   0.14768   0.00000  Uiso   1.00
C47    C     0.56419   0.34453   0.85714   0.00000  Uiso   1.00
C48    C     0.55075   0.28653   0.78050   0.00000  Uiso   1.00
C49    C     0.52434   0.24501   0.79050   0.00000  Uiso   1.00
C50    C     0.51586   0.19481   0.71203   0.00000  Uiso   1.00
C51    C     0.49236   0.10599   0.60603   0.00000  Uiso   1.00
C52    C     0.59458   0.31038   0.87967   0.00000  Uiso   1.00
C53    C     0.60504   0.28893   0.97305   0.00000  Uiso   1.00
C54    C     0.63346   0.25882   0.97805   0.00000  Uiso   1.00
C55    C     0.67803   0.20708   0.02602   0.00000  Uiso   1.00
C56    C     0.56909   0.42617   0.80358   0.00000  Uiso   1.00
C57    C     0.55812   0.50208   0.83299   0.00000  Uiso   1.00
C58    C     0.56508   0.56946   0.77395   0.00000  Uiso   1.00
C59    C     0.57006   0.69750   0.70377   0.00000  Uiso   1.00
C60    C     0.59607   0.32921   0.70000   0.00000  Uiso   1.00
C61    C     0.56807   0.27821   0.69515   0.00000  Uiso   1.00
C62    C     0.55962   0.22806   0.61664   0.00000  Uiso   1.00
C63    C     0.53321   0.18648   0.62652   0.00000  Uiso   1.00
C64    C     0.61190   0.30206   0.79432   0.00000  Uiso   1.00
C65    C     0.64032   0.27198   0.79918   0.00000  Uiso   1.00
C66    C     0.65081   0.25048   0.89254   0.00000  Uiso   1.00
C67    C     0.58641   0.41785   0.71822   0.00000  Uiso   1.00
C68    C     0.59339   0.48513   0.65913   0.00000  Uiso   1.00
C69    C     0.58243   0.56112   0.68844   0.00000  Uiso   1.00
H70    H     0.55071   0.35100   0.92360   0.00000  Uiso   1.00
H71    H     0.51095   0.25146   0.85657   0.00000  Uiso   1.00
H72    H     0.59163   0.29538   0.03908   0.00000  Uiso   1.00
H73    H     0.54471   0.50849   0.89905   0.00000  Uiso   1.00
H74    H     0.47451   0.13741   0.74463   0.00000  Uiso   1.00
H75    H     0.64464   0.23004   0.12948   0.00000  Uiso   1.00
H76    H     0.54570   0.67944   0.83419   0.00000  Uiso   1.00
H77    H     0.60956   0.32273   0.63355   0.00000  Uiso   1.00
H78    H     0.57303   0.22163   0.55060   0.00000  Uiso   1.00
H79    H     0.65371   0.26555   0.73312   0.00000  Uiso   1.00
H80    H     0.60679   0.47867   0.59308   0.00000  Uiso   1.00
H81    H     0.52490   0.11319   0.49630   0.00000  Uiso   1.00
H82    H     0.69503   0.20583   0.88115   0.00000  Uiso   1.00
H83    H     0.59609   0.65522   0.58585   0.00000  Uiso   1.00
O84    O     0.47462   0.05929   0.57115   0.00000  Uiso   1.00
O85    O     0.69782   0.18083   0.07606   0.00000  Uiso   1.00
O86    O     0.56802   0.77042   0.68864   0.00000  Uiso   1.00
N87    N     0.49138   0.14560   0.69756   0.00000  Uiso   1.00
N88    N     0.65044   0.23219   0.05737   0.00000  Uiso   1.00
N89    N     0.55795   0.65234   0.78131   0.00000  Uiso   1.00
N90    N     0.51849   0.13257   0.56393   0.00000  Uiso   1.00
N91    N     0.67755   0.21916   0.92374   0.00000  Uiso   1.00
N92    N     0.58506   0.63931   0.64768   0.00000  Uiso   1.00
C93    C     0.06419   0.84453   0.85714   0.00000  Uiso   1.00
C94    C     0.05075   0.78653   0.78050   0.00000  Uiso   1.00
C95    C     0.02434   0.74501   0.79050   0.00000  Uiso   1.00
C96    C     0.01586   0.69481   0.71203   0.00000  Uiso   1.00
C97    C     0.99236   0.60599   0.60603   0.00000  Uiso   1.00
C98    C     0.09458   0.81038   0.87967   0.00000  Uiso   1.00
C99    C     0.10504   0.78893   0.97305   0.00000  Uiso   1.00
C100   C     0.13346   0.75882   0.97805   0.00000  Uiso   1.00
C101   C     0.17803   0.70708   0.02602   0.00000  Uiso   1.00
C102   C     0.06909   0.92617   0.80358   0.00000  Uiso   1.00
C103   C     0.05812   0.00208   0.83299   0.00000  Uiso   1.00
C104   C     0.06508   0.06946   0.77395   0.00000  Uiso   1.00
C105   C     0.07006   0.19750   0.70377   0.00000  Uiso   1.00
C106   C     0.09607   0.82921   0.70000   0.00000  Uiso   1.00
C107   C     0.06807   0.77821   0.69515   0.00000  Uiso   1.00
C108   C     0.05962   0.72806   0.61664   0.00000  Uiso   1.00
C109   C     0.03321   0.68648   0.62652   0.00000  Uiso   1.00
C110   C     0.11190   0.80206   0.79432   0.00000  Uiso   1.00
C111   C     0.14032   0.77198   0.79918   0.00000  Uiso   1.00
C112   C     0.15081   0.75048   0.89254   0.00000  Uiso   1.00
C113   C     0.08641   0.91785   0.71822   0.00000  Uiso   1.00
C114   C     0.09339   0.98513   0.65913   0.00000  Uiso   1.00
C115   C     0.08243   0.06112   0.68844   0.00000  Uiso   1.00
H116   H     0.05071   0.85100   0.92360   0.00000  Uiso   1.00
H117   H     0.01095   0.75146   0.85657   0.00000  Uiso   1.00
H118   H     0.09163   0.79538   0.03908   0.00000  Uiso   1.00
H119   H     0.04471   0.00849   0.89905   0.00000  Uiso   1.00
H120   H     0.97451   0.63741   0.74463   0.00000  Uiso   1.00
H121   H     0.14464   0.73004   0.12948   0.00000  Uiso   1.00
H122   H     0.04570   0.17944   0.83419   0.00000  Uiso   1.00
H123   H     0.10956   0.82273   0.63355   0.00000  Uiso   1.00
H124   H     0.07303   0.72163   0.55060   0.00000  Uiso   1.00
H125   H     0.15371   0.76555   0.73312   0.00000  Uiso   1.00
H126   H     0.10679   0.97867   0.59308   0.00000  Uiso   1.00
H127   H     0.02490   0.61319   0.49630   0.00000  Uiso   1.00
H128   H     0.19503   0.70583   0.88115   0.00000  Uiso   1.00
H129   H     0.09609   0.15522   0.58585   0.00000  Uiso   1.00
O130   O     0.97462   0.55929   0.57115   0.00000  Uiso   1.00
O131   O     0.19782   0.68083   0.07606   0.00000  Uiso   1.00
O132   O     0.06802   0.27042   0.68864   0.00000  Uiso   1.00
N133   N     0.99138   0.64560   0.69756   0.00000  Uiso   1.00
N134   N     0.15044   0.73219   0.05737   0.00000  Uiso   1.00
N135   N     0.05795   0.15234   0.78131   0.00000  Uiso   1.00
N136   N     0.01849   0.63257   0.56393   0.00000  Uiso   1.00
N137   N     0.17755   0.71916   0.92374   0.00000  Uiso   1.00
N138   N     0.08506   0.13931   0.64768   0.00000  Uiso   1.00
C139   C     0.06419   0.34453   0.35714   0.00000  Uiso   1.00
C140   C     0.05075   0.28653   0.28050   0.00000  Uiso   1.00
C141   C     0.02434   0.24501   0.29050   0.00000  Uiso   1.00
C142   C     0.01586   0.19481   0.21203   0.00000  Uiso   1.00
C143   C     0.99236   0.10599   0.10603   0.00000  Uiso   1.00
C144   C     0.09458   0.31038   0.37967   0.00000  Uiso   1.00
C145   C     0.10504   0.28893   0.47305   0.00000  Uiso   1.00
C146   C     0.13346   0.25882   0.47805   0.00000  Uiso   1.00
C147   C     0.17803   0.20708   0.52602   0.00000  Uiso   1.00
C148   C     0.06909   0.42617   0.30358   0.00000  Uiso   1.00
C149   C     0.05812   0.50208   0.33299   0.00000  Uiso   1.00
C150   C     0.06508   0.56946   0.27395   0.00000  Uiso   1.00
C151   C     0.07006   0.69750   0.20377   0.00000  Uiso   1.00
C152   C     0.09607   0.32921   0.20000   0.00000  Uiso   1.00
C153   C     0.06807   0.27821   0.19515   0.00000  Uiso   1.00
C154   C     0.05962   0.22806   0.11664   0.00000  Uiso   1.00
C155   C     0.03321   0.18648   0.12652   0.00000  Uiso   1.00
C156   C     0.11190   0.30206   0.29432   0.00000  Uiso   1.00
C157   C     0.14032   0.27198   0.29918   0.00000  Uiso   1.00
C158   C     0.15081   0.25048   0.39254   0.00000  Uiso   1.00
C159   C     0.08641   0.41785   0.21822   0.00000  Uiso   1.00
C160   C     0.09339   0.48513   0.15913   0.00000  Uiso   1.00
C161   C     0.08243   0.56112   0.18844   0.00000  Uiso   1.00
H162   H     0.05071   0.35100   0.42360   0.00000  Uiso   1.00
H163   H     0.01095   0.25146   0.35657   0.00000  Uiso   1.00
H164   H     0.09163   0.29538   0.53908   0.00000  Uiso   1.00
H165   H     0.04471   0.50849   0.39905   0.00000  Uiso   1.00
H166   H     0.97451   0.13741   0.24463   0.00000  Uiso   1.00
H167   H     0.14464   0.23004   0.62948   0.00000  Uiso   1.00
H168   H     0.04570   0.67944   0.33419   0.00000  Uiso   1.00
H169   H     0.10956   0.32273   0.13355   0.00000  Uiso   1.00
H170   H     0.07303   0.22163   0.05060   0.00000  Uiso   1.00
H171   H     0.15371   0.26555   0.23312   0.00000  Uiso   1.00
H172   H     0.10679   0.47867   0.09308   0.00000  Uiso   1.00
H173   H     0.02490   0.11319   0.99630   0.00000  Uiso   1.00
H174   H     0.19503   0.20583   0.38115   0.00000  Uiso   1.00
H175   H     0.09609   0.65522   0.08585   0.00000  Uiso   1.00
O176   O     0.97462   0.05929   0.07115   0.00000  Uiso   1.00
O177   O     0.19782   0.18083   0.57606   0.00000  Uiso   1.00
O178   O     0.06802   0.77042   0.18864   0.00000  Uiso   1.00
N179   N     0.99138   0.14560   0.19756   0.00000  Uiso   1.00
N180   N     0.15044   0.23219   0.55737   0.00000  Uiso   1.00
N181   N     0.05795   0.65234   0.28131   0.00000  Uiso   1.00
N182   N     0.01849   0.13257   0.06393   0.00000  Uiso   1.00
N183   N     0.17755   0.21916   0.42374   0.00000  Uiso   1.00
N184   N     0.08506   0.63931   0.14768   0.00000  Uiso   1.00
C185   C     0.43581   0.15547   0.35714   0.00000  Uiso   1.00
C186   C     0.44925   0.21347   0.28050   0.00000  Uiso   1.00
C187   C     0.47566   0.25499   0.29050   0.00000  Uiso   1.00
C188   C     0.48414   0.30519   0.21203   0.00000  Uiso   1.00
C189   C     0.50764   0.39401   0.10603   0.00000  Uiso   1.00
C190   C     0.40542   0.18962   0.37967   0.00000  Uiso   1.00
C191   C     0.39496   0.21107   0.47305   0.00000  Uiso   1.00
C192   C     0.36654   0.24118   0.47805   0.00000  Uiso   1.00
C193   C     0.32197   0.29292   0.52602   0.00000  Uiso   1.00
C194   C     0.43091   0.07383   0.30358   0.00000  Uiso   1.00
C195   C     0.44188   0.99792   0.33299   0.00000  Uiso   1.00
C196   C     0.43492   0.93054   0.27395   0.00000  Uiso   1.00
C197   C     0.42994   0.80250   0.20377   0.00000  Uiso   1.00
C198   C     0.40393   0.17079   0.20000   0.00000  Uiso   1.00
C199   C     0.43193   0.22179   0.19515   0.00000  Uiso   1.00
C200   C     0.44038   0.27194   0.11664   0.00000  Uiso   1.00
C201   C     0.46679   0.31352   0.12652   0.00000  Uiso   1.00
C202   C     0.38810   0.19794   0.29432   0.00000  Uiso   1.00
C203   C     0.35968   0.22802   0.29918   0.00000  Uiso   1.00
C204   C     0.34919   0.24952   0.39254   0.00000  Uiso   1.00
C205   C     0.41359   0.08215   0.21822   0.00000  Uiso   1.00
C206   C     0.40661   0.01487   0.15913   0.00000  Uiso   1.00
C207   C     0.41757   0.93888   0.18844   0.00000  Uiso   1.00
H208   H     0.44929   0.14900   0.42360   0.00000  Uiso   1.00
H209   H     0.48905   0.24854   0.35657   0.00000  Uiso   1.00
H210   H     0.40837   0.20462   0.53908   0.00000  Uiso   1.00
H211   H     0.45529   0.99151   0.39905   0.00000  Uiso   1.00
H212   H     0.52549   0.36259   0.24463   0.00000  Uiso   1.00
H213   H     0.35536   0.26996   0.62948   0.00000  Uiso   1.00
H214   H     0.45430   0.82056   0.33419   0.00000  Uiso   1.00
H215   H     0.39044   0.17727   0.13355   0.00000  Uiso   1.00
H216   H     0.42697   0.27837   0.05060   0.00000  Uiso   1.00
H217   H     0.34629   0.23445   0.23312   0.00000  Uiso   1.00
H218   H     0.39321   0.02133   0.09308   0.00000  Uiso   1.00
H219   H     0.47510   0.38681   0.99630   0.00000  Uiso   1.00
H220   H     0.30497   0.29417   0.38115   0.00000  Uiso   1.00
H221   H     0.40391   0.84478   0.08585   0.00000  Uiso   1.00
O222   O     0.52538   0.44071   0.07115   0.00000  Uiso   1.00
O223   O     0.30218   0.31917   0.57606   0.00000  Uiso   1.00
O224   O     0.43198   0.72958   0.18864   0.00000  Uiso   1.00
N225   N     0.50862   0.35440   0.19756   0.00000  Uiso   1.00
N226   N     0.34956   0.26781   0.55737   0.00000  Uiso   1.00
N227   N     0.44205   0.84766   0.28131   0.00000  Uiso   1.00
N228   N     0.48151   0.36743   0.06393   0.00000  Uiso   1.00
N229   N     0.32245   0.28084   0.42374   0.00000  Uiso   1.00
N230   N     0.41494   0.86069   0.14768   0.00000  Uiso   1.00
C231   C     0.43581   0.65547   0.85714   0.00000  Uiso   1.00
C232   C     0.44925   0.71347   0.78050   0.00000  Uiso   1.00
C233   C     0.47566   0.75499   0.79050   0.00000  Uiso   1.00
C234   C     0.48414   0.80519   0.71203   0.00000  Uiso   1.00
C235   C     0.50764   0.89401   0.60603   0.00000  Uiso   1.00
C236   C     0.40542   0.68962   0.87967   0.00000  Uiso   1.00
C237   C     0.39496   0.71107   0.97305   0.00000  Uiso   1.00
C238   C     0.36654   0.74118   0.97805   0.00000  Uiso   1.00
C239   C     0.32197   0.79292   0.02602   0.00000  Uiso   1.00
C240   C     0.43091   0.57383   0.80358   0.00000  Uiso   1.00
C241   C     0.44188   0.49792   0.83299   0.00000  Uiso   1.00
C242   C     0.43492   0.43054   0.77395   0.00000  Uiso   1.00
C243   C     0.42994   0.30250   0.70377   0.00000  Uiso   1.00
C244   C     0.40393   0.67079   0.70000   0.00000  Uiso   1.00
C245   C     0.43193   0.72179   0.69515   0.00000  Uiso   1.00
C246   C     0.44038   0.77194   0.61664   0.00000  Uiso   1.00
C247   C     0.46679   0.81352   0.62652   0.00000  Uiso   1.00
C248   C     0.38810   0.69794   0.79432   0.00000  Uiso   1.00
C249   C     0.35968   0.72802   0.79918   0.00000  Uiso   1.00
C250   C     0.34919   0.74952   0.89254   0.00000  Uiso   1.00
C251   C     0.41359   0.58215   0.71822   0.00000  Uiso   1.00
C252   C     0.40661   0.51487   0.65913   0.00000  Uiso   1.00
C253   C     0.41757   0.43888   0.68844   0.00000  Uiso   1.00
H254   H     0.44929   0.64900   0.92360   0.00000  Uiso   1.00
H255   H     0.48905   0.74854   0.85657   0.00000  Uiso   1.00
H256   H     0.40837   0.70462   0.03908   0.00000  Uiso   1.00
H257   H     0.45529   0.49151   0.89905   0.00000  Uiso   1.00
H258   H     0.52549   0.86259   0.74463   0.00000  Uiso   1.00
H259   H     0.35536   0.76996   0.12948   0.00000  Uiso   1.00
H260   H     0.45430   0.32056   0.83419   0.00000  Uiso   1.00
H261   H     0.39044   0.67727   0.63355   0.00000  Uiso   1.00
H262   H     0.42697   0.77837   0.55060   0.00000  Uiso   1.00
H263   H     0.34629   0.73445   0.73312   0.00000  Uiso   1.00
H264   H     0.39321   0.52133   0.59308   0.00000  Uiso   1.00
H265   H     0.47510   0.88681   0.49630   0.00000  Uiso   1.00
H266   H     0.30497   0.79417   0.88115   0.00000  Uiso   1.00
H267   H     0.40391   0.34478   0.58585   0.00000  Uiso   1.00
O268   O     0.52538   0.94071   0.57115   0.00000  Uiso   1.00
O269   O     0.30218   0.81917   0.07606   0.00000  Uiso   1.00
O270   O     0.43198   0.22958   0.68864   0.00000  Uiso   1.00
N271   N     0.50862   0.85440   0.69756   0.00000  Uiso   1.00
N272   N     0.34956   0.76781   0.05737   0.00000  Uiso   1.00
N273   N     0.44205   0.34766   0.78131   0.00000  Uiso   1.00
N274   N     0.48151   0.86743   0.56393   0.00000  Uiso   1.00
N275   N     0.32245   0.78084   0.92374   0.00000  Uiso   1.00
N276   N     0.41494   0.36069   0.64768   0.00000  Uiso   1.00
C277   C     0.93581   0.15547   0.85714   0.00000  Uiso   1.00
C278   C     0.94925   0.21347   0.78050   0.00000  Uiso   1.00
C279   C     0.97566   0.25499   0.79050   0.00000  Uiso   1.00
C280   C     0.98414   0.30519   0.71203   0.00000  Uiso   1.00
C281   C     0.00764   0.39401   0.60603   0.00000  Uiso   1.00
C282   C     0.90542   0.18962   0.87967   0.00000  Uiso   1.00
C283   C     0.89496   0.21107   0.97305   0.00000  Uiso   1.00
C284   C     0.86654   0.24118   0.97805   0.00000  Uiso   1.00
C285   C     0.82197   0.29292   0.02602   0.00000  Uiso   1.00
C286   C     0.93091   0.07383   0.80358   0.00000  Uiso   1.00
C287   C     0.94188   0.99792   0.83299   0.00000  Uiso   1.00
C288   C     0.93492   0.93054   0.77395   0.00000  Uiso   1.00
C289   C     0.92994   0.80250   0.70377   0.00000  Uiso   1.00
C290   C     0.90393   0.17079   0.70000   0.00000  Uiso   1.00
C291   C     0.93193   0.22179   0.69515   0.00000  Uiso   1.00
C292   C     0.94038   0.27194   0.61664   0.00000  Uiso   1.00
C293   C     0.96679   0.31352   0.62652   0.00000  Uiso   1.00
C294   C     0.88810   0.19794   0.79432   0.00000  Uiso   1.00
C295   C     0.85968   0.22802   0.79918   0.00000  Uiso   1.00
C296   C     0.84919   0.24952   0.89254   0.00000  Uiso   1.00
C297   C     0.91359   0.08215   0.71822   0.00000  Uiso   1.00
C298   C     0.90661   0.01487   0.65913   0.00000  Uiso   1.00
C299   C     0.91757   0.93888   0.68844   0.00000  Uiso   1.00
H300   H     0.94929   0.14900   0.92360   0.00000  Uiso   1.00
H301   H     0.98905   0.24854   0.85657   0.00000  Uiso   1.00
H302   H     0.90837   0.20462   0.03908   0.00000  Uiso   1.00
H303   H     0.95529   0.99151   0.89905   0.00000  Uiso   1.00
H304   H     0.02549   0.36259   0.74463   0.00000  Uiso   1.00
H305   H     0.85536   0.26996   0.12948   0.00000  Uiso   1.00
H306   H     0.95430   0.82056   0.83419   0.00000  Uiso   1.00
H307   H     0.89044   0.17727   0.63355   0.00000  Uiso   1.00
H308   H     0.92697   0.27837   0.55060   0.00000  Uiso   1.00
H309   H     0.84629   0.23445   0.73312   0.00000  Uiso   1.00
H310   H     0.89321   0.02133   0.59308   0.00000  Uiso   1.00
H311   H     0.97510   0.38681   0.49630   0.00000  Uiso   1.00
H312   H     0.80497   0.29417   0.88115   0.00000  Uiso   1.00
H313   H     0.90391   0.84478   0.58585   0.00000  Uiso   1.00
O314   O     0.02538   0.44071   0.57115   0.00000  Uiso   1.00
O315   O     0.80218   0.31917   0.07606   0.00000  Uiso   1.00
O316   O     0.93198   0.72958   0.68864   0.00000  Uiso   1.00
N317   N     0.00862   0.35440   0.69756   0.00000  Uiso   1.00
N318   N     0.84956   0.26781   0.05737   0.00000  Uiso   1.00
N319   N     0.94205   0.84766   0.78131   0.00000  Uiso   1.00
N320   N     0.98151   0.36743   0.56393   0.00000  Uiso   1.00
N321   N     0.82245   0.28084   0.92374   0.00000  Uiso   1.00
N322   N     0.91494   0.86069   0.64768   0.00000  Uiso   1.00
C323   C     0.93581   0.65547   0.35714   0.00000  Uiso   1.00
C324   C     0.94925   0.71347   0.28050   0.00000  Uiso   1.00
C325   C     0.97566   0.75499   0.29050   0.00000  Uiso   1.00
C326   C     0.98414   0.80519   0.21203   0.00000  Uiso   1.00
C327   C     0.00764   0.89401   0.10603   0.00000  Uiso   1.00
C328   C     0.90542   0.68962   0.37967   0.00000  Uiso   1.00
C329   C     0.89496   0.71107   0.47305   0.00000  Uiso   1.00
C330   C     0.86654   0.74118   0.47805   0.00000  Uiso   1.00
C331   C     0.82197   0.79292   0.52602   0.00000  Uiso   1.00
C332   C     0.93091   0.57383   0.30358   0.00000  Uiso   1.00
C333   C     0.94188   0.49792   0.33299   0.00000  Uiso   1.00
C334   C     0.93492   0.43054   0.27395   0.00000  Uiso   1.00
C335   C     0.92994   0.30250   0.20377   0.00000  Uiso   1.00
C336   C     0.90393   0.67079   0.20000   0.00000  Uiso   1.00
C337   C     0.93193   0.72179   0.19515   0.00000  Uiso   1.00
C338   C     0.94038   0.77194   0.11664   0.00000  Uiso   1.00
C339   C     0.96679   0.81352   0.12652   0.00000  Uiso   1.00
C340   C     0.88810   0.69794   0.29432   0.00000  Uiso   1.00
C341   C     0.85968   0.72802   0.29918   0.00000  Uiso   1.00
C342   C     0.84919   0.74952   0.39254   0.00000  Uiso   1.00
C343   C     0.91359   0.58215   0.21822   0.00000  Uiso   1.00
C344   C     0.90661   0.51487   0.15913   0.00000  Uiso   1.00
C345   C     0.91757   0.43888   0.18844   0.00000  Uiso   1.00
H346   H     0.94929   0.64900   0.42360   0.00000  Uiso   1.00
H347   H     0.98905   0.74854   0.35657   0.00000  Uiso   1.00
H348   H     0.90837   0.70462   0.53908   0.00000  Uiso   1.00
H349   H     0.95529   0.49151   0.39905   0.00000  Uiso   1.00
H350   H     0.02549   0.86259   0.24463   0.00000  Uiso   1.00
H351   H     0.85536   0.76996   0.62948   0.00000  Uiso   1.00
H352   H     0.95430   0.32056   0.33419   0.00000  Uiso   1.00
H353   H     0.89044   0.67727   0.13355   0.00000  Uiso   1.00
H354   H     0.92697   0.77837   0.05060   0.00000  Uiso   1.00
H355   H     0.84629   0.73445   0.23312   0.00000  Uiso   1.00
H356   H     0.89321   0.52133   0.09308   0.00000  Uiso   1.00
H357   H     0.97510   0.88681   0.99630   0.00000  Uiso   1.00
H358   H     0.80497   0.79417   0.38115   0.00000  Uiso   1.00
H359   H     0.90391   0.34478   0.08585   0.00000  Uiso   1.00
O360   O     0.02538   0.94071   0.07115   0.00000  Uiso   1.00
O361   O     0.80218   0.81917   0.57606   0.00000  Uiso   1.00
O362   O     0.93198   0.22958   0.18864   0.00000  Uiso   1.00
N363   N     0.00862   0.85440   0.19756   0.00000  Uiso   1.00
N364   N     0.84956   0.76781   0.55737   0.00000  Uiso   1.00
N365   N     0.94205   0.34766   0.28131   0.00000  Uiso   1.00
N366   N     0.98151   0.86743   0.06393   0.00000  Uiso   1.00
N367   N     0.82245   0.78084   0.42374   0.00000  Uiso   1.00
N368   N     0.91494   0.36069   0.14768   0.00000  Uiso   1.00
C369   C     0.81419   0.40547   0.60714   0.00000  Uiso   1.00
C370   C     0.80075   0.46347   0.53050   0.00000  Uiso   1.00
C371   C     0.77434   0.50499   0.54050   0.00000  Uiso   1.00
C372   C     0.76586   0.55519   0.46203   0.00000  Uiso   1.00
C373   C     0.74236   0.64401   0.35603   0.00000  Uiso   1.00
C374   C     0.84458   0.43962   0.62967   0.00000  Uiso   1.00
C375   C     0.85504   0.46107   0.72305   0.00000  Uiso   1.00
C376   C     0.88346   0.49118   0.72805   0.00000  Uiso   1.00
C377   C     0.92803   0.54292   0.77602   0.00000  Uiso   1.00
C378   C     0.81909   0.32383   0.55358   0.00000  Uiso   1.00
C379   C     0.80812   0.24792   0.58299   0.00000  Uiso   1.00
C380   C     0.81508   0.18054   0.52395   0.00000  Uiso   1.00
C381   C     0.82006   0.05250   0.45377   0.00000  Uiso   1.00
C382   C     0.84607   0.42079   0.45000   0.00000  Uiso   1.00
C383   C     0.81807   0.47179   0.44515   0.00000  Uiso   1.00
C384   C     0.80962   0.52194   0.36664   0.00000  Uiso   1.00
C385   C     0.78321   0.56352   0.37652   0.00000  Uiso   1.00
C386   C     0.86190   0.44794   0.54432   0.00000  Uiso   1.00
C387   C     0.89032   0.47802   0.54918   0.00000  Uiso   1.00
C388   C     0.90081   0.49952   0.64254   0.00000  Uiso   1.00
C389   C     0.83641   0.33215   0.46822   0.00000  Uiso   1.00
C390   C     0.84339   0.26487   0.40913   0.00000  Uiso   1.00
C391   C     0.83243   0.18888   0.43844   0.00000  Uiso   1.00
H392   H     0.80071   0.39900   0.67360   0.00000  Uiso   1.00
H393   H     0.76095   0.49854   0.60657   0.00000  Uiso   1.00
H394   H     0.84163   0.45462   0.78908   0.00000  Uiso   1.00
H395   H     0.79471   0.24151   0.64905   0.00000  Uiso   1.00
H396   H     0.72451   0.61259   0.49463   0.00000  Uiso   1.00
H397   H     0.89464   0.51996   0.87948   0.00000  Uiso   1.00
H398   H     0.79570   0.07056   0.58419   0.00000  Uiso   1.00
H399   H     0.85956   0.42727   0.38355   0.00000  Uiso   1.00
H400   H     0.82303   0.52837   0.30060   0.00000  Uiso   1.00
H401   H     0.90371   0.48445   0.48312   0.00000  Uiso   1.00
H402   H     0.85679   0.27133   0.34308   0.00000  Uiso   1.00
H403   H     0.77490   0.63681   0.24630   0.00000  Uiso   1.00
H404   H     0.94503   0.54417   0.63115   0.00000  Uiso   1.00
H405   H     0.84609   0.09478   0.33585   0.00000  Uiso   1.00
O406   O     0.72462   0.69071   0.32115   0.00000  Uiso   1.00
O407   O     0.94782   0.56917   0.82606   0.00000  Uiso   1.00
O408   O     0.81802   0.97958   0.43864   0.00000  Uiso   1.00
N409   N     0.74138   0.60440   0.44756   0.00000  Uiso   1.00
N410   N     0.90044   0.51781   0.80737   0.00000  Uiso   1.00
N411   N     0.80795   0.09766   0.53131   0.00000  Uiso   1.00
N412   N     0.76849   0.61743   0.31393   0.00000  Uiso   1.00
N413   N     0.92755   0.53084   0.67374   0.00000  Uiso   1.00
N414   N     0.83506   0.11069   0.39768   0.00000  Uiso   1.00
C415   C     0.81419   0.90547   0.10714   0.00000  Uiso   1.00
C416   C     0.80075   0.96347   0.03050   0.00000  Uiso   1.00
C417   C     0.77434   0.00499   0.04050   0.00000  Uiso   1.00
C418   C     0.76586   0.05519   0.96203   0.00000  Uiso   1.00
C419   C     0.74236   0.14401   0.85603   0.00000  Uiso   1.00
C420   C     0.84458   0.93962   0.12967   0.00000  Uiso   1.00
C421   C     0.85504   0.96107   0.22305   0.00000  Uiso   1.00
C422   C     0.88346   0.99118   0.22805   0.00000  Uiso   1.00
C423   C     0.92803   0.04292   0.27602   0.00000  Uiso   1.00
C424   C     0.81909   0.82383   0.05358   0.00000  Uiso   1.00
C425   C     0.80812   0.74792   0.08299   0.00000  Uiso   1.00
C426   C     0.81508   0.68054   0.02395   0.00000  Uiso   1.00
C427   C     0.82006   0.55250   0.95377   0.00000  Uiso   1.00
C428   C     0.84607   0.92079   0.95000   0.00000  Uiso   1.00
C429   C     0.81807   0.97179   0.94515   0.00000  Uiso   1.00
C430   C     0.80962   0.02194   0.86664   0.00000  Uiso   1.00
C431   C     0.78321   0.06352   0.87652   0.00000  Uiso   1.00
C432   C     0.86190   0.94794   0.04432   0.00000  Uiso   1.00
C433   C     0.89032   0.97802   0.04918   0.00000  Uiso   1.00
C434   C     0.90081   0.99952   0.14254   0.00000  Uiso   1.00
C435   C     0.83641   0.83215   0.96822   0.00000  Uiso   1.00
C436   C     0.84339   0.76487   0.90913   0.00000  Uiso   1.00
C437   C     0.83243   0.68888   0.93844   0.00000  Uiso   1.00
H438   H     0.80071   0.89900   0.17360   0.00000  Uiso   1.00
H439   H     0.76095   0.99854   0.10657   0.00000  Uiso   1.00
H440   H     0.84163   0.95462   0.28908   0.00000  Uiso   1.00
H441   H     0.79471   0.74151   0.14905   0.00000  Uiso   1.00
H442   H     0.72451   0.11259   0.99463   0.00000  Uiso   1.00
H443   H     0.89464   0.01996   0.37948   0.00000  Uiso   1.00
H444   H     0.79570   0.57056   0.08419   0.00000  Uiso   1.00
H445   H     0.85956   0.92727   0.88355   0.00000  Uiso   1.00
H446   H     0.82303   0.02837   0.80060   0.00000  Uiso   1.00
H447   H     0.90371   0.98445   0.98312   0.00000  Uiso   1.00
H448   H     0.85679   0.77133   0.84308   0.00000  Uiso   1.00
H449   H     0.77490   0.13681   0.74630   0.00000  Uiso   1.00
H450   H     0.94503   0.04417   0.13115   0.00000  Uiso   1.00
H451   H     0.84609   0.59478   0.83585   0.00000  Uiso   1.00
O452   O     0.72462   0.19071   0.82115   0.00000  Uiso   1.00
O453   O     0.94782   0.06917   0.32606   0.00000  Uiso   1.00
O454   O     0.81802   0.47958   0.93864   0.00000  Uiso   1.00
N455   N     0.74138   0.10440   0.94756   0.00000  Uiso   1.00
N456   N     0.90044   0.01781   0.30737   0.00000  Uiso   1.00
N457   N     0.80795   0.59766   0.03131   0.00000  Uiso   1.00
N458   N     0.76849   0.11743   0.81393   0.00000  Uiso   1.00
N459   N     0.92755   0.03084   0.17374   0.00000  Uiso   1.00
N460   N     0.83506   0.61069   0.89768   0.00000  Uiso   1.00
C461   C     0.31419   0.40547   0.10714   0.00000  Uiso   1.00
C462   C     0.30075   0.46347   0.03050   0.00000  Uiso   1.00
C463   C     0.27434   0.50499   0.04050   0.00000  Uiso   1.00
C464   C     0.26586   0.55519   0.96203   0.00000  Uiso   1.00
C465   C     0.24236   0.64401   0.85603   0.00000  Uiso   1.00
C466   C     0.34458   0.43962   0.12967   0.00000  Uiso   1.00
C467   C     0.35504   0.46107   0.22305   0.00000  Uiso   1.00
C468   C     0.38346   0.49118   0.22805   0.00000  Uiso   1.00
C469   C     0.42803   0.54292   0.27602   0.00000  Uiso   1.00
C470   C     0.31909   0.32383   0.05358   0.00000  Uiso   1.00
C471   C     0.30812   0.24792   0.08299   0.00000  Uiso   1.00
C472   C     0.31508   0.18054   0.02395   0.00000  Uiso   1.00
C473   C     0.32006   0.05250   0.95377   0.00000  Uiso   1.00
C474   C     0.34607   0.42079   0.95000   0.00000  Uiso   1.00
C475   C     0.31807   0.47179   0.94515   0.00000  Uiso   1.00
C476   C     0.30962   0.52194   0.86664   0.00000  Uiso   1.00
C477   C     0.28321   0.56352   0.87652   0.00000  Uiso   1.00
C478   C     0.36190   0.44794   0.04432   0.00000  Uiso   1.00
C479   C     0.39032   0.47802   0.04918   0.00000  Uiso   1.00
C480   C     0.40081   0.49952   0.14254   0.00000  Uiso   1.00
C481   C     0.33641   0.33215   0.96822   0.00000  Uiso   1.00
C482   C     0.34339   0.26487   0.90913   0.00000  Uiso   1.00
C483   C     0.33243   0.18888   0.93844   0.00000  Uiso   1.00
H484   H     0.30071   0.39900   0.17360   0.00000  Uiso   1.00
H485   H     0.26095   0.49854   0.10657   0.00000  Uiso   1.00
H486   H     0.34163   0.45462   0.28908   0.00000  Uiso   1.00
H487   H     0.29471   0.24151   0.14905   0.00000  Uiso   1.00
H488   H     0.22451   0.61259   0.99463   0.00000  Uiso   1.00
H489   H     0.39464   0.51996   0.37948   0.00000  Uiso   1.00
H490   H     0.29570   0.07056   0.08419   0.00000  Uiso   1.00
H491   H     0.35956   0.42727   0.88355   0.00000  Uiso   1.00
H492   H     0.32303   0.52837   0.80060   0.00000  Uiso   1.00
H493   H     0.40371   0.48445   0.98312   0.00000  Uiso   1.00
H494   H     0.35679   0.27133   0.84308   0.00000  Uiso   1.00
H495   H     0.27490   0.63681   0.74630   0.00000  Uiso   1.00
H496   H     0.44503   0.54417   0.13115   0.00000  Uiso   1.00
H497   H     0.34609   0.09478   0.83585   0.00000  Uiso   1.00
O498   O     0.22462   0.69071   0.82115   0.00000  Uiso   1.00
O499   O     0.44782   0.56917   0.32606   0.00000  Uiso   1.00
O500   O     0.31802   0.97958   0.93864   0.00000  Uiso   1.00
N501   N     0.24138   0.60440   0.94756   0.00000  Uiso   1.00
N502   N     0.40044   0.51781   0.30737   0.00000  Uiso   1.00
N503   N     0.30795   0.09766   0.03131   0.00000  Uiso   1.00
N504   N     0.26849   0.61743   0.81393   0.00000  Uiso   1.00
N505   N     0.42755   0.53084   0.17374   0.00000  Uiso   1.00
N506   N     0.33506   0.11069   0.89768   0.00000  Uiso   1.00
C507   C     0.31419   0.90547   0.60714   0.00000  Uiso   1.00
C508   C     0.30075   0.96347   0.53050   0.00000  Uiso   1.00
C509   C     0.27434   0.00499   0.54050   0.00000  Uiso   1.00
C510   C     0.26586   0.05519   0.46203   0.00000  Uiso   1.00
C511   C     0.24236   0.14401   0.35603   0.00000  Uiso   1.00
C512   C     0.34458   0.93962   0.62967   0.00000  Uiso   1.00
C513   C     0.35504   0.96107   0.72305   0.00000  Uiso   1.00
C514   C     0.38346   0.99118   0.72805   0.00000  Uiso   1.00
C515   C     0.42803   0.04292   0.77602   0.00000  Uiso   1.00
C516   C     0.31909   0.82383   0.55358   0.00000  Uiso   1.00
C517   C     0.30812   0.74792   0.58299   0.00000  Uiso   1.00
C518   C     0.31508   0.68054   0.52395   0.00000  Uiso   1.00
C519   C     0.32006   0.55250   0.45377   0.00000  Uiso   1.00
C520   C     0.34607   0.92079   0.45000   0.00000  Uiso   1.00
C521   C     0.31807   0.97179   0.44515   0.00000  Uiso   1.00
C522   C     0.30962   0.02194   0.36664   0.00000  Uiso   1.00
C523   C     0.28321   0.06352   0.37652   0.00000  Uiso   1.00
C524   C     0.36190   0.94794   0.54432   0.00000  Uiso   1.00
C525   C     0.39032   0.97802   0.54918   0.00000  Uiso   1.00
C526   C     0.40081   0.99952   0.64254   0.00000  Uiso   1.00
C527   C     0.33641   0.83215   0.46822   0.00000  Uiso   1.00
C528   C     0.34339   0.76487   0.40913   0.00000  Uiso   1.00
C529   C     0.33243   0.68888   0.43844   0.00000  Uiso   1.00
H530   H     0.30071   0.89900   0.67360   0.00000  Uiso   1.00
H531   H     0.26095   0.99854   0.60657   0.00000  Uiso   1.00
H532   H     0.34163   0.95462   0.78908   0.00000  Uiso   1.00
H533   H     0.29471   0.74151   0.64905   0.00000  Uiso   1.00
H534   H     0.22451   0.11259   0.49463   0.00000  Uiso   1.00
H535   H     0.39464   0.01996   0.87948   0.00000  Uiso   1.00
H536   H     0.29570   0.57056   0.58419   0.00000  Uiso   1.00
H537   H     0.35956   0.92727   0.38355   0.00000  Uiso   1.00
H538   H     0.32303   0.02837   0.30060   0.00000  Uiso   1.00
H539   H     0.40371   0.98445   0.48312   0.00000  Uiso   1.00
H540   H     0.35679   0.77133   0.34308   0.00000  Uiso   1.00
H541   H     0.27490   0.13681   0.24630   0.00000  Uiso   1.00
H542   H     0.44503   0.04417   0.63115   0.00000  Uiso   1.00
H543   H     0.34609   0.59478   0.33585   0.00000  Uiso   1.00
O544   O     0.22462   0.19071   0.32115   0.00000  Uiso   1.00
O545   O     0.44782   0.06917   0.82606   0.00000  Uiso   1.00
O546   O     0.31802   0.47958   0.43864   0.00000  Uiso   1.00
N547   N     0.24138   0.10440   0.44756   0.00000  Uiso   1.00
N548   N     0.40044   0.01781   0.80737   0.00000  Uiso   1.00
N549   N     0.30795   0.59766   0.53131   0.00000  Uiso   1.00
N550   N     0.26849   0.11743   0.31393   0.00000  Uiso   1.00
N551   N     0.42755   0.03084   0.67374   0.00000  Uiso   1.00
N552   N     0.33506   0.61069   0.39768   0.00000  Uiso   1.00
C553   C     0.68581   0.09453   0.60714   0.00000  Uiso   1.00
C554   C     0.69925   0.03653   0.53050   0.00000  Uiso   1.00
C555   C     0.72566   0.99501   0.54050   0.00000  Uiso   1.00
C556   C     0.73414   0.94481   0.46203   0.00000  Uiso   1.00
C557   C     0.75764   0.85599   0.35603   0.00000  Uiso   1.00
C558   C     0.65542   0.06038   0.62967   0.00000  Uiso   1.00
C559   C     0.64496   0.03893   0.72305   0.00000  Uiso   1.00
C560   C     0.61654   0.00882   0.72805   0.00000  Uiso   1.00
C561   C     0.57197   0.95708   0.77602   0.00000  Uiso   1.00
C562   C     0.68091   0.17617   0.55358   0.00000  Uiso   1.00
C563   C     0.69188   0.25208   0.58299   0.00000  Uiso   1.00
C564   C     0.68492   0.31946   0.52395   0.00000  Uiso   1.00
C565   C     0.67994   0.44750   0.45377   0.00000  Uiso   1.00
C566   C     0.65393   0.07921   0.45000   0.00000  Uiso   1.00
C567   C     0.68193   0.02821   0.44515   0.00000  Uiso   1.00
C568   C     0.69038   0.97806   0.36664   0.00000  Uiso   1.00
C569   C     0.71679   0.93648   0.37652   0.00000  Uiso   1.00
C570   C     0.63810   0.05206   0.54432   0.00000  Uiso   1.00
C571   C     0.60968   0.02198   0.54918   0.00000  Uiso   1.00
C572   C     0.59919   0.00048   0.64254   0.00000  Uiso   1.00
C573   C     0.66359   0.16785   0.46822   0.00000  Uiso   1.00
C574   C     0.65661   0.23513   0.40913   0.00000  Uiso   1.00
C575   C     0.66757   0.31112   0.43844   0.00000  Uiso   1.00
H576   H     0.69929   0.10100   0.67360   0.00000  Uiso   1.00
H577   H     0.73905   0.00146   0.60657   0.00000  Uiso   1.00
H578   H     0.65837   0.04538   0.78908   0.00000  Uiso   1.00
H579   H     0.70529   0.25849   0.64905   0.00000  Uiso   1.00
H580   H     0.77549   0.88741   0.49463   0.00000  Uiso   1.00
H581   H     0.60536   0.98004   0.87948   0.00000  Uiso   1.00
H582   H     0.70430   0.42944   0.58419   0.00000  Uiso   1.00
H583   H     0.64044   0.07273   0.38355   0.00000  Uiso   1.00
H584   H     0.67697   0.97163   0.30060   0.00000  Uiso   1.00
H585   H     0.59629   0.01555   0.48312   0.00000  Uiso   1.00
H586   H     0.64321   0.22867   0.34308   0.00000  Uiso   1.00
H587   H     0.72510   0.86319   0.24630   0.00000  Uiso   1.00
H588   H     0.55497   0.95583   0.63115   0.00000  Uiso   1.00
H589   H     0.65391   0.40522   0.33585   0.00000  Uiso   1.00
O590   O     0.77538   0.80929   0.32115   0.00000  Uiso   1.00
O591   O     0.55218   0.93083   0.82606   0.00000  Uiso   1.00
O592   O     0.68198   0.52042   0.43864   0.00000  Uiso   1.00
N593   N     0.75862   0.89560   0.44756   0.00000  Uiso   1.00
N594   N     0.59956   0.98219   0.80737   0.00000  Uiso   1.00
N595   N     0.69205   0.40234   0.53131   0.00000  Uiso   1.00
N596   N     0.73151   0.88257   0.31393   0.00000  Uiso   1.00
N597   N     0.57245   0.96916   0.67374   0.00000  Uiso   1.00
N598   N     0.66494   0.38931   0.39768   0.00000  Uiso   1.00
C599   C     0.68581   0.59453   0.10714   0.00000  Uiso   1.00
C600   C     0.69925   0.53653   0.03050   0.00000  Uiso   1.00
C601   C     0.72566   0.49501   0.04050   0.00000  Uiso   1.00
C602   C     0.73414   0.44481   0.96203   0.00000  Uiso   1.00
C603   C     0.75764   0.35599   0.85603   0.00000  Uiso   1.00
C604   C     0.65542   0.56038   0.12967   0.00000  Uiso   1.00
C605   C     0.64496   0.53893   0.22305   0.00000  Uiso   1.00
C606   C     0.61654   0.50882   0.22805   0.00000  Uiso   1.00
C607   C     0.57197   0.45708   0.27602   0.00000  Uiso   1.00
C608   C     0.68091   0.67617   0.05358   0.00000  Uiso   1.00
C609   C     0.69188   0.75208   0.08299   0.00000  Uiso   1.00
C610   C     0.68492   0.81946   0.02395   0.00000  Uiso   1.00
C611   C     0.67994   0.94750   0.95377   0.00000  Uiso   1.00
C612   C     0.65393   0.57921   0.95000   0.00000  Uiso   1.00
C613   C     0.68193   0.52821   0.94515   0.00000  Uiso   1.00
C614   C     0.69038   0.47806   0.86664   0.00000  Uiso   1.00
C615   C     0.71679   0.43648   0.87652   0.00000  Uiso   1.00
C616   C     0.63810   0.55206   0.04432   0.00000  Uiso   1.00
C617   C     0.60968   0.52198   0.04918   0.00000  Uiso   1.00
C618   C     0.59919   0.50048   0.14254   0.00000  Uiso   1.00
C619   C     0.66359   0.66785   0.96822   0.00000  Uiso   1.00
C620   C     0.65661   0.73513   0.90913   0.00000  Uiso   1.00
C621   C     0.66757   0.81112   0.93844   0.00000  Uiso   1.00
H622   H     0.69929   0.60100   0.17360   0.00000  Uiso   1.00
H623   H     0.73905   0.50146   0.10657   0.00000  Uiso   1.00
H624   H     0.65837   0.54538   0.28908   0.00000  Uiso   1.00
H625   H     0.70529   0.75849   0.14905   0.00000  Uiso   1.00
H626   H     0.77549   0.38741   0.99463   0.00000  Uiso   1.00
H627   H     0.60536   0.48004   0.37948   0.00000  Uiso   1.00
H628   H     0.70430   0.92944   0.08419   0.00000  Uiso   1.00
H629   H     0.64044   0.57273   0.88355   0.00000  Uiso   1.00
H630   H     0.67697   0.47163   0.80060   0.00000  Uiso   1.00
H631   H     0.59629   0.51555   0.98312   0.00000  Uiso   1.00
H632   H     0.64321   0.72867   0.84308   0.00000  Uiso   1.00
H633   H     0.72510   0.36319   0.74630   0.00000  Uiso   1.00
H634   H     0.55497   0.45583   0.13115   0.00000  Uiso   1.00
H635   H     0.65391   0.90522   0.83585   0.00000  Uiso   1.00
O636   O     0.77538   0.30929   0.82115   0.00000  Uiso   1.00
O637   O     0.55218   0.43083   0.32606   0.00000  Uiso   1.00
O638   O     0.68198   0.02042   0.93864   0.00000  Uiso   1.00
N639   N     0.75862   0.39560   0.94756   0.00000  Uiso   1.00
N640   N     0.59956   0.48219   0.30737   0.00000  Uiso   1.00
N641   N     0.69205   0.90234   0.03131   0.00000  Uiso   1.00
N642   N     0.73151   0.38257   0.81393   0.00000  Uiso   1.00
N643   N     0.57245   0.46916   0.17374   0.00000  Uiso   1.00
N644   N     0.66494   0.88931   0.89768   0.00000  Uiso   1.00
C645   C     0.18581   0.09453   0.10714   0.00000  Uiso   1.00
C646   C     0.19925   0.03653   0.03050   0.00000  Uiso   1.00
C647   C     0.22566   0.99501   0.04050   0.00000  Uiso   1.00
C648   C     0.23414   0.94481   0.96203   0.00000  Uiso   1.00
C649   C     0.25764   0.85599   0.85603   0.00000  Uiso   1.00
C650   C     0.15542   0.06038   0.12967   0.00000  Uiso   1.00
C651   C     0.14496   0.03893   0.22305   0.00000  Uiso   1.00
C652   C     0.11654   0.00882   0.22805   0.00000  Uiso   1.00
C653   C     0.07197   0.95708   0.27602   0.00000  Uiso   1.00
C654   C     0.18091   0.17617   0.05358   0.00000  Uiso   1.00
C655   C     0.19188   0.25208   0.08299   0.00000  Uiso   1.00
C656   C     0.18492   0.31946   0.02395   0.00000  Uiso   1.00
C657   C     0.17994   0.44750   0.95377   0.00000  Uiso   1.00
C658   C     0.15393   0.07921   0.95000   0.00000  Uiso   1.00
C659   C     0.18193   0.02821   0.94515   0.00000  Uiso   1.00
C660   C     0.19038   0.97806   0.86664   0.00000  Uiso   1.00
C661   C     0.21679   0.93648   0.87652   0.00000  Uiso   1.00
C662   C     0.13810   0.05206   0.04432   0.00000  Uiso   1.00
C663   C     0.10968   0.02198   0.04918   0.00000  Uiso   1.00
C664   C     0.09919   0.00048   0.14254   0.00000  Uiso   1.00
C665   C     0.16359   0.16785   0.96822   0.00000  Uiso   1.00
C666   C     0.15661   0.23513   0.90913   0.00000  Uiso   1.00
C667   C     0.16757   0.31112   0.93844   0.00000  Uiso   1.00
H668   H     0.19929   0.10100   0.17360   0.00000  Uiso   1.00
H669   H     0.23905   0.00146   0.10657   0.00000  Uiso   1.00
H670   H     0.15837   0.04538   0.28908   0.00000  Uiso   1.00
H671   H     0.20529   0.25849   0.14905   0.00000  Uiso   1.00
H672   H     0.27549   0.88741   0.99463   0.00000  Uiso   1.00
H673   H     0.10536   0.98004   0.37948   0.00000  Uiso   1.00
H674   H     0.20430   0.42944   0.08419   0.00000  Uiso   1.00
H675   H     0.14044   0.07273   0.88355   0.00000  Uiso   1.00
H676   H     0.17697   0.97163   0.80060   0.00000  Uiso   1.00
H677   H     0.09629   0.01555   0.98312   0.00000  Uiso   1.00
H678   H     0.14321   0.22867   0.84308   0.00000  Uiso   1.00
H679   H     0.22510   0.86319   0.74630   0.00000  Uiso   1.00
H680   H     0.05497   0.95583   0.13115   0.00000  Uiso   1.00
H681   H     0.15391   0.40522   0.83585   0.00000  Uiso   1.00
O682   O     0.27538   0.80929   0.82115   0.00000  Uiso   1.00
O683   O     0.05218   0.93083   0.32606   0.00000  Uiso   1.00
O684   O     0.18198   0.52042   0.93864   0.00000  Uiso   1.00
N685   N     0.25862   0.89560   0.94756   0.00000  Uiso   1.00
N686   N     0.09956   0.98219   0.30737   0.00000  Uiso   1.00
N687   N     0.19205   0.40234   0.03131   0.00000  Uiso   1.00
N688   N     0.23151   0.88257   0.81393   0.00000  Uiso   1.00
N689   N     0.07245   0.96916   0.17374   0.00000  Uiso   1.00
N690   N     0.16494   0.38931   0.89768   0.00000  Uiso   1.00
C691   C     0.18581   0.59453   0.60714   0.00000  Uiso   1.00
C692   C     0.19925   0.53653   0.53050   0.00000  Uiso   1.00
C693   C     0.22566   0.49501   0.54050   0.00000  Uiso   1.00
C694   C     0.23414   0.44481   0.46203   0.00000  Uiso   1.00
C695   C     0.25764   0.35599   0.35603   0.00000  Uiso   1.00
C696   C     0.15542   0.56038   0.62967   0.00000  Uiso   1.00
C697   C     0.14496   0.53893   0.72305   0.00000  Uiso   1.00
C698   C     0.11654   0.50882   0.72805   0.00000  Uiso   1.00
C699   C     0.07197   0.45708   0.77602   0.00000  Uiso   1.00
C700   C     0.18091   0.67617   0.55358   0.00000  Uiso   1.00
C701   C     0.19188   0.75208   0.58299   0.00000  Uiso   1.00
C702   C     0.18492   0.81946   0.52395   0.00000  Uiso   1.00
C703   C     0.17994   0.94750   0.45377   0.00000  Uiso   1.00
C704   C     0.15393   0.57921   0.45000   0.00000  Uiso   1.00
C705   C     0.18193   0.52821   0.44515   0.00000  Uiso   1.00
C706   C     0.19038   0.47806   0.36664   0.00000  Uiso   1.00
C707   C     0.21679   0.43648   0.37652   0.00000  Uiso   1.00
C708   C     0.13810   0.55206   0.54432   0.00000  Uiso   1.00
C709   C     0.10968   0.52198   0.54918   0.00000  Uiso   1.00
C710   C     0.09919   0.50048   0.64254   0.00000  Uiso   1.00
C711   C     0.16359   0.66785   0.46822   0.00000  Uiso   1.00
C712   C     0.15661   0.73513   0.40913   0.00000  Uiso   1.00
C713   C     0.16757   0.81112   0.43844   0.00000  Uiso   1.00
H714   H     0.19929   0.60100   0.67360   0.00000  Uiso   1.00
H715   H     0.23905   0.50146   0.60657   0.00000  Uiso   1.00
H716   H     0.15837   0.54538   0.78908   0.00000  Uiso   1.00
H717   H     0.20529   0.75849   0.64905   0.00000  Uiso   1.00
H718   H     0.27549   0.38741   0.49463   0.00000  Uiso   1.00
H719   H     0.10536   0.48004   0.87948   0.00000  Uiso   1.00
H720   H     0.20430   0.92944   0.58419   0.00000  Uiso   1.00
H721   H     0.14044   0.57273   0.38355   0.00000  Uiso   1.00
H722   H     0.17697   0.47163   0.30060   0.00000  Uiso   1.00
H723   H     0.09629   0.51555   0.48312   0.00000  Uiso   1.00
H724   H     0.14321   0.72867   0.34308   0.00000  Uiso   1.00
H725   H     0.22510   0.36319   0.24630   0.00000  Uiso   1.00
H726   H     0.05497   0.45583   0.63115   0.00000  Uiso   1.00
H727   H     0.15391   0.90522   0.33585   0.00000  Uiso   1.00
O728   O     0.27538   0.30929   0.32115   0.00000  Uiso   1.00
O729   O     0.05218   0.43083   0.82606   0.00000  Uiso   1.00
O730   O     0.18198   0.02042   0.43864   0.00000  Uiso   1.00
N731   N     0.25862   0.39560   0.44756   0.00000  Uiso   1.00
N732   N     0.09956   0.48219   0.80737   0.00000  Uiso   1.00
N733   N     0.19205   0.90234   0.53131   0.00000  Uiso   1.00
N734   N     0.23151   0.38257   0.31393   0.00000  Uiso   1.00
N735   N     0.07245   0.46916   0.67374   0.00000  Uiso   1.00
N736   N     0.16494   0.88931   0.39768   0.00000  Uiso   1.00
