data_job_05336
_audit_creation_date              2018-12-19
_audit_creation_method            'Materials Studio'
_symmetry_space_group_name_H-M    'P1'
_symmetry_Int_Tables_number       1
_symmetry_cell_setting            triclinic
loop_
_symmetry_equiv_pos_as_xyz
  x,y,z
_cell_length_a                    34.1284
_cell_length_b                    34.1284
_cell_length_c                    9.0233
_cell_angle_alpha                 90.0000
_cell_angle_beta                  90.0000
_cell_angle_gamma                 90.0000
loop_
_atom_site_label
_atom_site_type_symbol
_atom_site_fract_x
_atom_site_fract_y
_atom_site_fract_z
_atom_site_U_iso_or_equiv
_atom_site_adp_type
_atom_site_occupancy
C1     C     0.41513   0.39440   0.06632   0.00000  Uiso   1.00
C2     C     0.37120   0.39200   0.09585   0.00000  Uiso   1.00
C3     C     0.35060   0.41445   0.19771   0.00000  Uiso   1.00
C4     C     0.31055   0.40783   0.20816   0.00000  Uiso   1.00
C5     C     0.24520   0.40834   0.26751   0.00000  Uiso   1.00
C6     C     0.43108   0.35317   0.09068   0.00000  Uiso   1.00
C7     C     0.46084   0.34298   0.18816   0.00000  Uiso   1.00
C8     C     0.47121   0.30367   0.19424   0.00000  Uiso   1.00
C9     C     0.49885   0.24391   0.24547   0.00000  Uiso   1.00
C10    C     0.41946   0.40263   0.90102   0.00000  Uiso   1.00
C11    C     0.43946   0.43402   0.83904   0.00000  Uiso   1.00
C12    C     0.44006   0.43635   0.68543   0.00000  Uiso   1.00
C13    C     0.44965   0.45338   0.44220   0.00000  Uiso   1.00
C14    C     0.38064   0.34273   0.90375   0.00000  Uiso   1.00
C15    C     0.35247   0.36392   0.00755   0.00000  Uiso   1.00
C16    C     0.31244   0.35727   0.01785   0.00000  Uiso   1.00
C17    C     0.29179   0.37971   0.11970   0.00000  Uiso   1.00
C18    C     0.41235   0.32510   0.00238   0.00000  Uiso   1.00
C19    C     0.42269   0.28580   0.00830   0.00000  Uiso   1.00
C20    C     0.45245   0.27555   0.10578   0.00000  Uiso   1.00
C21    C     0.40073   0.37456   0.81272   0.00000  Uiso   1.00
C22    C     0.40130   0.37684   0.65918   0.00000  Uiso   1.00
C23    C     0.42129   0.40823   0.59697   0.00000  Uiso   1.00
H24    H     0.42971   0.41626   0.13506   0.00000  Uiso   1.00
H25    H     0.36511   0.43616   0.26603   0.00000  Uiso   1.00
H26    H     0.47533   0.36471   0.25647   0.00000  Uiso   1.00
H27    H     0.45395   0.45573   0.90740   0.00000  Uiso   1.00
H28    H     0.28522   0.44585   0.37233   0.00000  Uiso   1.00
H29    H     0.51765   0.29518   0.35214   0.00000  Uiso   1.00
H30    H     0.47257   0.48712   0.61606   0.00000  Uiso   1.00
H31    H     0.36606   0.32087   0.83500   0.00000  Uiso   1.00
H32    H     0.29796   0.33555   0.94950   0.00000  Uiso   1.00
H33    H     0.40819   0.26409   0.93995   0.00000  Uiso   1.00
H34    H     0.38680   0.35511   0.59088   0.00000  Uiso   1.00
H35    H     0.23072   0.36418   0.11543   0.00000  Uiso   1.00
H36    H     0.46315   0.21351   0.09524   0.00000  Uiso   1.00
H37    H     0.41807   0.40546   0.35916   0.00000  Uiso   1.00
O38    O     0.21432   0.41638   0.32465   0.00000  Uiso   1.00
O39    O     0.51927   0.21871   0.29814   0.00000  Uiso   1.00
O40    O     0.46012   0.47054   0.33243   0.00000  Uiso   1.00
N41    N     0.28174   0.42462   0.29613   0.00000  Uiso   1.00
N42    N     0.49904   0.28375   0.27727   0.00000  Uiso   1.00
N43    N     0.45690   0.46320   0.58910   0.00000  Uiso   1.00
N44    N     0.25241   0.38067   0.15790   0.00000  Uiso   1.00
N45    N     0.46972   0.23980   0.13904   0.00000  Uiso   1.00
N46    N     0.42758   0.41925   0.45086   0.00000  Uiso   1.00
C47    C     0.91513   0.89440   0.56632   0.00000  Uiso   1.00
C48    C     0.87120   0.89200   0.59585   0.00000  Uiso   1.00
C49    C     0.85060   0.91445   0.69771   0.00000  Uiso   1.00
C50    C     0.81055   0.90783   0.70816   0.00000  Uiso   1.00
C51    C     0.74520   0.90834   0.76751   0.00000  Uiso   1.00
C52    C     0.93108   0.85317   0.59068   0.00000  Uiso   1.00
C53    C     0.96084   0.84298   0.68816   0.00000  Uiso   1.00
C54    C     0.97121   0.80367   0.69424   0.00000  Uiso   1.00
C55    C     0.99885   0.74391   0.74547   0.00000  Uiso   1.00
C56    C     0.91946   0.90263   0.40102   0.00000  Uiso   1.00
C57    C     0.93946   0.93402   0.33904   0.00000  Uiso   1.00
C58    C     0.94006   0.93635   0.18543   0.00000  Uiso   1.00
C59    C     0.94965   0.95338   0.94220   0.00000  Uiso   1.00
C60    C     0.88064   0.84273   0.40375   0.00000  Uiso   1.00
C61    C     0.85247   0.86392   0.50755   0.00000  Uiso   1.00
C62    C     0.81244   0.85727   0.51785   0.00000  Uiso   1.00
C63    C     0.79179   0.87971   0.61970   0.00000  Uiso   1.00
C64    C     0.91235   0.82510   0.50238   0.00000  Uiso   1.00
C65    C     0.92269   0.78580   0.50830   0.00000  Uiso   1.00
C66    C     0.95245   0.77555   0.60578   0.00000  Uiso   1.00
C67    C     0.90073   0.87456   0.31272   0.00000  Uiso   1.00
C68    C     0.90130   0.87684   0.15918   0.00000  Uiso   1.00
C69    C     0.92129   0.90823   0.09697   0.00000  Uiso   1.00
H70    H     0.92971   0.91626   0.63506   0.00000  Uiso   1.00
H71    H     0.86511   0.93616   0.76603   0.00000  Uiso   1.00
H72    H     0.97533   0.86471   0.75647   0.00000  Uiso   1.00
H73    H     0.95395   0.95573   0.40740   0.00000  Uiso   1.00
H74    H     0.78522   0.94585   0.87233   0.00000  Uiso   1.00
H75    H     0.01765   0.79518   0.85214   0.00000  Uiso   1.00
H76    H     0.97257   0.98712   0.11606   0.00000  Uiso   1.00
H77    H     0.86606   0.82087   0.33500   0.00000  Uiso   1.00
H78    H     0.79796   0.83555   0.44950   0.00000  Uiso   1.00
H79    H     0.90819   0.76409   0.43995   0.00000  Uiso   1.00
H80    H     0.88680   0.85511   0.09088   0.00000  Uiso   1.00
H81    H     0.73072   0.86418   0.61543   0.00000  Uiso   1.00
H82    H     0.96315   0.71351   0.59524   0.00000  Uiso   1.00
H83    H     0.91807   0.90546   0.85916   0.00000  Uiso   1.00
O84    O     0.71432   0.91638   0.82465   0.00000  Uiso   1.00
O85    O     0.01927   0.71871   0.79814   0.00000  Uiso   1.00
O86    O     0.96012   0.97054   0.83243   0.00000  Uiso   1.00
N87    N     0.78174   0.92462   0.79613   0.00000  Uiso   1.00
N88    N     0.99904   0.78375   0.77727   0.00000  Uiso   1.00
N89    N     0.95690   0.96320   0.08910   0.00000  Uiso   1.00
N90    N     0.75241   0.88067   0.65790   0.00000  Uiso   1.00
N91    N     0.96972   0.73980   0.63904   0.00000  Uiso   1.00
N92    N     0.92758   0.91925   0.95086   0.00000  Uiso   1.00
C93    C     0.08487   0.10560   0.56632   0.00000  Uiso   1.00
C94    C     0.12880   0.10800   0.59585   0.00000  Uiso   1.00
C95    C     0.14940   0.08555   0.69771   0.00000  Uiso   1.00
C96    C     0.18945   0.09217   0.70816   0.00000  Uiso   1.00
C97    C     0.25480   0.09166   0.76751   0.00000  Uiso   1.00
C98    C     0.06892   0.14683   0.59068   0.00000  Uiso   1.00
C99    C     0.03916   0.15702   0.68816   0.00000  Uiso   1.00
C100   C     0.02879   0.19633   0.69424   0.00000  Uiso   1.00
C101   C     0.00115   0.25609   0.74547   0.00000  Uiso   1.00
C102   C     0.08054   0.09737   0.40102   0.00000  Uiso   1.00
C103   C     0.06054   0.06598   0.33904   0.00000  Uiso   1.00
C104   C     0.05994   0.06365   0.18543   0.00000  Uiso   1.00
C105   C     0.05035   0.04662   0.94220   0.00000  Uiso   1.00
C106   C     0.11936   0.15727   0.40375   0.00000  Uiso   1.00
C107   C     0.14753   0.13608   0.50755   0.00000  Uiso   1.00
C108   C     0.18756   0.14273   0.51785   0.00000  Uiso   1.00
C109   C     0.20821   0.12029   0.61970   0.00000  Uiso   1.00
C110   C     0.08765   0.17490   0.50238   0.00000  Uiso   1.00
C111   C     0.07731   0.21420   0.50830   0.00000  Uiso   1.00
C112   C     0.04755   0.22445   0.60578   0.00000  Uiso   1.00
C113   C     0.09927   0.12544   0.31272   0.00000  Uiso   1.00
C114   C     0.09870   0.12316   0.15918   0.00000  Uiso   1.00
C115   C     0.07871   0.09177   0.09697   0.00000  Uiso   1.00
H116   H     0.07029   0.08374   0.63506   0.00000  Uiso   1.00
H117   H     0.13489   0.06384   0.76603   0.00000  Uiso   1.00
H118   H     0.02467   0.13529   0.75647   0.00000  Uiso   1.00
H119   H     0.04605   0.04427   0.40740   0.00000  Uiso   1.00
H120   H     0.21478   0.05415   0.87233   0.00000  Uiso   1.00
H121   H     0.98235   0.20482   0.85214   0.00000  Uiso   1.00
H122   H     0.02743   0.01288   0.11606   0.00000  Uiso   1.00
H123   H     0.13394   0.17913   0.33500   0.00000  Uiso   1.00
H124   H     0.20204   0.16445   0.44950   0.00000  Uiso   1.00
H125   H     0.09181   0.23591   0.43995   0.00000  Uiso   1.00
H126   H     0.11320   0.14489   0.09088   0.00000  Uiso   1.00
H127   H     0.26928   0.13582   0.61543   0.00000  Uiso   1.00
H128   H     0.03685   0.28649   0.59524   0.00000  Uiso   1.00
H129   H     0.08193   0.09454   0.85916   0.00000  Uiso   1.00
O130   O     0.28568   0.08362   0.82465   0.00000  Uiso   1.00
O131   O     0.98073   0.28129   0.79814   0.00000  Uiso   1.00
O132   O     0.03988   0.02946   0.83243   0.00000  Uiso   1.00
N133   N     0.21826   0.07538   0.79613   0.00000  Uiso   1.00
N134   N     0.00096   0.21625   0.77727   0.00000  Uiso   1.00
N135   N     0.04310   0.03680   0.08910   0.00000  Uiso   1.00
N136   N     0.24759   0.11933   0.65790   0.00000  Uiso   1.00
N137   N     0.03028   0.26020   0.63904   0.00000  Uiso   1.00
N138   N     0.07242   0.08075   0.95086   0.00000  Uiso   1.00
C139   C     0.58487   0.60560   0.06632   0.00000  Uiso   1.00
C140   C     0.62880   0.60800   0.09585   0.00000  Uiso   1.00
C141   C     0.64940   0.58555   0.19771   0.00000  Uiso   1.00
C142   C     0.68945   0.59217   0.20816   0.00000  Uiso   1.00
C143   C     0.75480   0.59166   0.26751   0.00000  Uiso   1.00
C144   C     0.56892   0.64683   0.09068   0.00000  Uiso   1.00
C145   C     0.53916   0.65702   0.18816   0.00000  Uiso   1.00
C146   C     0.52879   0.69633   0.19424   0.00000  Uiso   1.00
C147   C     0.50115   0.75609   0.24547   0.00000  Uiso   1.00
C148   C     0.58054   0.59737   0.90102   0.00000  Uiso   1.00
C149   C     0.56054   0.56598   0.83904   0.00000  Uiso   1.00
C150   C     0.55994   0.56365   0.68543   0.00000  Uiso   1.00
C151   C     0.55035   0.54662   0.44220   0.00000  Uiso   1.00
C152   C     0.61936   0.65727   0.90375   0.00000  Uiso   1.00
C153   C     0.64753   0.63608   0.00755   0.00000  Uiso   1.00
C154   C     0.68756   0.64273   0.01785   0.00000  Uiso   1.00
C155   C     0.70821   0.62029   0.11970   0.00000  Uiso   1.00
C156   C     0.58765   0.67490   0.00238   0.00000  Uiso   1.00
C157   C     0.57731   0.71420   0.00830   0.00000  Uiso   1.00
C158   C     0.54755   0.72445   0.10578   0.00000  Uiso   1.00
C159   C     0.59927   0.62544   0.81272   0.00000  Uiso   1.00
C160   C     0.59870   0.62316   0.65918   0.00000  Uiso   1.00
C161   C     0.57871   0.59177   0.59697   0.00000  Uiso   1.00
H162   H     0.57029   0.58374   0.13506   0.00000  Uiso   1.00
H163   H     0.63489   0.56384   0.26603   0.00000  Uiso   1.00
H164   H     0.52467   0.63529   0.25647   0.00000  Uiso   1.00
H165   H     0.54605   0.54427   0.90740   0.00000  Uiso   1.00
H166   H     0.71478   0.55415   0.37233   0.00000  Uiso   1.00
H167   H     0.48235   0.70482   0.35214   0.00000  Uiso   1.00
H168   H     0.52743   0.51288   0.61606   0.00000  Uiso   1.00
H169   H     0.63394   0.67913   0.83500   0.00000  Uiso   1.00
H170   H     0.70204   0.66445   0.94950   0.00000  Uiso   1.00
H171   H     0.59181   0.73591   0.93995   0.00000  Uiso   1.00
H172   H     0.61320   0.64489   0.59088   0.00000  Uiso   1.00
H173   H     0.76928   0.63582   0.11543   0.00000  Uiso   1.00
H174   H     0.53685   0.78649   0.09524   0.00000  Uiso   1.00
H175   H     0.58193   0.59454   0.35916   0.00000  Uiso   1.00
O176   O     0.78568   0.58362   0.32465   0.00000  Uiso   1.00
O177   O     0.48073   0.78129   0.29814   0.00000  Uiso   1.00
O178   O     0.53988   0.52946   0.33243   0.00000  Uiso   1.00
N179   N     0.71826   0.57538   0.29613   0.00000  Uiso   1.00
N180   N     0.50096   0.71625   0.27727   0.00000  Uiso   1.00
N181   N     0.54310   0.53680   0.58910   0.00000  Uiso   1.00
N182   N     0.74759   0.61933   0.15790   0.00000  Uiso   1.00
N183   N     0.53028   0.76020   0.13904   0.00000  Uiso   1.00
N184   N     0.57242   0.58075   0.45086   0.00000  Uiso   1.00
C185   C     0.60560   0.91513   0.31632   0.00000  Uiso   1.00
C186   C     0.60800   0.87120   0.34585   0.00000  Uiso   1.00
C187   C     0.58555   0.85060   0.44771   0.00000  Uiso   1.00
C188   C     0.59217   0.81055   0.45816   0.00000  Uiso   1.00
C189   C     0.59166   0.74520   0.51751   0.00000  Uiso   1.00
C190   C     0.64683   0.93108   0.34068   0.00000  Uiso   1.00
C191   C     0.65702   0.96084   0.43816   0.00000  Uiso   1.00
C192   C     0.69633   0.97121   0.44424   0.00000  Uiso   1.00
C193   C     0.75609   0.99885   0.49547   0.00000  Uiso   1.00
C194   C     0.59737   0.91946   0.15102   0.00000  Uiso   1.00
C195   C     0.56598   0.93946   0.08904   0.00000  Uiso   1.00
C196   C     0.56365   0.94006   0.93543   0.00000  Uiso   1.00
C197   C     0.54662   0.94965   0.69220   0.00000  Uiso   1.00
C198   C     0.65727   0.88064   0.15375   0.00000  Uiso   1.00
C199   C     0.63608   0.85247   0.25755   0.00000  Uiso   1.00
C200   C     0.64273   0.81244   0.26785   0.00000  Uiso   1.00
C201   C     0.62029   0.79179   0.36970   0.00000  Uiso   1.00
C202   C     0.67490   0.91235   0.25238   0.00000  Uiso   1.00
C203   C     0.71420   0.92269   0.25830   0.00000  Uiso   1.00
C204   C     0.72445   0.95245   0.35578   0.00000  Uiso   1.00
C205   C     0.62544   0.90073   0.06272   0.00000  Uiso   1.00
C206   C     0.62316   0.90130   0.90918   0.00000  Uiso   1.00
C207   C     0.59177   0.92129   0.84697   0.00000  Uiso   1.00
H208   H     0.58374   0.92971   0.38506   0.00000  Uiso   1.00
H209   H     0.56384   0.86511   0.51603   0.00000  Uiso   1.00
H210   H     0.63529   0.97533   0.50647   0.00000  Uiso   1.00
H211   H     0.54427   0.95395   0.15740   0.00000  Uiso   1.00
H212   H     0.55415   0.78522   0.62233   0.00000  Uiso   1.00
H213   H     0.70482   0.01765   0.60214   0.00000  Uiso   1.00
H214   H     0.51288   0.97257   0.86606   0.00000  Uiso   1.00
H215   H     0.67913   0.86606   0.08500   0.00000  Uiso   1.00
H216   H     0.66445   0.79796   0.19950   0.00000  Uiso   1.00
H217   H     0.73591   0.90819   0.18995   0.00000  Uiso   1.00
H218   H     0.64489   0.88680   0.84088   0.00000  Uiso   1.00
H219   H     0.63582   0.73072   0.36543   0.00000  Uiso   1.00
H220   H     0.78649   0.96315   0.34524   0.00000  Uiso   1.00
H221   H     0.59454   0.91807   0.60916   0.00000  Uiso   1.00
O222   O     0.58362   0.71432   0.57465   0.00000  Uiso   1.00
O223   O     0.78129   0.01927   0.54814   0.00000  Uiso   1.00
O224   O     0.52946   0.96012   0.58243   0.00000  Uiso   1.00
N225   N     0.57538   0.78174   0.54613   0.00000  Uiso   1.00
N226   N     0.71625   0.99904   0.52727   0.00000  Uiso   1.00
N227   N     0.53680   0.95690   0.83910   0.00000  Uiso   1.00
N228   N     0.61933   0.75241   0.40790   0.00000  Uiso   1.00
N229   N     0.76020   0.96972   0.38904   0.00000  Uiso   1.00
N230   N     0.58075   0.92758   0.70086   0.00000  Uiso   1.00
C231   C     0.10560   0.41513   0.81632   0.00000  Uiso   1.00
C232   C     0.10800   0.37120   0.84585   0.00000  Uiso   1.00
C233   C     0.08555   0.35060   0.94771   0.00000  Uiso   1.00
C234   C     0.09217   0.31055   0.95816   0.00000  Uiso   1.00
C235   C     0.09166   0.24520   0.01751   0.00000  Uiso   1.00
C236   C     0.14683   0.43108   0.84068   0.00000  Uiso   1.00
C237   C     0.15702   0.46084   0.93816   0.00000  Uiso   1.00
C238   C     0.19633   0.47121   0.94424   0.00000  Uiso   1.00
C239   C     0.25609   0.49885   0.99547   0.00000  Uiso   1.00
C240   C     0.09737   0.41946   0.65102   0.00000  Uiso   1.00
C241   C     0.06598   0.43946   0.58904   0.00000  Uiso   1.00
C242   C     0.06365   0.44006   0.43543   0.00000  Uiso   1.00
C243   C     0.04662   0.44965   0.19220   0.00000  Uiso   1.00
C244   C     0.15727   0.38064   0.65375   0.00000  Uiso   1.00
C245   C     0.13608   0.35247   0.75755   0.00000  Uiso   1.00
C246   C     0.14273   0.31244   0.76785   0.00000  Uiso   1.00
C247   C     0.12029   0.29179   0.86970   0.00000  Uiso   1.00
C248   C     0.17490   0.41235   0.75238   0.00000  Uiso   1.00
C249   C     0.21420   0.42269   0.75830   0.00000  Uiso   1.00
C250   C     0.22445   0.45245   0.85578   0.00000  Uiso   1.00
C251   C     0.12544   0.40073   0.56272   0.00000  Uiso   1.00
C252   C     0.12316   0.40130   0.40918   0.00000  Uiso   1.00
C253   C     0.09177   0.42129   0.34697   0.00000  Uiso   1.00
H254   H     0.08374   0.42971   0.88506   0.00000  Uiso   1.00
H255   H     0.06384   0.36511   0.01603   0.00000  Uiso   1.00
H256   H     0.13529   0.47533   0.00647   0.00000  Uiso   1.00
H257   H     0.04427   0.45395   0.65740   0.00000  Uiso   1.00
H258   H     0.05415   0.28522   0.12233   0.00000  Uiso   1.00
H259   H     0.20482   0.51765   0.10214   0.00000  Uiso   1.00
H260   H     0.01288   0.47257   0.36606   0.00000  Uiso   1.00
H261   H     0.17913   0.36606   0.58500   0.00000  Uiso   1.00
H262   H     0.16445   0.29796   0.69950   0.00000  Uiso   1.00
H263   H     0.23591   0.40819   0.68995   0.00000  Uiso   1.00
H264   H     0.14489   0.38680   0.34088   0.00000  Uiso   1.00
H265   H     0.13582   0.23072   0.86543   0.00000  Uiso   1.00
H266   H     0.28649   0.46315   0.84524   0.00000  Uiso   1.00
H267   H     0.09454   0.41807   0.10916   0.00000  Uiso   1.00
O268   O     0.08362   0.21432   0.07465   0.00000  Uiso   1.00
O269   O     0.28129   0.51927   0.04814   0.00000  Uiso   1.00
O270   O     0.02946   0.46012   0.08243   0.00000  Uiso   1.00
N271   N     0.07538   0.28174   0.04613   0.00000  Uiso   1.00
N272   N     0.21625   0.49904   0.02727   0.00000  Uiso   1.00
N273   N     0.03680   0.45690   0.33910   0.00000  Uiso   1.00
N274   N     0.11933   0.25241   0.90790   0.00000  Uiso   1.00
N275   N     0.26020   0.46972   0.88904   0.00000  Uiso   1.00
N276   N     0.08075   0.42758   0.20086   0.00000  Uiso   1.00
C277   C     0.89440   0.58487   0.81632   0.00000  Uiso   1.00
C278   C     0.89200   0.62880   0.84585   0.00000  Uiso   1.00
C279   C     0.91445   0.64940   0.94771   0.00000  Uiso   1.00
C280   C     0.90783   0.68945   0.95816   0.00000  Uiso   1.00
C281   C     0.90834   0.75480   0.01751   0.00000  Uiso   1.00
C282   C     0.85317   0.56892   0.84068   0.00000  Uiso   1.00
C283   C     0.84298   0.53916   0.93816   0.00000  Uiso   1.00
C284   C     0.80367   0.52879   0.94424   0.00000  Uiso   1.00
C285   C     0.74391   0.50115   0.99547   0.00000  Uiso   1.00
C286   C     0.90263   0.58054   0.65102   0.00000  Uiso   1.00
C287   C     0.93402   0.56054   0.58904   0.00000  Uiso   1.00
C288   C     0.93635   0.55994   0.43543   0.00000  Uiso   1.00
C289   C     0.95338   0.55035   0.19220   0.00000  Uiso   1.00
C290   C     0.84273   0.61936   0.65375   0.00000  Uiso   1.00
C291   C     0.86392   0.64753   0.75755   0.00000  Uiso   1.00
C292   C     0.85727   0.68756   0.76785   0.00000  Uiso   1.00
C293   C     0.87971   0.70821   0.86970   0.00000  Uiso   1.00
C294   C     0.82510   0.58765   0.75238   0.00000  Uiso   1.00
C295   C     0.78580   0.57731   0.75830   0.00000  Uiso   1.00
C296   C     0.77555   0.54755   0.85578   0.00000  Uiso   1.00
C297   C     0.87456   0.59927   0.56272   0.00000  Uiso   1.00
C298   C     0.87684   0.59870   0.40918   0.00000  Uiso   1.00
C299   C     0.90823   0.57871   0.34697   0.00000  Uiso   1.00
H300   H     0.91626   0.57029   0.88506   0.00000  Uiso   1.00
H301   H     0.93616   0.63489   0.01603   0.00000  Uiso   1.00
H302   H     0.86471   0.52467   0.00647   0.00000  Uiso   1.00
H303   H     0.95573   0.54605   0.65740   0.00000  Uiso   1.00
H304   H     0.94585   0.71478   0.12233   0.00000  Uiso   1.00
H305   H     0.79518   0.48235   0.10214   0.00000  Uiso   1.00
H306   H     0.98712   0.52743   0.36606   0.00000  Uiso   1.00
H307   H     0.82087   0.63394   0.58500   0.00000  Uiso   1.00
H308   H     0.83555   0.70204   0.69950   0.00000  Uiso   1.00
H309   H     0.76409   0.59181   0.68995   0.00000  Uiso   1.00
H310   H     0.85511   0.61320   0.34088   0.00000  Uiso   1.00
H311   H     0.86418   0.76928   0.86543   0.00000  Uiso   1.00
H312   H     0.71351   0.53685   0.84524   0.00000  Uiso   1.00
H313   H     0.90546   0.58193   0.10916   0.00000  Uiso   1.00
O314   O     0.91638   0.78568   0.07465   0.00000  Uiso   1.00
O315   O     0.71871   0.48073   0.04814   0.00000  Uiso   1.00
O316   O     0.97054   0.53988   0.08243   0.00000  Uiso   1.00
N317   N     0.92462   0.71826   0.04613   0.00000  Uiso   1.00
N318   N     0.78375   0.50096   0.02727   0.00000  Uiso   1.00
N319   N     0.96320   0.54310   0.33910   0.00000  Uiso   1.00
N320   N     0.88067   0.74759   0.90790   0.00000  Uiso   1.00
N321   N     0.73980   0.53028   0.88904   0.00000  Uiso   1.00
N322   N     0.91925   0.57242   0.20086   0.00000  Uiso   1.00
C323   C     0.39440   0.08487   0.31632   0.00000  Uiso   1.00
C324   C     0.39200   0.12880   0.34585   0.00000  Uiso   1.00
C325   C     0.41445   0.14940   0.44771   0.00000  Uiso   1.00
C326   C     0.40783   0.18945   0.45816   0.00000  Uiso   1.00
C327   C     0.40834   0.25480   0.51751   0.00000  Uiso   1.00
C328   C     0.35317   0.06892   0.34068   0.00000  Uiso   1.00
C329   C     0.34298   0.03916   0.43816   0.00000  Uiso   1.00
C330   C     0.30367   0.02879   0.44424   0.00000  Uiso   1.00
C331   C     0.24391   0.00115   0.49547   0.00000  Uiso   1.00
C332   C     0.40263   0.08054   0.15102   0.00000  Uiso   1.00
C333   C     0.43402   0.06054   0.08904   0.00000  Uiso   1.00
C334   C     0.43635   0.05994   0.93543   0.00000  Uiso   1.00
C335   C     0.45338   0.05035   0.69220   0.00000  Uiso   1.00
C336   C     0.34273   0.11936   0.15375   0.00000  Uiso   1.00
C337   C     0.36392   0.14753   0.25755   0.00000  Uiso   1.00
C338   C     0.35727   0.18756   0.26785   0.00000  Uiso   1.00
C339   C     0.37971   0.20821   0.36970   0.00000  Uiso   1.00
C340   C     0.32510   0.08765   0.25238   0.00000  Uiso   1.00
C341   C     0.28580   0.07731   0.25830   0.00000  Uiso   1.00
C342   C     0.27555   0.04755   0.35578   0.00000  Uiso   1.00
C343   C     0.37456   0.09927   0.06272   0.00000  Uiso   1.00
C344   C     0.37684   0.09870   0.90918   0.00000  Uiso   1.00
C345   C     0.40823   0.07871   0.84697   0.00000  Uiso   1.00
H346   H     0.41626   0.07029   0.38506   0.00000  Uiso   1.00
H347   H     0.43616   0.13489   0.51603   0.00000  Uiso   1.00
H348   H     0.36471   0.02467   0.50647   0.00000  Uiso   1.00
H349   H     0.45573   0.04605   0.15740   0.00000  Uiso   1.00
H350   H     0.44585   0.21478   0.62233   0.00000  Uiso   1.00
H351   H     0.29518   0.98235   0.60214   0.00000  Uiso   1.00
H352   H     0.48712   0.02743   0.86606   0.00000  Uiso   1.00
H353   H     0.32087   0.13394   0.08500   0.00000  Uiso   1.00
H354   H     0.33555   0.20204   0.19950   0.00000  Uiso   1.00
H355   H     0.26409   0.09181   0.18995   0.00000  Uiso   1.00
H356   H     0.35511   0.11320   0.84088   0.00000  Uiso   1.00
H357   H     0.36418   0.26928   0.36543   0.00000  Uiso   1.00
H358   H     0.21351   0.03685   0.34524   0.00000  Uiso   1.00
H359   H     0.40546   0.08193   0.60916   0.00000  Uiso   1.00
O360   O     0.41638   0.28568   0.57465   0.00000  Uiso   1.00
O361   O     0.21871   0.98073   0.54814   0.00000  Uiso   1.00
O362   O     0.47054   0.03988   0.58243   0.00000  Uiso   1.00
N363   N     0.42462   0.21826   0.54613   0.00000  Uiso   1.00
N364   N     0.28375   0.00096   0.52727   0.00000  Uiso   1.00
N365   N     0.46320   0.04310   0.83910   0.00000  Uiso   1.00
N366   N     0.38067   0.24759   0.40790   0.00000  Uiso   1.00
N367   N     0.23980   0.03028   0.38904   0.00000  Uiso   1.00
N368   N     0.41925   0.07242   0.70086   0.00000  Uiso   1.00
C369   C     0.41513   0.60560   0.56632   0.00000  Uiso   1.00
C370   C     0.37120   0.60800   0.59585   0.00000  Uiso   1.00
C371   C     0.35060   0.58555   0.69771   0.00000  Uiso   1.00
C372   C     0.31055   0.59217   0.70816   0.00000  Uiso   1.00
C373   C     0.24520   0.59166   0.76751   0.00000  Uiso   1.00
C374   C     0.43108   0.64683   0.59068   0.00000  Uiso   1.00
C375   C     0.46084   0.65702   0.68816   0.00000  Uiso   1.00
C376   C     0.47121   0.69633   0.69424   0.00000  Uiso   1.00
C377   C     0.49885   0.75609   0.74547   0.00000  Uiso   1.00
C378   C     0.41946   0.59737   0.40102   0.00000  Uiso   1.00
C379   C     0.43946   0.56598   0.33904   0.00000  Uiso   1.00
C380   C     0.44006   0.56365   0.18543   0.00000  Uiso   1.00
C381   C     0.44965   0.54662   0.94220   0.00000  Uiso   1.00
C382   C     0.38064   0.65727   0.40375   0.00000  Uiso   1.00
C383   C     0.35247   0.63608   0.50755   0.00000  Uiso   1.00
C384   C     0.31244   0.64273   0.51785   0.00000  Uiso   1.00
C385   C     0.29179   0.62029   0.61970   0.00000  Uiso   1.00
C386   C     0.41235   0.67490   0.50238   0.00000  Uiso   1.00
C387   C     0.42269   0.71420   0.50830   0.00000  Uiso   1.00
C388   C     0.45245   0.72445   0.60578   0.00000  Uiso   1.00
C389   C     0.40073   0.62544   0.31272   0.00000  Uiso   1.00
C390   C     0.40130   0.62316   0.15918   0.00000  Uiso   1.00
C391   C     0.42129   0.59177   0.09697   0.00000  Uiso   1.00
H392   H     0.42971   0.58374   0.63506   0.00000  Uiso   1.00
H393   H     0.36511   0.56384   0.76603   0.00000  Uiso   1.00
H394   H     0.47533   0.63529   0.75647   0.00000  Uiso   1.00
H395   H     0.45395   0.54427   0.40740   0.00000  Uiso   1.00
H396   H     0.28522   0.55415   0.87233   0.00000  Uiso   1.00
H397   H     0.51765   0.70482   0.85214   0.00000  Uiso   1.00
H398   H     0.47257   0.51288   0.11606   0.00000  Uiso   1.00
H399   H     0.36606   0.67913   0.33500   0.00000  Uiso   1.00
H400   H     0.29796   0.66445   0.44950   0.00000  Uiso   1.00
H401   H     0.40819   0.73591   0.43995   0.00000  Uiso   1.00
H402   H     0.38680   0.64489   0.09088   0.00000  Uiso   1.00
H403   H     0.23072   0.63582   0.61543   0.00000  Uiso   1.00
H404   H     0.46315   0.78649   0.59524   0.00000  Uiso   1.00
H405   H     0.41807   0.59454   0.85916   0.00000  Uiso   1.00
O406   O     0.21432   0.58362   0.82465   0.00000  Uiso   1.00
O407   O     0.51927   0.78129   0.79814   0.00000  Uiso   1.00
O408   O     0.46012   0.52946   0.83243   0.00000  Uiso   1.00
N409   N     0.28174   0.57538   0.79613   0.00000  Uiso   1.00
N410   N     0.49904   0.71625   0.77727   0.00000  Uiso   1.00
N411   N     0.45690   0.53680   0.08910   0.00000  Uiso   1.00
N412   N     0.25241   0.61933   0.65790   0.00000  Uiso   1.00
N413   N     0.46972   0.76020   0.63904   0.00000  Uiso   1.00
N414   N     0.42758   0.58075   0.95086   0.00000  Uiso   1.00
C415   C     0.91513   0.10560   0.06632   0.00000  Uiso   1.00
C416   C     0.87120   0.10800   0.09585   0.00000  Uiso   1.00
C417   C     0.85060   0.08555   0.19771   0.00000  Uiso   1.00
C418   C     0.81055   0.09217   0.20816   0.00000  Uiso   1.00
C419   C     0.74520   0.09166   0.26751   0.00000  Uiso   1.00
C420   C     0.93108   0.14683   0.09068   0.00000  Uiso   1.00
C421   C     0.96084   0.15702   0.18816   0.00000  Uiso   1.00
C422   C     0.97121   0.19633   0.19424   0.00000  Uiso   1.00
C423   C     0.99885   0.25609   0.24547   0.00000  Uiso   1.00
C424   C     0.91946   0.09737   0.90102   0.00000  Uiso   1.00
C425   C     0.93946   0.06598   0.83904   0.00000  Uiso   1.00
C426   C     0.94006   0.06365   0.68543   0.00000  Uiso   1.00
C427   C     0.94965   0.04662   0.44220   0.00000  Uiso   1.00
C428   C     0.88064   0.15727   0.90375   0.00000  Uiso   1.00
C429   C     0.85247   0.13608   0.00755   0.00000  Uiso   1.00
C430   C     0.81244   0.14273   0.01785   0.00000  Uiso   1.00
C431   C     0.79179   0.12029   0.11970   0.00000  Uiso   1.00
C432   C     0.91235   0.17490   0.00238   0.00000  Uiso   1.00
C433   C     0.92269   0.21420   0.00830   0.00000  Uiso   1.00
C434   C     0.95245   0.22445   0.10578   0.00000  Uiso   1.00
C435   C     0.90073   0.12544   0.81272   0.00000  Uiso   1.00
C436   C     0.90130   0.12316   0.65918   0.00000  Uiso   1.00
C437   C     0.92129   0.09177   0.59697   0.00000  Uiso   1.00
H438   H     0.92971   0.08374   0.13506   0.00000  Uiso   1.00
H439   H     0.86511   0.06384   0.26603   0.00000  Uiso   1.00
H440   H     0.97533   0.13529   0.25647   0.00000  Uiso   1.00
H441   H     0.95395   0.04427   0.90740   0.00000  Uiso   1.00
H442   H     0.78522   0.05415   0.37233   0.00000  Uiso   1.00
H443   H     0.01765   0.20482   0.35214   0.00000  Uiso   1.00
H444   H     0.97257   0.01288   0.61606   0.00000  Uiso   1.00
H445   H     0.86606   0.17913   0.83500   0.00000  Uiso   1.00
H446   H     0.79796   0.16445   0.94950   0.00000  Uiso   1.00
H447   H     0.90819   0.23591   0.93995   0.00000  Uiso   1.00
H448   H     0.88680   0.14489   0.59088   0.00000  Uiso   1.00
H449   H     0.73072   0.13582   0.11543   0.00000  Uiso   1.00
H450   H     0.96315   0.28649   0.09524   0.00000  Uiso   1.00
H451   H     0.91807   0.09454   0.35916   0.00000  Uiso   1.00
O452   O     0.71432   0.08362   0.32465   0.00000  Uiso   1.00
O453   O     0.01927   0.28129   0.29814   0.00000  Uiso   1.00
O454   O     0.96012   0.02946   0.33243   0.00000  Uiso   1.00
N455   N     0.78174   0.07538   0.29613   0.00000  Uiso   1.00
N456   N     0.99904   0.21625   0.27727   0.00000  Uiso   1.00
N457   N     0.95690   0.03680   0.58910   0.00000  Uiso   1.00
N458   N     0.75241   0.11933   0.15790   0.00000  Uiso   1.00
N459   N     0.96972   0.26020   0.13904   0.00000  Uiso   1.00
N460   N     0.92758   0.08075   0.45086   0.00000  Uiso   1.00
C461   C     0.08487   0.89440   0.06632   0.00000  Uiso   1.00
C462   C     0.12880   0.89200   0.09585   0.00000  Uiso   1.00
C463   C     0.14940   0.91445   0.19771   0.00000  Uiso   1.00
C464   C     0.18945   0.90783   0.20816   0.00000  Uiso   1.00
C465   C     0.25480   0.90834   0.26751   0.00000  Uiso   1.00
C466   C     0.06892   0.85317   0.09068   0.00000  Uiso   1.00
C467   C     0.03916   0.84298   0.18816   0.00000  Uiso   1.00
C468   C     0.02879   0.80367   0.19424   0.00000  Uiso   1.00
C469   C     0.00115   0.74391   0.24547   0.00000  Uiso   1.00
C470   C     0.08054   0.90263   0.90102   0.00000  Uiso   1.00
C471   C     0.06054   0.93402   0.83904   0.00000  Uiso   1.00
C472   C     0.05994   0.93635   0.68543   0.00000  Uiso   1.00
C473   C     0.05035   0.95338   0.44220   0.00000  Uiso   1.00
C474   C     0.11936   0.84273   0.90375   0.00000  Uiso   1.00
C475   C     0.14753   0.86392   0.00755   0.00000  Uiso   1.00
C476   C     0.18756   0.85727   0.01785   0.00000  Uiso   1.00
C477   C     0.20821   0.87971   0.11970   0.00000  Uiso   1.00
C478   C     0.08765   0.82510   0.00238   0.00000  Uiso   1.00
C479   C     0.07731   0.78580   0.00830   0.00000  Uiso   1.00
C480   C     0.04755   0.77555   0.10578   0.00000  Uiso   1.00
C481   C     0.09927   0.87456   0.81272   0.00000  Uiso   1.00
C482   C     0.09870   0.87684   0.65918   0.00000  Uiso   1.00
C483   C     0.07871   0.90823   0.59697   0.00000  Uiso   1.00
H484   H     0.07029   0.91626   0.13506   0.00000  Uiso   1.00
H485   H     0.13489   0.93616   0.26603   0.00000  Uiso   1.00
H486   H     0.02467   0.86471   0.25647   0.00000  Uiso   1.00
H487   H     0.04605   0.95573   0.90740   0.00000  Uiso   1.00
H488   H     0.21478   0.94585   0.37233   0.00000  Uiso   1.00
H489   H     0.98235   0.79518   0.35214   0.00000  Uiso   1.00
H490   H     0.02743   0.98712   0.61606   0.00000  Uiso   1.00
H491   H     0.13394   0.82087   0.83500   0.00000  Uiso   1.00
H492   H     0.20204   0.83555   0.94950   0.00000  Uiso   1.00
H493   H     0.09181   0.76409   0.93995   0.00000  Uiso   1.00
H494   H     0.11320   0.85511   0.59088   0.00000  Uiso   1.00
H495   H     0.26928   0.86418   0.11543   0.00000  Uiso   1.00
H496   H     0.03685   0.71351   0.09524   0.00000  Uiso   1.00
H497   H     0.08193   0.90546   0.35916   0.00000  Uiso   1.00
O498   O     0.28568   0.91638   0.32465   0.00000  Uiso   1.00
O499   O     0.98073   0.71871   0.29814   0.00000  Uiso   1.00
O500   O     0.03988   0.97054   0.33243   0.00000  Uiso   1.00
N501   N     0.21826   0.92462   0.29613   0.00000  Uiso   1.00
N502   N     0.00096   0.78375   0.27727   0.00000  Uiso   1.00
N503   N     0.04310   0.96320   0.58910   0.00000  Uiso   1.00
N504   N     0.24759   0.88067   0.15790   0.00000  Uiso   1.00
N505   N     0.03028   0.73980   0.13904   0.00000  Uiso   1.00
N506   N     0.07242   0.91925   0.45086   0.00000  Uiso   1.00
C507   C     0.58487   0.39440   0.56632   0.00000  Uiso   1.00
C508   C     0.62880   0.39200   0.59585   0.00000  Uiso   1.00
C509   C     0.64940   0.41445   0.69771   0.00000  Uiso   1.00
C510   C     0.68945   0.40783   0.70816   0.00000  Uiso   1.00
C511   C     0.75480   0.40834   0.76751   0.00000  Uiso   1.00
C512   C     0.56892   0.35317   0.59068   0.00000  Uiso   1.00
C513   C     0.53916   0.34298   0.68816   0.00000  Uiso   1.00
C514   C     0.52879   0.30367   0.69424   0.00000  Uiso   1.00
C515   C     0.50115   0.24391   0.74547   0.00000  Uiso   1.00
C516   C     0.58054   0.40263   0.40102   0.00000  Uiso   1.00
C517   C     0.56054   0.43402   0.33904   0.00000  Uiso   1.00
C518   C     0.55994   0.43635   0.18543   0.00000  Uiso   1.00
C519   C     0.55035   0.45338   0.94220   0.00000  Uiso   1.00
C520   C     0.61936   0.34273   0.40375   0.00000  Uiso   1.00
C521   C     0.64753   0.36392   0.50755   0.00000  Uiso   1.00
C522   C     0.68756   0.35727   0.51785   0.00000  Uiso   1.00
C523   C     0.70821   0.37971   0.61970   0.00000  Uiso   1.00
C524   C     0.58765   0.32510   0.50238   0.00000  Uiso   1.00
C525   C     0.57731   0.28580   0.50830   0.00000  Uiso   1.00
C526   C     0.54755   0.27555   0.60578   0.00000  Uiso   1.00
C527   C     0.59927   0.37456   0.31272   0.00000  Uiso   1.00
C528   C     0.59870   0.37684   0.15918   0.00000  Uiso   1.00
C529   C     0.57871   0.40823   0.09697   0.00000  Uiso   1.00
H530   H     0.57029   0.41626   0.63506   0.00000  Uiso   1.00
H531   H     0.63489   0.43616   0.76603   0.00000  Uiso   1.00
H532   H     0.52467   0.36471   0.75647   0.00000  Uiso   1.00
H533   H     0.54605   0.45573   0.40740   0.00000  Uiso   1.00
H534   H     0.71478   0.44585   0.87233   0.00000  Uiso   1.00
H535   H     0.48235   0.29518   0.85214   0.00000  Uiso   1.00
H536   H     0.52743   0.48712   0.11606   0.00000  Uiso   1.00
H537   H     0.63394   0.32087   0.33500   0.00000  Uiso   1.00
H538   H     0.70204   0.33555   0.44950   0.00000  Uiso   1.00
H539   H     0.59181   0.26409   0.43995   0.00000  Uiso   1.00
H540   H     0.61320   0.35511   0.09088   0.00000  Uiso   1.00
H541   H     0.76928   0.36418   0.61543   0.00000  Uiso   1.00
H542   H     0.53685   0.21351   0.59524   0.00000  Uiso   1.00
H543   H     0.58193   0.40546   0.85916   0.00000  Uiso   1.00
O544   O     0.78568   0.41638   0.82465   0.00000  Uiso   1.00
O545   O     0.48073   0.21871   0.79814   0.00000  Uiso   1.00
O546   O     0.53988   0.47054   0.83243   0.00000  Uiso   1.00
N547   N     0.71826   0.42462   0.79613   0.00000  Uiso   1.00
N548   N     0.50096   0.28375   0.77727   0.00000  Uiso   1.00
N549   N     0.54310   0.46320   0.08910   0.00000  Uiso   1.00
N550   N     0.74759   0.38067   0.65790   0.00000  Uiso   1.00
N551   N     0.53028   0.23980   0.63904   0.00000  Uiso   1.00
N552   N     0.57242   0.41925   0.95086   0.00000  Uiso   1.00
C553   C     0.60560   0.08487   0.81632   0.00000  Uiso   1.00
C554   C     0.60800   0.12880   0.84585   0.00000  Uiso   1.00
C555   C     0.58555   0.14940   0.94771   0.00000  Uiso   1.00
C556   C     0.59217   0.18945   0.95816   0.00000  Uiso   1.00
C557   C     0.59166   0.25480   0.01751   0.00000  Uiso   1.00
C558   C     0.64683   0.06892   0.84068   0.00000  Uiso   1.00
C559   C     0.65702   0.03916   0.93816   0.00000  Uiso   1.00
C560   C     0.69633   0.02879   0.94424   0.00000  Uiso   1.00
C561   C     0.75609   0.00115   0.99547   0.00000  Uiso   1.00
C562   C     0.59737   0.08054   0.65102   0.00000  Uiso   1.00
C563   C     0.56598   0.06054   0.58904   0.00000  Uiso   1.00
C564   C     0.56365   0.05994   0.43543   0.00000  Uiso   1.00
C565   C     0.54662   0.05035   0.19220   0.00000  Uiso   1.00
C566   C     0.65727   0.11936   0.65375   0.00000  Uiso   1.00
C567   C     0.63608   0.14753   0.75755   0.00000  Uiso   1.00
C568   C     0.64273   0.18756   0.76785   0.00000  Uiso   1.00
C569   C     0.62029   0.20821   0.86970   0.00000  Uiso   1.00
C570   C     0.67490   0.08765   0.75238   0.00000  Uiso   1.00
C571   C     0.71420   0.07731   0.75830   0.00000  Uiso   1.00
C572   C     0.72445   0.04755   0.85578   0.00000  Uiso   1.00
C573   C     0.62544   0.09927   0.56272   0.00000  Uiso   1.00
C574   C     0.62316   0.09870   0.40918   0.00000  Uiso   1.00
C575   C     0.59177   0.07871   0.34697   0.00000  Uiso   1.00
H576   H     0.58374   0.07029   0.88506   0.00000  Uiso   1.00
H577   H     0.56384   0.13489   0.01603   0.00000  Uiso   1.00
H578   H     0.63529   0.02467   0.00647   0.00000  Uiso   1.00
H579   H     0.54427   0.04605   0.65740   0.00000  Uiso   1.00
H580   H     0.55415   0.21478   0.12233   0.00000  Uiso   1.00
H581   H     0.70482   0.98235   0.10214   0.00000  Uiso   1.00
H582   H     0.51288   0.02743   0.36606   0.00000  Uiso   1.00
H583   H     0.67913   0.13394   0.58500   0.00000  Uiso   1.00
H584   H     0.66445   0.20204   0.69950   0.00000  Uiso   1.00
H585   H     0.73591   0.09181   0.68995   0.00000  Uiso   1.00
H586   H     0.64489   0.11320   0.34088   0.00000  Uiso   1.00
H587   H     0.63582   0.26928   0.86543   0.00000  Uiso   1.00
H588   H     0.78649   0.03685   0.84524   0.00000  Uiso   1.00
H589   H     0.59454   0.08193   0.10916   0.00000  Uiso   1.00
O590   O     0.58362   0.28568   0.07465   0.00000  Uiso   1.00
O591   O     0.78129   0.98073   0.04814   0.00000  Uiso   1.00
O592   O     0.52946   0.03988   0.08243   0.00000  Uiso   1.00
N593   N     0.57538   0.21826   0.04613   0.00000  Uiso   1.00
N594   N     0.71625   0.00096   0.02727   0.00000  Uiso   1.00
N595   N     0.53680   0.04310   0.33910   0.00000  Uiso   1.00
N596   N     0.61933   0.24759   0.90790   0.00000  Uiso   1.00
N597   N     0.76020   0.03028   0.88904   0.00000  Uiso   1.00
N598   N     0.58075   0.07242   0.20086   0.00000  Uiso   1.00
C599   C     0.10560   0.58487   0.31632   0.00000  Uiso   1.00
C600   C     0.10800   0.62880   0.34585   0.00000  Uiso   1.00
C601   C     0.08555   0.64940   0.44771   0.00000  Uiso   1.00
C602   C     0.09217   0.68945   0.45816   0.00000  Uiso   1.00
C603   C     0.09166   0.75480   0.51751   0.00000  Uiso   1.00
C604   C     0.14683   0.56892   0.34068   0.00000  Uiso   1.00
C605   C     0.15702   0.53916   0.43816   0.00000  Uiso   1.00
C606   C     0.19633   0.52879   0.44424   0.00000  Uiso   1.00
C607   C     0.25609   0.50115   0.49547   0.00000  Uiso   1.00
C608   C     0.09737   0.58054   0.15102   0.00000  Uiso   1.00
C609   C     0.06598   0.56054   0.08904   0.00000  Uiso   1.00
C610   C     0.06365   0.55994   0.93543   0.00000  Uiso   1.00
C611   C     0.04662   0.55035   0.69220   0.00000  Uiso   1.00
C612   C     0.15727   0.61936   0.15375   0.00000  Uiso   1.00
C613   C     0.13608   0.64753   0.25755   0.00000  Uiso   1.00
C614   C     0.14273   0.68756   0.26785   0.00000  Uiso   1.00
C615   C     0.12029   0.70821   0.36970   0.00000  Uiso   1.00
C616   C     0.17490   0.58765   0.25238   0.00000  Uiso   1.00
C617   C     0.21420   0.57731   0.25830   0.00000  Uiso   1.00
C618   C     0.22445   0.54755   0.35578   0.00000  Uiso   1.00
C619   C     0.12544   0.59927   0.06272   0.00000  Uiso   1.00
C620   C     0.12316   0.59870   0.90918   0.00000  Uiso   1.00
C621   C     0.09177   0.57871   0.84697   0.00000  Uiso   1.00
H622   H     0.08374   0.57029   0.38506   0.00000  Uiso   1.00
H623   H     0.06384   0.63489   0.51603   0.00000  Uiso   1.00
H624   H     0.13529   0.52467   0.50647   0.00000  Uiso   1.00
H625   H     0.04427   0.54605   0.15740   0.00000  Uiso   1.00
H626   H     0.05415   0.71478   0.62233   0.00000  Uiso   1.00
H627   H     0.20482   0.48235   0.60214   0.00000  Uiso   1.00
H628   H     0.01288   0.52743   0.86606   0.00000  Uiso   1.00
H629   H     0.17913   0.63394   0.08500   0.00000  Uiso   1.00
H630   H     0.16445   0.70204   0.19950   0.00000  Uiso   1.00
H631   H     0.23591   0.59181   0.18995   0.00000  Uiso   1.00
H632   H     0.14489   0.61320   0.84088   0.00000  Uiso   1.00
H633   H     0.13582   0.76928   0.36543   0.00000  Uiso   1.00
H634   H     0.28649   0.53685   0.34524   0.00000  Uiso   1.00
H635   H     0.09454   0.58193   0.60916   0.00000  Uiso   1.00
O636   O     0.08362   0.78568   0.57465   0.00000  Uiso   1.00
O637   O     0.28129   0.48073   0.54814   0.00000  Uiso   1.00
O638   O     0.02946   0.53988   0.58243   0.00000  Uiso   1.00
N639   N     0.07538   0.71826   0.54613   0.00000  Uiso   1.00
N640   N     0.21625   0.50096   0.52727   0.00000  Uiso   1.00
N641   N     0.03680   0.54310   0.83910   0.00000  Uiso   1.00
N642   N     0.11933   0.74759   0.40790   0.00000  Uiso   1.00
N643   N     0.26020   0.53028   0.38904   0.00000  Uiso   1.00
N644   N     0.08075   0.57242   0.70086   0.00000  Uiso   1.00
C645   C     0.89440   0.41513   0.31632   0.00000  Uiso   1.00
C646   C     0.89200   0.37120   0.34585   0.00000  Uiso   1.00
C647   C     0.91445   0.35060   0.44771   0.00000  Uiso   1.00
C648   C     0.90783   0.31055   0.45816   0.00000  Uiso   1.00
C649   C     0.90834   0.24520   0.51751   0.00000  Uiso   1.00
C650   C     0.85317   0.43108   0.34068   0.00000  Uiso   1.00
C651   C     0.84298   0.46084   0.43816   0.00000  Uiso   1.00
C652   C     0.80367   0.47121   0.44424   0.00000  Uiso   1.00
C653   C     0.74391   0.49885   0.49547   0.00000  Uiso   1.00
C654   C     0.90263   0.41946   0.15102   0.00000  Uiso   1.00
C655   C     0.93402   0.43946   0.08904   0.00000  Uiso   1.00
C656   C     0.93635   0.44006   0.93543   0.00000  Uiso   1.00
C657   C     0.95338   0.44965   0.69220   0.00000  Uiso   1.00
C658   C     0.84273   0.38064   0.15375   0.00000  Uiso   1.00
C659   C     0.86392   0.35247   0.25755   0.00000  Uiso   1.00
C660   C     0.85727   0.31244   0.26785   0.00000  Uiso   1.00
C661   C     0.87971   0.29179   0.36970   0.00000  Uiso   1.00
C662   C     0.82510   0.41235   0.25238   0.00000  Uiso   1.00
C663   C     0.78580   0.42269   0.25830   0.00000  Uiso   1.00
C664   C     0.77555   0.45245   0.35578   0.00000  Uiso   1.00
C665   C     0.87456   0.40073   0.06272   0.00000  Uiso   1.00
C666   C     0.87684   0.40130   0.90918   0.00000  Uiso   1.00
C667   C     0.90823   0.42129   0.84697   0.00000  Uiso   1.00
H668   H     0.91626   0.42971   0.38506   0.00000  Uiso   1.00
H669   H     0.93616   0.36511   0.51603   0.00000  Uiso   1.00
H670   H     0.86471   0.47533   0.50647   0.00000  Uiso   1.00
H671   H     0.95573   0.45395   0.15740   0.00000  Uiso   1.00
H672   H     0.94585   0.28522   0.62233   0.00000  Uiso   1.00
H673   H     0.79518   0.51765   0.60214   0.00000  Uiso   1.00
H674   H     0.98712   0.47257   0.86606   0.00000  Uiso   1.00
H675   H     0.82087   0.36606   0.08500   0.00000  Uiso   1.00
H676   H     0.83555   0.29796   0.19950   0.00000  Uiso   1.00
H677   H     0.76409   0.40819   0.18995   0.00000  Uiso   1.00
H678   H     0.85511   0.38680   0.84088   0.00000  Uiso   1.00
H679   H     0.86418   0.23072   0.36543   0.00000  Uiso   1.00
H680   H     0.71351   0.46315   0.34524   0.00000  Uiso   1.00
H681   H     0.90546   0.41807   0.60916   0.00000  Uiso   1.00
O682   O     0.91638   0.21432   0.57465   0.00000  Uiso   1.00
O683   O     0.71871   0.51927   0.54814   0.00000  Uiso   1.00
O684   O     0.97054   0.46012   0.58243   0.00000  Uiso   1.00
N685   N     0.92462   0.28174   0.54613   0.00000  Uiso   1.00
N686   N     0.78375   0.49904   0.52727   0.00000  Uiso   1.00
N687   N     0.96320   0.45690   0.83910   0.00000  Uiso   1.00
N688   N     0.88067   0.25241   0.40790   0.00000  Uiso   1.00
N689   N     0.73980   0.46972   0.38904   0.00000  Uiso   1.00
N690   N     0.91925   0.42758   0.70086   0.00000  Uiso   1.00
C691   C     0.39440   0.91513   0.81632   0.00000  Uiso   1.00
C692   C     0.39200   0.87120   0.84585   0.00000  Uiso   1.00
C693   C     0.41445   0.85060   0.94771   0.00000  Uiso   1.00
C694   C     0.40783   0.81055   0.95816   0.00000  Uiso   1.00
C695   C     0.40834   0.74520   0.01751   0.00000  Uiso   1.00
C696   C     0.35317   0.93108   0.84068   0.00000  Uiso   1.00
C697   C     0.34298   0.96084   0.93816   0.00000  Uiso   1.00
C698   C     0.30367   0.97121   0.94424   0.00000  Uiso   1.00
C699   C     0.24391   0.99885   0.99547   0.00000  Uiso   1.00
C700   C     0.40263   0.91946   0.65102   0.00000  Uiso   1.00
C701   C     0.43402   0.93946   0.58904   0.00000  Uiso   1.00
C702   C     0.43635   0.94006   0.43543   0.00000  Uiso   1.00
C703   C     0.45338   0.94965   0.19220   0.00000  Uiso   1.00
C704   C     0.34273   0.88064   0.65375   0.00000  Uiso   1.00
C705   C     0.36392   0.85247   0.75755   0.00000  Uiso   1.00
C706   C     0.35727   0.81244   0.76785   0.00000  Uiso   1.00
C707   C     0.37971   0.79179   0.86970   0.00000  Uiso   1.00
C708   C     0.32510   0.91235   0.75238   0.00000  Uiso   1.00
C709   C     0.28580   0.92269   0.75830   0.00000  Uiso   1.00
C710   C     0.27555   0.95245   0.85578   0.00000  Uiso   1.00
C711   C     0.37456   0.90073   0.56272   0.00000  Uiso   1.00
C712   C     0.37684   0.90130   0.40918   0.00000  Uiso   1.00
C713   C     0.40823   0.92129   0.34697   0.00000  Uiso   1.00
H714   H     0.41626   0.92971   0.88506   0.00000  Uiso   1.00
H715   H     0.43616   0.86511   0.01603   0.00000  Uiso   1.00
H716   H     0.36471   0.97533   0.00647   0.00000  Uiso   1.00
H717   H     0.45573   0.95395   0.65740   0.00000  Uiso   1.00
H718   H     0.44585   0.78522   0.12233   0.00000  Uiso   1.00
H719   H     0.29518   0.01765   0.10214   0.00000  Uiso   1.00
H720   H     0.48712   0.97257   0.36606   0.00000  Uiso   1.00
H721   H     0.32087   0.86606   0.58500   0.00000  Uiso   1.00
H722   H     0.33555   0.79796   0.69950   0.00000  Uiso   1.00
H723   H     0.26409   0.90819   0.68995   0.00000  Uiso   1.00
H724   H     0.35511   0.88680   0.34088   0.00000  Uiso   1.00
H725   H     0.36418   0.73072   0.86543   0.00000  Uiso   1.00
H726   H     0.21351   0.96315   0.84524   0.00000  Uiso   1.00
H727   H     0.40546   0.91807   0.10916   0.00000  Uiso   1.00
O728   O     0.41638   0.71432   0.07465   0.00000  Uiso   1.00
O729   O     0.21871   0.01927   0.04814   0.00000  Uiso   1.00
O730   O     0.47054   0.96012   0.08243   0.00000  Uiso   1.00
N731   N     0.42462   0.78174   0.04613   0.00000  Uiso   1.00
N732   N     0.28375   0.99904   0.02727   0.00000  Uiso   1.00
N733   N     0.46320   0.95690   0.33910   0.00000  Uiso   1.00
N734   N     0.38067   0.75241   0.90790   0.00000  Uiso   1.00
N735   N     0.23980   0.96972   0.88904   0.00000  Uiso   1.00
N736   N     0.41925   0.92758   0.20086   0.00000  Uiso   1.00
