data_job_03490
_audit_creation_date              2018-12-19
_audit_creation_method            'Materials Studio'
_symmetry_space_group_name_H-M    'P1'
_symmetry_Int_Tables_number       1
_symmetry_cell_setting            triclinic
loop_
_symmetry_equiv_pos_as_xyz
  x,y,z
_cell_length_a                    18.9163
_cell_length_b                    18.9163
_cell_length_c                    27.4288
_cell_angle_alpha                 90.0000
_cell_angle_beta                  90.0000
_cell_angle_gamma                 90.0000
loop_
_atom_site_label
_atom_site_type_symbol
_atom_site_fract_x
_atom_site_fract_y
_atom_site_fract_z
_atom_site_U_iso_or_equiv
_atom_site_adp_type
_atom_site_occupancy
C1     C     0.73140   0.44411   0.75573   0.00000  Uiso   1.00
C2     C     0.79203   0.43963   0.71922   0.00000  Uiso   1.00
C3     C     0.85787   0.40985   0.72796   0.00000  Uiso   1.00
C4     C     0.90613   0.41097   0.68983   0.00000  Uiso   1.00
C5     C     0.00288   0.39952   0.64003   0.00000  Uiso   1.00
C6     C     0.71226   0.52223   0.75944   0.00000  Uiso   1.00
C7     C     0.71102   0.56189   0.80201   0.00000  Uiso   1.00
C8     C     0.69212   0.63254   0.79774   0.00000  Uiso   1.00
C9     C     0.66497   0.74931   0.81039   0.00000  Uiso   1.00
C10    C     0.66842   0.40813   0.73147   0.00000  Uiso   1.00
C11    C     0.63030   0.35186   0.75052   0.00000  Uiso   1.00
C12    C     0.57448   0.32645   0.72271   0.00000  Uiso   1.00
C13    C     0.47926   0.26606   0.69193   0.00000  Uiso   1.00
C14    C     0.70004   0.49907   0.67247   0.00000  Uiso   1.00
C15    C     0.77500   0.46949   0.67400   0.00000  Uiso   1.00
C16    C     0.82317   0.47066   0.63585   0.00000  Uiso   1.00
C17    C     0.88907   0.44088   0.64453   0.00000  Uiso   1.00
C18    C     0.69523   0.55209   0.71423   0.00000  Uiso   1.00
C19    C     0.67632   0.62270   0.70989   0.00000  Uiso   1.00
C20    C     0.67506   0.66245   0.75244   0.00000  Uiso   1.00
C21    C     0.65138   0.43798   0.68625   0.00000  Uiso   1.00
C22    C     0.59560   0.41266   0.65841   0.00000  Uiso   1.00
C23    C     0.55741   0.35636   0.67741   0.00000  Uiso   1.00
H24    H     0.74466   0.42087   0.79094   0.00000  Uiso   1.00
H25    H     0.87103   0.38676   0.76296   0.00000  Uiso   1.00
H26    H     0.72420   0.53877   0.83700   0.00000  Uiso   1.00
H27    H     0.64350   0.32877   0.78552   0.00000  Uiso   1.00
H28    H     0.00364   0.36213   0.71201   0.00000  Uiso   1.00
H29    H     0.69400   0.68264   0.86812   0.00000  Uiso   1.00
H30    H     0.52382   0.23982   0.75957   0.00000  Uiso   1.00
H31    H     0.68677   0.52231   0.63727   0.00000  Uiso   1.00
H32    H     0.80997   0.49376   0.60086   0.00000  Uiso   1.00
H33    H     0.66314   0.64578   0.67489   0.00000  Uiso   1.00
H34    H     0.58244   0.43578   0.62342   0.00000  Uiso   1.00
H35    H     0.95408   0.44898   0.58044   0.00000  Uiso   1.00
H36    H     0.64444   0.76950   0.73655   0.00000  Uiso   1.00
H37    H     0.47427   0.32667   0.62800   0.00000  Uiso   1.00
O38    O     0.06095   0.38496   0.62505   0.00000  Uiso   1.00
O39    O     0.65472   0.80547   0.82986   0.00000  Uiso   1.00
O40    O     0.43145   0.22449   0.68745   0.00000  Uiso   1.00
N41    N     0.97506   0.38647   0.68604   0.00000  Uiso   1.00
N42    N     0.68558   0.68614   0.83199   0.00000  Uiso   1.00
N43    N     0.52647   0.27215   0.73051   0.00000  Uiso   1.00
N44    N     0.94839   0.43321   0.61524   0.00000  Uiso   1.00
N45    N     0.65892   0.73288   0.76119   0.00000  Uiso   1.00
N46    N     0.49980   0.31888   0.65971   0.00000  Uiso   1.00
C47    C     0.23140   0.94411   0.25573   0.00000  Uiso   1.00
C48    C     0.29203   0.93963   0.21922   0.00000  Uiso   1.00
C49    C     0.35787   0.90985   0.22796   0.00000  Uiso   1.00
C50    C     0.40613   0.91097   0.18983   0.00000  Uiso   1.00
C51    C     0.50288   0.89952   0.14003   0.00000  Uiso   1.00
C52    C     0.21226   0.02223   0.25944   0.00000  Uiso   1.00
C53    C     0.21102   0.06189   0.30201   0.00000  Uiso   1.00
C54    C     0.19212   0.13254   0.29774   0.00000  Uiso   1.00
C55    C     0.16497   0.24931   0.31039   0.00000  Uiso   1.00
C56    C     0.16842   0.90813   0.23147   0.00000  Uiso   1.00
C57    C     0.13030   0.85186   0.25052   0.00000  Uiso   1.00
C58    C     0.07448   0.82645   0.22271   0.00000  Uiso   1.00
C59    C     0.97926   0.76606   0.19193   0.00000  Uiso   1.00
C60    C     0.20004   0.99907   0.17247   0.00000  Uiso   1.00
C61    C     0.27500   0.96949   0.17400   0.00000  Uiso   1.00
C62    C     0.32317   0.97066   0.13585   0.00000  Uiso   1.00
C63    C     0.38907   0.94088   0.14453   0.00000  Uiso   1.00
C64    C     0.19523   0.05209   0.21423   0.00000  Uiso   1.00
C65    C     0.17632   0.12270   0.20989   0.00000  Uiso   1.00
C66    C     0.17506   0.16245   0.25244   0.00000  Uiso   1.00
C67    C     0.15138   0.93798   0.18625   0.00000  Uiso   1.00
C68    C     0.09560   0.91266   0.15841   0.00000  Uiso   1.00
C69    C     0.05741   0.85636   0.17741   0.00000  Uiso   1.00
H70    H     0.24466   0.92087   0.29094   0.00000  Uiso   1.00
H71    H     0.37103   0.88676   0.26296   0.00000  Uiso   1.00
H72    H     0.22420   0.03877   0.33700   0.00000  Uiso   1.00
H73    H     0.14350   0.82877   0.28552   0.00000  Uiso   1.00
H74    H     0.50364   0.86213   0.21201   0.00000  Uiso   1.00
H75    H     0.19400   0.18264   0.36812   0.00000  Uiso   1.00
H76    H     0.02382   0.73982   0.25957   0.00000  Uiso   1.00
H77    H     0.18677   0.02231   0.13727   0.00000  Uiso   1.00
H78    H     0.30997   0.99376   0.10086   0.00000  Uiso   1.00
H79    H     0.16314   0.14578   0.17489   0.00000  Uiso   1.00
H80    H     0.08244   0.93578   0.12342   0.00000  Uiso   1.00
H81    H     0.45408   0.94898   0.08044   0.00000  Uiso   1.00
H82    H     0.14444   0.26950   0.23655   0.00000  Uiso   1.00
H83    H     0.97427   0.82667   0.12800   0.00000  Uiso   1.00
O84    O     0.56095   0.88496   0.12505   0.00000  Uiso   1.00
O85    O     0.15472   0.30547   0.32986   0.00000  Uiso   1.00
O86    O     0.93145   0.72449   0.18745   0.00000  Uiso   1.00
N87    N     0.47506   0.88647   0.18604   0.00000  Uiso   1.00
N88    N     0.18558   0.18614   0.33199   0.00000  Uiso   1.00
N89    N     0.02647   0.77215   0.23051   0.00000  Uiso   1.00
N90    N     0.44839   0.93321   0.11524   0.00000  Uiso   1.00
N91    N     0.15892   0.23288   0.26119   0.00000  Uiso   1.00
N92    N     0.99980   0.81888   0.15971   0.00000  Uiso   1.00
C93    C     0.26860   0.55589   0.75573   0.00000  Uiso   1.00
C94    C     0.20797   0.56037   0.71922   0.00000  Uiso   1.00
C95    C     0.14213   0.59015   0.72796   0.00000  Uiso   1.00
C96    C     0.09387   0.58903   0.68983   0.00000  Uiso   1.00
C97    C     0.99712   0.60048   0.64003   0.00000  Uiso   1.00
C98    C     0.28774   0.47777   0.75944   0.00000  Uiso   1.00
C99    C     0.28898   0.43811   0.80201   0.00000  Uiso   1.00
C100   C     0.30788   0.36746   0.79774   0.00000  Uiso   1.00
C101   C     0.33503   0.25069   0.81039   0.00000  Uiso   1.00
C102   C     0.33158   0.59187   0.73147   0.00000  Uiso   1.00
C103   C     0.36970   0.64814   0.75052   0.00000  Uiso   1.00
C104   C     0.42552   0.67355   0.72271   0.00000  Uiso   1.00
C105   C     0.52074   0.73394   0.69193   0.00000  Uiso   1.00
C106   C     0.29996   0.50093   0.67247   0.00000  Uiso   1.00
C107   C     0.22500   0.53051   0.67400   0.00000  Uiso   1.00
C108   C     0.17683   0.52934   0.63585   0.00000  Uiso   1.00
C109   C     0.11093   0.55912   0.64453   0.00000  Uiso   1.00
C110   C     0.30477   0.44791   0.71423   0.00000  Uiso   1.00
C111   C     0.32368   0.37730   0.70989   0.00000  Uiso   1.00
C112   C     0.32494   0.33755   0.75244   0.00000  Uiso   1.00
C113   C     0.34862   0.56202   0.68625   0.00000  Uiso   1.00
C114   C     0.40440   0.58734   0.65841   0.00000  Uiso   1.00
C115   C     0.44259   0.64364   0.67741   0.00000  Uiso   1.00
H116   H     0.25534   0.57913   0.79094   0.00000  Uiso   1.00
H117   H     0.12897   0.61324   0.76296   0.00000  Uiso   1.00
H118   H     0.27580   0.46123   0.83700   0.00000  Uiso   1.00
H119   H     0.35650   0.67123   0.78552   0.00000  Uiso   1.00
H120   H     0.99636   0.63787   0.71201   0.00000  Uiso   1.00
H121   H     0.30600   0.31736   0.86812   0.00000  Uiso   1.00
H122   H     0.47618   0.76018   0.75957   0.00000  Uiso   1.00
H123   H     0.31323   0.47769   0.63727   0.00000  Uiso   1.00
H124   H     0.19003   0.50624   0.60086   0.00000  Uiso   1.00
H125   H     0.33686   0.35422   0.67489   0.00000  Uiso   1.00
H126   H     0.41756   0.56422   0.62342   0.00000  Uiso   1.00
H127   H     0.04592   0.55102   0.58044   0.00000  Uiso   1.00
H128   H     0.35556   0.23050   0.73655   0.00000  Uiso   1.00
H129   H     0.52573   0.67333   0.62800   0.00000  Uiso   1.00
O130   O     0.93905   0.61504   0.62505   0.00000  Uiso   1.00
O131   O     0.34528   0.19453   0.82986   0.00000  Uiso   1.00
O132   O     0.56855   0.77551   0.68745   0.00000  Uiso   1.00
N133   N     0.02494   0.61353   0.68604   0.00000  Uiso   1.00
N134   N     0.31442   0.31386   0.83199   0.00000  Uiso   1.00
N135   N     0.47353   0.72785   0.73051   0.00000  Uiso   1.00
N136   N     0.05161   0.56679   0.61524   0.00000  Uiso   1.00
N137   N     0.34108   0.26712   0.76119   0.00000  Uiso   1.00
N138   N     0.50020   0.68112   0.65971   0.00000  Uiso   1.00
C139   C     0.76860   0.05589   0.25573   0.00000  Uiso   1.00
C140   C     0.70797   0.06037   0.21922   0.00000  Uiso   1.00
C141   C     0.64213   0.09015   0.22796   0.00000  Uiso   1.00
C142   C     0.59387   0.08903   0.18983   0.00000  Uiso   1.00
C143   C     0.49712   0.10048   0.14003   0.00000  Uiso   1.00
C144   C     0.78774   0.97777   0.25944   0.00000  Uiso   1.00
C145   C     0.78898   0.93811   0.30201   0.00000  Uiso   1.00
C146   C     0.80788   0.86746   0.29774   0.00000  Uiso   1.00
C147   C     0.83503   0.75069   0.31039   0.00000  Uiso   1.00
C148   C     0.83158   0.09187   0.23147   0.00000  Uiso   1.00
C149   C     0.86970   0.14814   0.25052   0.00000  Uiso   1.00
C150   C     0.92552   0.17355   0.22271   0.00000  Uiso   1.00
C151   C     0.02074   0.23394   0.19193   0.00000  Uiso   1.00
C152   C     0.79996   0.00093   0.17247   0.00000  Uiso   1.00
C153   C     0.72500   0.03051   0.17400   0.00000  Uiso   1.00
C154   C     0.67683   0.02934   0.13585   0.00000  Uiso   1.00
C155   C     0.61093   0.05912   0.14453   0.00000  Uiso   1.00
C156   C     0.80477   0.94791   0.21423   0.00000  Uiso   1.00
C157   C     0.82368   0.87730   0.20989   0.00000  Uiso   1.00
C158   C     0.82494   0.83755   0.25244   0.00000  Uiso   1.00
C159   C     0.84862   0.06202   0.18625   0.00000  Uiso   1.00
C160   C     0.90440   0.08734   0.15841   0.00000  Uiso   1.00
C161   C     0.94259   0.14364   0.17741   0.00000  Uiso   1.00
H162   H     0.75534   0.07913   0.29094   0.00000  Uiso   1.00
H163   H     0.62897   0.11324   0.26296   0.00000  Uiso   1.00
H164   H     0.77580   0.96123   0.33700   0.00000  Uiso   1.00
H165   H     0.85650   0.17123   0.28552   0.00000  Uiso   1.00
H166   H     0.49636   0.13787   0.21201   0.00000  Uiso   1.00
H167   H     0.80600   0.81736   0.36812   0.00000  Uiso   1.00
H168   H     0.97618   0.26018   0.25957   0.00000  Uiso   1.00
H169   H     0.81323   0.97769   0.13727   0.00000  Uiso   1.00
H170   H     0.69003   0.00624   0.10086   0.00000  Uiso   1.00
H171   H     0.83686   0.85422   0.17489   0.00000  Uiso   1.00
H172   H     0.91756   0.06422   0.12342   0.00000  Uiso   1.00
H173   H     0.54592   0.05102   0.08044   0.00000  Uiso   1.00
H174   H     0.85556   0.73050   0.23655   0.00000  Uiso   1.00
H175   H     0.02573   0.17333   0.12800   0.00000  Uiso   1.00
O176   O     0.43905   0.11504   0.12505   0.00000  Uiso   1.00
O177   O     0.84528   0.69453   0.32986   0.00000  Uiso   1.00
O178   O     0.06855   0.27551   0.18745   0.00000  Uiso   1.00
N179   N     0.52494   0.11353   0.18604   0.00000  Uiso   1.00
N180   N     0.81442   0.81386   0.33199   0.00000  Uiso   1.00
N181   N     0.97353   0.22785   0.23051   0.00000  Uiso   1.00
N182   N     0.55161   0.06679   0.11524   0.00000  Uiso   1.00
N183   N     0.84108   0.76712   0.26119   0.00000  Uiso   1.00
N184   N     0.00020   0.18112   0.15971   0.00000  Uiso   1.00
C185   C     0.44411   0.26860   0.24427   0.00000  Uiso   1.00
C186   C     0.43963   0.20797   0.28078   0.00000  Uiso   1.00
C187   C     0.40985   0.14213   0.27204   0.00000  Uiso   1.00
C188   C     0.41097   0.09387   0.31017   0.00000  Uiso   1.00
C189   C     0.39952   0.99712   0.35997   0.00000  Uiso   1.00
C190   C     0.52223   0.28774   0.24056   0.00000  Uiso   1.00
C191   C     0.56189   0.28898   0.19799   0.00000  Uiso   1.00
C192   C     0.63254   0.30788   0.20226   0.00000  Uiso   1.00
C193   C     0.74931   0.33503   0.18961   0.00000  Uiso   1.00
C194   C     0.40813   0.33158   0.26853   0.00000  Uiso   1.00
C195   C     0.35186   0.36970   0.24948   0.00000  Uiso   1.00
C196   C     0.32645   0.42552   0.27729   0.00000  Uiso   1.00
C197   C     0.26606   0.52074   0.30807   0.00000  Uiso   1.00
C198   C     0.49907   0.29996   0.32753   0.00000  Uiso   1.00
C199   C     0.46949   0.22500   0.32600   0.00000  Uiso   1.00
C200   C     0.47066   0.17683   0.36415   0.00000  Uiso   1.00
C201   C     0.44088   0.11093   0.35547   0.00000  Uiso   1.00
C202   C     0.55209   0.30477   0.28577   0.00000  Uiso   1.00
C203   C     0.62270   0.32368   0.29011   0.00000  Uiso   1.00
C204   C     0.66245   0.32494   0.24756   0.00000  Uiso   1.00
C205   C     0.43798   0.34862   0.31375   0.00000  Uiso   1.00
C206   C     0.41266   0.40440   0.34159   0.00000  Uiso   1.00
C207   C     0.35636   0.44259   0.32259   0.00000  Uiso   1.00
H208   H     0.42087   0.25534   0.20906   0.00000  Uiso   1.00
H209   H     0.38676   0.12897   0.23704   0.00000  Uiso   1.00
H210   H     0.53877   0.27580   0.16300   0.00000  Uiso   1.00
H211   H     0.32877   0.35650   0.21448   0.00000  Uiso   1.00
H212   H     0.36213   0.99636   0.28799   0.00000  Uiso   1.00
H213   H     0.68264   0.30600   0.13188   0.00000  Uiso   1.00
H214   H     0.23982   0.47618   0.24043   0.00000  Uiso   1.00
H215   H     0.52231   0.31323   0.36273   0.00000  Uiso   1.00
H216   H     0.49376   0.19003   0.39914   0.00000  Uiso   1.00
H217   H     0.64578   0.33686   0.32511   0.00000  Uiso   1.00
H218   H     0.43578   0.41756   0.37658   0.00000  Uiso   1.00
H219   H     0.44898   0.04592   0.41956   0.00000  Uiso   1.00
H220   H     0.76950   0.35556   0.26345   0.00000  Uiso   1.00
H221   H     0.32667   0.52573   0.37200   0.00000  Uiso   1.00
O222   O     0.38496   0.93905   0.37495   0.00000  Uiso   1.00
O223   O     0.80547   0.34528   0.17014   0.00000  Uiso   1.00
O224   O     0.22449   0.56855   0.31255   0.00000  Uiso   1.00
N225   N     0.38647   0.02494   0.31396   0.00000  Uiso   1.00
N226   N     0.68614   0.31442   0.16801   0.00000  Uiso   1.00
N227   N     0.27215   0.47353   0.26949   0.00000  Uiso   1.00
N228   N     0.43321   0.05161   0.38476   0.00000  Uiso   1.00
N229   N     0.73288   0.34108   0.23881   0.00000  Uiso   1.00
N230   N     0.31888   0.50020   0.34029   0.00000  Uiso   1.00
C231   C     0.94411   0.76860   0.74427   0.00000  Uiso   1.00
C232   C     0.93963   0.70797   0.78078   0.00000  Uiso   1.00
C233   C     0.90985   0.64213   0.77204   0.00000  Uiso   1.00
C234   C     0.91097   0.59387   0.81017   0.00000  Uiso   1.00
C235   C     0.89952   0.49712   0.85997   0.00000  Uiso   1.00
C236   C     0.02223   0.78774   0.74056   0.00000  Uiso   1.00
C237   C     0.06189   0.78898   0.69799   0.00000  Uiso   1.00
C238   C     0.13254   0.80788   0.70226   0.00000  Uiso   1.00
C239   C     0.24931   0.83503   0.68961   0.00000  Uiso   1.00
C240   C     0.90813   0.83158   0.76853   0.00000  Uiso   1.00
C241   C     0.85186   0.86970   0.74948   0.00000  Uiso   1.00
C242   C     0.82645   0.92552   0.77729   0.00000  Uiso   1.00
C243   C     0.76606   0.02074   0.80807   0.00000  Uiso   1.00
C244   C     0.99907   0.79996   0.82753   0.00000  Uiso   1.00
C245   C     0.96949   0.72500   0.82600   0.00000  Uiso   1.00
C246   C     0.97066   0.67683   0.86415   0.00000  Uiso   1.00
C247   C     0.94088   0.61093   0.85547   0.00000  Uiso   1.00
C248   C     0.05209   0.80477   0.78577   0.00000  Uiso   1.00
C249   C     0.12270   0.82368   0.79011   0.00000  Uiso   1.00
C250   C     0.16245   0.82494   0.74756   0.00000  Uiso   1.00
C251   C     0.93798   0.84862   0.81375   0.00000  Uiso   1.00
C252   C     0.91266   0.90440   0.84159   0.00000  Uiso   1.00
C253   C     0.85636   0.94259   0.82259   0.00000  Uiso   1.00
H254   H     0.92087   0.75534   0.70906   0.00000  Uiso   1.00
H255   H     0.88676   0.62897   0.73704   0.00000  Uiso   1.00
H256   H     0.03877   0.77580   0.66300   0.00000  Uiso   1.00
H257   H     0.82877   0.85650   0.71448   0.00000  Uiso   1.00
H258   H     0.86213   0.49636   0.78799   0.00000  Uiso   1.00
H259   H     0.18264   0.80600   0.63188   0.00000  Uiso   1.00
H260   H     0.73982   0.97618   0.74043   0.00000  Uiso   1.00
H261   H     0.02231   0.81323   0.86273   0.00000  Uiso   1.00
H262   H     0.99376   0.69003   0.89914   0.00000  Uiso   1.00
H263   H     0.14578   0.83686   0.82511   0.00000  Uiso   1.00
H264   H     0.93578   0.91756   0.87658   0.00000  Uiso   1.00
H265   H     0.94898   0.54592   0.91956   0.00000  Uiso   1.00
H266   H     0.26950   0.85556   0.76345   0.00000  Uiso   1.00
H267   H     0.82667   0.02573   0.87200   0.00000  Uiso   1.00
O268   O     0.88496   0.43905   0.87495   0.00000  Uiso   1.00
O269   O     0.30547   0.84528   0.67014   0.00000  Uiso   1.00
O270   O     0.72449   0.06855   0.81255   0.00000  Uiso   1.00
N271   N     0.88647   0.52494   0.81396   0.00000  Uiso   1.00
N272   N     0.18614   0.81442   0.66801   0.00000  Uiso   1.00
N273   N     0.77215   0.97353   0.76949   0.00000  Uiso   1.00
N274   N     0.93321   0.55161   0.88476   0.00000  Uiso   1.00
N275   N     0.23288   0.84108   0.73881   0.00000  Uiso   1.00
N276   N     0.81888   0.00020   0.84029   0.00000  Uiso   1.00
C277   C     0.55589   0.73140   0.24427   0.00000  Uiso   1.00
C278   C     0.56037   0.79203   0.28078   0.00000  Uiso   1.00
C279   C     0.59015   0.85787   0.27204   0.00000  Uiso   1.00
C280   C     0.58903   0.90613   0.31017   0.00000  Uiso   1.00
C281   C     0.60048   0.00288   0.35997   0.00000  Uiso   1.00
C282   C     0.47777   0.71226   0.24056   0.00000  Uiso   1.00
C283   C     0.43811   0.71102   0.19799   0.00000  Uiso   1.00
C284   C     0.36746   0.69212   0.20226   0.00000  Uiso   1.00
C285   C     0.25069   0.66497   0.18961   0.00000  Uiso   1.00
C286   C     0.59187   0.66842   0.26853   0.00000  Uiso   1.00
C287   C     0.64814   0.63030   0.24948   0.00000  Uiso   1.00
C288   C     0.67355   0.57448   0.27729   0.00000  Uiso   1.00
C289   C     0.73394   0.47926   0.30807   0.00000  Uiso   1.00
C290   C     0.50093   0.70004   0.32753   0.00000  Uiso   1.00
C291   C     0.53051   0.77500   0.32600   0.00000  Uiso   1.00
C292   C     0.52934   0.82317   0.36415   0.00000  Uiso   1.00
C293   C     0.55912   0.88907   0.35547   0.00000  Uiso   1.00
C294   C     0.44791   0.69523   0.28577   0.00000  Uiso   1.00
C295   C     0.37730   0.67632   0.29011   0.00000  Uiso   1.00
C296   C     0.33755   0.67506   0.24756   0.00000  Uiso   1.00
C297   C     0.56202   0.65138   0.31375   0.00000  Uiso   1.00
C298   C     0.58734   0.59560   0.34159   0.00000  Uiso   1.00
C299   C     0.64364   0.55741   0.32259   0.00000  Uiso   1.00
H300   H     0.57913   0.74466   0.20906   0.00000  Uiso   1.00
H301   H     0.61324   0.87103   0.23704   0.00000  Uiso   1.00
H302   H     0.46123   0.72420   0.16300   0.00000  Uiso   1.00
H303   H     0.67123   0.64350   0.21448   0.00000  Uiso   1.00
H304   H     0.63787   0.00364   0.28799   0.00000  Uiso   1.00
H305   H     0.31736   0.69400   0.13188   0.00000  Uiso   1.00
H306   H     0.76018   0.52382   0.24043   0.00000  Uiso   1.00
H307   H     0.47769   0.68677   0.36273   0.00000  Uiso   1.00
H308   H     0.50624   0.80997   0.39914   0.00000  Uiso   1.00
H309   H     0.35422   0.66314   0.32511   0.00000  Uiso   1.00
H310   H     0.56422   0.58244   0.37658   0.00000  Uiso   1.00
H311   H     0.55102   0.95408   0.41956   0.00000  Uiso   1.00
H312   H     0.23050   0.64444   0.26345   0.00000  Uiso   1.00
H313   H     0.67333   0.47427   0.37200   0.00000  Uiso   1.00
O314   O     0.61504   0.06095   0.37495   0.00000  Uiso   1.00
O315   O     0.19453   0.65472   0.17014   0.00000  Uiso   1.00
O316   O     0.77551   0.43145   0.31255   0.00000  Uiso   1.00
N317   N     0.61353   0.97506   0.31396   0.00000  Uiso   1.00
N318   N     0.31386   0.68558   0.16801   0.00000  Uiso   1.00
N319   N     0.72785   0.52647   0.26949   0.00000  Uiso   1.00
N320   N     0.56679   0.94839   0.38476   0.00000  Uiso   1.00
N321   N     0.26712   0.65892   0.23881   0.00000  Uiso   1.00
N322   N     0.68112   0.49980   0.34029   0.00000  Uiso   1.00
C323   C     0.05589   0.23140   0.74427   0.00000  Uiso   1.00
C324   C     0.06037   0.29203   0.78078   0.00000  Uiso   1.00
C325   C     0.09015   0.35787   0.77204   0.00000  Uiso   1.00
C326   C     0.08903   0.40613   0.81017   0.00000  Uiso   1.00
C327   C     0.10048   0.50288   0.85997   0.00000  Uiso   1.00
C328   C     0.97777   0.21226   0.74056   0.00000  Uiso   1.00
C329   C     0.93811   0.21102   0.69799   0.00000  Uiso   1.00
C330   C     0.86746   0.19212   0.70226   0.00000  Uiso   1.00
C331   C     0.75069   0.16497   0.68961   0.00000  Uiso   1.00
C332   C     0.09187   0.16842   0.76853   0.00000  Uiso   1.00
C333   C     0.14814   0.13030   0.74948   0.00000  Uiso   1.00
C334   C     0.17355   0.07448   0.77729   0.00000  Uiso   1.00
C335   C     0.23394   0.97926   0.80807   0.00000  Uiso   1.00
C336   C     0.00093   0.20004   0.82753   0.00000  Uiso   1.00
C337   C     0.03051   0.27500   0.82600   0.00000  Uiso   1.00
C338   C     0.02934   0.32317   0.86415   0.00000  Uiso   1.00
C339   C     0.05912   0.38907   0.85547   0.00000  Uiso   1.00
C340   C     0.94791   0.19523   0.78577   0.00000  Uiso   1.00
C341   C     0.87730   0.17632   0.79011   0.00000  Uiso   1.00
C342   C     0.83755   0.17506   0.74756   0.00000  Uiso   1.00
C343   C     0.06202   0.15138   0.81375   0.00000  Uiso   1.00
C344   C     0.08734   0.09560   0.84159   0.00000  Uiso   1.00
C345   C     0.14364   0.05741   0.82259   0.00000  Uiso   1.00
H346   H     0.07913   0.24466   0.70906   0.00000  Uiso   1.00
H347   H     0.11324   0.37103   0.73704   0.00000  Uiso   1.00
H348   H     0.96123   0.22420   0.66300   0.00000  Uiso   1.00
H349   H     0.17123   0.14350   0.71448   0.00000  Uiso   1.00
H350   H     0.13787   0.50364   0.78799   0.00000  Uiso   1.00
H351   H     0.81736   0.19400   0.63188   0.00000  Uiso   1.00
H352   H     0.26018   0.02382   0.74043   0.00000  Uiso   1.00
H353   H     0.97769   0.18677   0.86273   0.00000  Uiso   1.00
H354   H     0.00624   0.30997   0.89914   0.00000  Uiso   1.00
H355   H     0.85422   0.16314   0.82511   0.00000  Uiso   1.00
H356   H     0.06422   0.08244   0.87658   0.00000  Uiso   1.00
H357   H     0.05102   0.45408   0.91956   0.00000  Uiso   1.00
H358   H     0.73050   0.14444   0.76345   0.00000  Uiso   1.00
H359   H     0.17333   0.97427   0.87200   0.00000  Uiso   1.00
O360   O     0.11504   0.56095   0.87495   0.00000  Uiso   1.00
O361   O     0.69453   0.15472   0.67014   0.00000  Uiso   1.00
O362   O     0.27551   0.93145   0.81255   0.00000  Uiso   1.00
N363   N     0.11353   0.47506   0.81396   0.00000  Uiso   1.00
N364   N     0.81386   0.18558   0.66801   0.00000  Uiso   1.00
N365   N     0.22785   0.02647   0.76949   0.00000  Uiso   1.00
N366   N     0.06679   0.44839   0.88476   0.00000  Uiso   1.00
N367   N     0.76712   0.15892   0.73881   0.00000  Uiso   1.00
N368   N     0.18112   0.99980   0.84029   0.00000  Uiso   1.00
C369   C     0.76860   0.44411   0.99427   0.00000  Uiso   1.00
C370   C     0.70797   0.43963   0.03078   0.00000  Uiso   1.00
C371   C     0.64213   0.40985   0.02204   0.00000  Uiso   1.00
C372   C     0.59387   0.41097   0.06017   0.00000  Uiso   1.00
C373   C     0.49712   0.39952   0.10997   0.00000  Uiso   1.00
C374   C     0.78774   0.52223   0.99056   0.00000  Uiso   1.00
C375   C     0.78898   0.56189   0.94799   0.00000  Uiso   1.00
C376   C     0.80788   0.63254   0.95226   0.00000  Uiso   1.00
C377   C     0.83503   0.74931   0.93961   0.00000  Uiso   1.00
C378   C     0.83158   0.40813   0.01853   0.00000  Uiso   1.00
C379   C     0.86970   0.35186   0.99948   0.00000  Uiso   1.00
C380   C     0.92552   0.32645   0.02729   0.00000  Uiso   1.00
C381   C     0.02074   0.26606   0.05807   0.00000  Uiso   1.00
C382   C     0.79996   0.49907   0.07753   0.00000  Uiso   1.00
C383   C     0.72500   0.46949   0.07600   0.00000  Uiso   1.00
C384   C     0.67683   0.47066   0.11415   0.00000  Uiso   1.00
C385   C     0.61093   0.44088   0.10547   0.00000  Uiso   1.00
C386   C     0.80477   0.55209   0.03577   0.00000  Uiso   1.00
C387   C     0.82368   0.62270   0.04011   0.00000  Uiso   1.00
C388   C     0.82494   0.66245   0.99756   0.00000  Uiso   1.00
C389   C     0.84862   0.43798   0.06375   0.00000  Uiso   1.00
C390   C     0.90440   0.41266   0.09159   0.00000  Uiso   1.00
C391   C     0.94259   0.35636   0.07259   0.00000  Uiso   1.00
H392   H     0.75534   0.42087   0.95906   0.00000  Uiso   1.00
H393   H     0.62897   0.38676   0.98704   0.00000  Uiso   1.00
H394   H     0.77580   0.53877   0.91300   0.00000  Uiso   1.00
H395   H     0.85650   0.32877   0.96448   0.00000  Uiso   1.00
H396   H     0.49636   0.36213   0.03799   0.00000  Uiso   1.00
H397   H     0.80600   0.68264   0.88188   0.00000  Uiso   1.00
H398   H     0.97618   0.23982   0.99043   0.00000  Uiso   1.00
H399   H     0.81323   0.52231   0.11273   0.00000  Uiso   1.00
H400   H     0.69003   0.49376   0.14914   0.00000  Uiso   1.00
H401   H     0.83686   0.64578   0.07511   0.00000  Uiso   1.00
H402   H     0.91756   0.43578   0.12658   0.00000  Uiso   1.00
H403   H     0.54592   0.44898   0.16956   0.00000  Uiso   1.00
H404   H     0.85556   0.76950   0.01345   0.00000  Uiso   1.00
H405   H     0.02573   0.32667   0.12200   0.00000  Uiso   1.00
O406   O     0.43905   0.38496   0.12495   0.00000  Uiso   1.00
O407   O     0.84528   0.80547   0.92014   0.00000  Uiso   1.00
O408   O     0.06855   0.22449   0.06255   0.00000  Uiso   1.00
N409   N     0.52494   0.38647   0.06396   0.00000  Uiso   1.00
N410   N     0.81442   0.68614   0.91801   0.00000  Uiso   1.00
N411   N     0.97353   0.27215   0.01949   0.00000  Uiso   1.00
N412   N     0.55161   0.43321   0.13476   0.00000  Uiso   1.00
N413   N     0.84108   0.73288   0.98881   0.00000  Uiso   1.00
N414   N     0.00020   0.31888   0.09029   0.00000  Uiso   1.00
C415   C     0.26860   0.94411   0.49427   0.00000  Uiso   1.00
C416   C     0.20797   0.93963   0.53078   0.00000  Uiso   1.00
C417   C     0.14213   0.90985   0.52204   0.00000  Uiso   1.00
C418   C     0.09387   0.91097   0.56017   0.00000  Uiso   1.00
C419   C     0.99712   0.89952   0.60997   0.00000  Uiso   1.00
C420   C     0.28774   0.02223   0.49056   0.00000  Uiso   1.00
C421   C     0.28898   0.06189   0.44799   0.00000  Uiso   1.00
C422   C     0.30788   0.13254   0.45226   0.00000  Uiso   1.00
C423   C     0.33503   0.24931   0.43961   0.00000  Uiso   1.00
C424   C     0.33158   0.90813   0.51853   0.00000  Uiso   1.00
C425   C     0.36970   0.85186   0.49948   0.00000  Uiso   1.00
C426   C     0.42552   0.82645   0.52729   0.00000  Uiso   1.00
C427   C     0.52074   0.76606   0.55807   0.00000  Uiso   1.00
C428   C     0.29996   0.99907   0.57753   0.00000  Uiso   1.00
C429   C     0.22500   0.96949   0.57600   0.00000  Uiso   1.00
C430   C     0.17683   0.97066   0.61415   0.00000  Uiso   1.00
C431   C     0.11093   0.94088   0.60547   0.00000  Uiso   1.00
C432   C     0.30477   0.05209   0.53577   0.00000  Uiso   1.00
C433   C     0.32368   0.12270   0.54011   0.00000  Uiso   1.00
C434   C     0.32494   0.16245   0.49756   0.00000  Uiso   1.00
C435   C     0.34862   0.93798   0.56375   0.00000  Uiso   1.00
C436   C     0.40440   0.91266   0.59159   0.00000  Uiso   1.00
C437   C     0.44259   0.85636   0.57259   0.00000  Uiso   1.00
H438   H     0.25534   0.92087   0.45906   0.00000  Uiso   1.00
H439   H     0.12897   0.88676   0.48704   0.00000  Uiso   1.00
H440   H     0.27580   0.03877   0.41300   0.00000  Uiso   1.00
H441   H     0.35650   0.82877   0.46448   0.00000  Uiso   1.00
H442   H     0.99636   0.86213   0.53799   0.00000  Uiso   1.00
H443   H     0.30600   0.18264   0.38188   0.00000  Uiso   1.00
H444   H     0.47618   0.73982   0.49043   0.00000  Uiso   1.00
H445   H     0.31323   0.02231   0.61273   0.00000  Uiso   1.00
H446   H     0.19003   0.99376   0.64914   0.00000  Uiso   1.00
H447   H     0.33686   0.14578   0.57511   0.00000  Uiso   1.00
H448   H     0.41756   0.93578   0.62658   0.00000  Uiso   1.00
H449   H     0.04592   0.94898   0.66956   0.00000  Uiso   1.00
H450   H     0.35556   0.26950   0.51345   0.00000  Uiso   1.00
H451   H     0.52573   0.82667   0.62200   0.00000  Uiso   1.00
O452   O     0.93905   0.88496   0.62495   0.00000  Uiso   1.00
O453   O     0.34528   0.30547   0.42014   0.00000  Uiso   1.00
O454   O     0.56855   0.72449   0.56255   0.00000  Uiso   1.00
N455   N     0.02494   0.88647   0.56396   0.00000  Uiso   1.00
N456   N     0.31442   0.18614   0.41801   0.00000  Uiso   1.00
N457   N     0.47353   0.77215   0.51949   0.00000  Uiso   1.00
N458   N     0.05161   0.93321   0.63476   0.00000  Uiso   1.00
N459   N     0.34108   0.23288   0.48881   0.00000  Uiso   1.00
N460   N     0.50020   0.81888   0.59029   0.00000  Uiso   1.00
C461   C     0.23140   0.55589   0.99427   0.00000  Uiso   1.00
C462   C     0.29203   0.56037   0.03078   0.00000  Uiso   1.00
C463   C     0.35787   0.59015   0.02204   0.00000  Uiso   1.00
C464   C     0.40613   0.58903   0.06017   0.00000  Uiso   1.00
C465   C     0.50288   0.60048   0.10997   0.00000  Uiso   1.00
C466   C     0.21226   0.47777   0.99056   0.00000  Uiso   1.00
C467   C     0.21102   0.43811   0.94799   0.00000  Uiso   1.00
C468   C     0.19212   0.36746   0.95226   0.00000  Uiso   1.00
C469   C     0.16497   0.25069   0.93961   0.00000  Uiso   1.00
C470   C     0.16842   0.59187   0.01853   0.00000  Uiso   1.00
C471   C     0.13030   0.64814   0.99948   0.00000  Uiso   1.00
C472   C     0.07448   0.67355   0.02729   0.00000  Uiso   1.00
C473   C     0.97926   0.73394   0.05807   0.00000  Uiso   1.00
C474   C     0.20004   0.50093   0.07753   0.00000  Uiso   1.00
C475   C     0.27500   0.53051   0.07600   0.00000  Uiso   1.00
C476   C     0.32317   0.52934   0.11415   0.00000  Uiso   1.00
C477   C     0.38907   0.55912   0.10547   0.00000  Uiso   1.00
C478   C     0.19523   0.44791   0.03577   0.00000  Uiso   1.00
C479   C     0.17632   0.37730   0.04011   0.00000  Uiso   1.00
C480   C     0.17506   0.33755   0.99756   0.00000  Uiso   1.00
C481   C     0.15138   0.56202   0.06375   0.00000  Uiso   1.00
C482   C     0.09560   0.58734   0.09159   0.00000  Uiso   1.00
C483   C     0.05741   0.64364   0.07259   0.00000  Uiso   1.00
H484   H     0.24466   0.57913   0.95906   0.00000  Uiso   1.00
H485   H     0.37103   0.61324   0.98704   0.00000  Uiso   1.00
H486   H     0.22420   0.46123   0.91300   0.00000  Uiso   1.00
H487   H     0.14350   0.67123   0.96448   0.00000  Uiso   1.00
H488   H     0.50364   0.63787   0.03799   0.00000  Uiso   1.00
H489   H     0.19400   0.31736   0.88188   0.00000  Uiso   1.00
H490   H     0.02382   0.76018   0.99043   0.00000  Uiso   1.00
H491   H     0.18677   0.47769   0.11273   0.00000  Uiso   1.00
H492   H     0.30997   0.50624   0.14914   0.00000  Uiso   1.00
H493   H     0.16314   0.35422   0.07511   0.00000  Uiso   1.00
H494   H     0.08244   0.56422   0.12658   0.00000  Uiso   1.00
H495   H     0.45408   0.55102   0.16956   0.00000  Uiso   1.00
H496   H     0.14444   0.23050   0.01345   0.00000  Uiso   1.00
H497   H     0.97427   0.67333   0.12200   0.00000  Uiso   1.00
O498   O     0.56095   0.61504   0.12495   0.00000  Uiso   1.00
O499   O     0.15472   0.19453   0.92014   0.00000  Uiso   1.00
O500   O     0.93145   0.77551   0.06255   0.00000  Uiso   1.00
N501   N     0.47506   0.61353   0.06396   0.00000  Uiso   1.00
N502   N     0.18558   0.31386   0.91801   0.00000  Uiso   1.00
N503   N     0.02647   0.72785   0.01949   0.00000  Uiso   1.00
N504   N     0.44839   0.56679   0.13476   0.00000  Uiso   1.00
N505   N     0.15892   0.26712   0.98881   0.00000  Uiso   1.00
N506   N     0.99980   0.68112   0.09029   0.00000  Uiso   1.00
C507   C     0.73140   0.05589   0.49427   0.00000  Uiso   1.00
C508   C     0.79203   0.06037   0.53078   0.00000  Uiso   1.00
C509   C     0.85787   0.09015   0.52204   0.00000  Uiso   1.00
C510   C     0.90613   0.08903   0.56017   0.00000  Uiso   1.00
C511   C     0.00288   0.10048   0.60997   0.00000  Uiso   1.00
C512   C     0.71226   0.97777   0.49056   0.00000  Uiso   1.00
C513   C     0.71102   0.93811   0.44799   0.00000  Uiso   1.00
C514   C     0.69212   0.86746   0.45226   0.00000  Uiso   1.00
C515   C     0.66497   0.75069   0.43961   0.00000  Uiso   1.00
C516   C     0.66842   0.09187   0.51853   0.00000  Uiso   1.00
C517   C     0.63030   0.14814   0.49948   0.00000  Uiso   1.00
C518   C     0.57448   0.17355   0.52729   0.00000  Uiso   1.00
C519   C     0.47926   0.23394   0.55807   0.00000  Uiso   1.00
C520   C     0.70004   0.00093   0.57753   0.00000  Uiso   1.00
C521   C     0.77500   0.03051   0.57600   0.00000  Uiso   1.00
C522   C     0.82317   0.02934   0.61415   0.00000  Uiso   1.00
C523   C     0.88907   0.05912   0.60547   0.00000  Uiso   1.00
C524   C     0.69523   0.94791   0.53577   0.00000  Uiso   1.00
C525   C     0.67632   0.87730   0.54011   0.00000  Uiso   1.00
C526   C     0.67506   0.83755   0.49756   0.00000  Uiso   1.00
C527   C     0.65138   0.06202   0.56375   0.00000  Uiso   1.00
C528   C     0.59560   0.08734   0.59159   0.00000  Uiso   1.00
C529   C     0.55741   0.14364   0.57259   0.00000  Uiso   1.00
H530   H     0.74466   0.07913   0.45906   0.00000  Uiso   1.00
H531   H     0.87103   0.11324   0.48704   0.00000  Uiso   1.00
H532   H     0.72420   0.96123   0.41300   0.00000  Uiso   1.00
H533   H     0.64350   0.17123   0.46448   0.00000  Uiso   1.00
H534   H     0.00364   0.13787   0.53799   0.00000  Uiso   1.00
H535   H     0.69400   0.81736   0.38188   0.00000  Uiso   1.00
H536   H     0.52382   0.26018   0.49043   0.00000  Uiso   1.00
H537   H     0.68677   0.97769   0.61273   0.00000  Uiso   1.00
H538   H     0.80997   0.00624   0.64914   0.00000  Uiso   1.00
H539   H     0.66314   0.85422   0.57511   0.00000  Uiso   1.00
H540   H     0.58244   0.06422   0.62658   0.00000  Uiso   1.00
H541   H     0.95408   0.05102   0.66956   0.00000  Uiso   1.00
H542   H     0.64444   0.73050   0.51345   0.00000  Uiso   1.00
H543   H     0.47427   0.17333   0.62200   0.00000  Uiso   1.00
O544   O     0.06095   0.11504   0.62495   0.00000  Uiso   1.00
O545   O     0.65472   0.69453   0.42014   0.00000  Uiso   1.00
O546   O     0.43145   0.27551   0.56255   0.00000  Uiso   1.00
N547   N     0.97506   0.11353   0.56396   0.00000  Uiso   1.00
N548   N     0.68558   0.81386   0.41801   0.00000  Uiso   1.00
N549   N     0.52647   0.22785   0.51949   0.00000  Uiso   1.00
N550   N     0.94839   0.06679   0.63476   0.00000  Uiso   1.00
N551   N     0.65892   0.76712   0.48881   0.00000  Uiso   1.00
N552   N     0.49980   0.18112   0.59029   0.00000  Uiso   1.00
C553   C     0.05589   0.26860   0.50573   0.00000  Uiso   1.00
C554   C     0.06037   0.20797   0.46922   0.00000  Uiso   1.00
C555   C     0.09015   0.14213   0.47796   0.00000  Uiso   1.00
C556   C     0.08903   0.09387   0.43983   0.00000  Uiso   1.00
C557   C     0.10048   0.99712   0.39003   0.00000  Uiso   1.00
C558   C     0.97777   0.28774   0.50944   0.00000  Uiso   1.00
C559   C     0.93811   0.28898   0.55201   0.00000  Uiso   1.00
C560   C     0.86746   0.30788   0.54774   0.00000  Uiso   1.00
C561   C     0.75069   0.33503   0.56039   0.00000  Uiso   1.00
C562   C     0.09187   0.33158   0.48147   0.00000  Uiso   1.00
C563   C     0.14814   0.36970   0.50052   0.00000  Uiso   1.00
C564   C     0.17355   0.42552   0.47271   0.00000  Uiso   1.00
C565   C     0.23394   0.52074   0.44193   0.00000  Uiso   1.00
C566   C     0.00093   0.29996   0.42247   0.00000  Uiso   1.00
C567   C     0.03051   0.22500   0.42400   0.00000  Uiso   1.00
C568   C     0.02934   0.17683   0.38585   0.00000  Uiso   1.00
C569   C     0.05912   0.11093   0.39453   0.00000  Uiso   1.00
C570   C     0.94791   0.30477   0.46423   0.00000  Uiso   1.00
C571   C     0.87730   0.32368   0.45989   0.00000  Uiso   1.00
C572   C     0.83755   0.32494   0.50244   0.00000  Uiso   1.00
C573   C     0.06202   0.34862   0.43625   0.00000  Uiso   1.00
C574   C     0.08734   0.40440   0.40841   0.00000  Uiso   1.00
C575   C     0.14364   0.44259   0.42741   0.00000  Uiso   1.00
H576   H     0.07913   0.25534   0.54094   0.00000  Uiso   1.00
H577   H     0.11324   0.12897   0.51296   0.00000  Uiso   1.00
H578   H     0.96123   0.27580   0.58700   0.00000  Uiso   1.00
H579   H     0.17123   0.35650   0.53552   0.00000  Uiso   1.00
H580   H     0.13787   0.99636   0.46201   0.00000  Uiso   1.00
H581   H     0.81736   0.30600   0.61812   0.00000  Uiso   1.00
H582   H     0.26018   0.47618   0.50957   0.00000  Uiso   1.00
H583   H     0.97769   0.31323   0.38727   0.00000  Uiso   1.00
H584   H     0.00624   0.19003   0.35086   0.00000  Uiso   1.00
H585   H     0.85422   0.33686   0.42489   0.00000  Uiso   1.00
H586   H     0.06422   0.41756   0.37342   0.00000  Uiso   1.00
H587   H     0.05102   0.04592   0.33044   0.00000  Uiso   1.00
H588   H     0.73050   0.35556   0.48655   0.00000  Uiso   1.00
H589   H     0.17333   0.52573   0.37800   0.00000  Uiso   1.00
O590   O     0.11504   0.93905   0.37505   0.00000  Uiso   1.00
O591   O     0.69453   0.34528   0.57986   0.00000  Uiso   1.00
O592   O     0.27551   0.56855   0.43745   0.00000  Uiso   1.00
N593   N     0.11353   0.02494   0.43604   0.00000  Uiso   1.00
N594   N     0.81386   0.31442   0.58199   0.00000  Uiso   1.00
N595   N     0.22785   0.47353   0.48051   0.00000  Uiso   1.00
N596   N     0.06679   0.05161   0.36524   0.00000  Uiso   1.00
N597   N     0.76712   0.34108   0.51119   0.00000  Uiso   1.00
N598   N     0.18112   0.50020   0.40971   0.00000  Uiso   1.00
C599   C     0.55589   0.76860   0.00573   0.00000  Uiso   1.00
C600   C     0.56037   0.70797   0.96922   0.00000  Uiso   1.00
C601   C     0.59015   0.64213   0.97796   0.00000  Uiso   1.00
C602   C     0.58903   0.59387   0.93983   0.00000  Uiso   1.00
C603   C     0.60048   0.49712   0.89003   0.00000  Uiso   1.00
C604   C     0.47777   0.78774   0.00944   0.00000  Uiso   1.00
C605   C     0.43811   0.78898   0.05201   0.00000  Uiso   1.00
C606   C     0.36746   0.80788   0.04774   0.00000  Uiso   1.00
C607   C     0.25069   0.83503   0.06039   0.00000  Uiso   1.00
C608   C     0.59187   0.83158   0.98147   0.00000  Uiso   1.00
C609   C     0.64814   0.86970   0.00052   0.00000  Uiso   1.00
C610   C     0.67355   0.92552   0.97271   0.00000  Uiso   1.00
C611   C     0.73394   0.02074   0.94193   0.00000  Uiso   1.00
C612   C     0.50093   0.79996   0.92247   0.00000  Uiso   1.00
C613   C     0.53051   0.72500   0.92400   0.00000  Uiso   1.00
C614   C     0.52934   0.67683   0.88585   0.00000  Uiso   1.00
C615   C     0.55912   0.61093   0.89453   0.00000  Uiso   1.00
C616   C     0.44791   0.80477   0.96423   0.00000  Uiso   1.00
C617   C     0.37730   0.82368   0.95989   0.00000  Uiso   1.00
C618   C     0.33755   0.82494   0.00244   0.00000  Uiso   1.00
C619   C     0.56202   0.84862   0.93625   0.00000  Uiso   1.00
C620   C     0.58734   0.90440   0.90841   0.00000  Uiso   1.00
C621   C     0.64364   0.94259   0.92741   0.00000  Uiso   1.00
H622   H     0.57913   0.75534   0.04094   0.00000  Uiso   1.00
H623   H     0.61324   0.62897   0.01296   0.00000  Uiso   1.00
H624   H     0.46123   0.77580   0.08700   0.00000  Uiso   1.00
H625   H     0.67123   0.85650   0.03552   0.00000  Uiso   1.00
H626   H     0.63787   0.49636   0.96201   0.00000  Uiso   1.00
H627   H     0.31736   0.80600   0.11812   0.00000  Uiso   1.00
H628   H     0.76018   0.97618   0.00957   0.00000  Uiso   1.00
H629   H     0.47769   0.81323   0.88727   0.00000  Uiso   1.00
H630   H     0.50624   0.69003   0.85086   0.00000  Uiso   1.00
H631   H     0.35422   0.83686   0.92489   0.00000  Uiso   1.00
H632   H     0.56422   0.91756   0.87342   0.00000  Uiso   1.00
H633   H     0.55102   0.54592   0.83044   0.00000  Uiso   1.00
H634   H     0.23050   0.85556   0.98655   0.00000  Uiso   1.00
H635   H     0.67333   0.02573   0.87800   0.00000  Uiso   1.00
O636   O     0.61504   0.43905   0.87505   0.00000  Uiso   1.00
O637   O     0.19453   0.84528   0.07986   0.00000  Uiso   1.00
O638   O     0.77551   0.06855   0.93745   0.00000  Uiso   1.00
N639   N     0.61353   0.52494   0.93604   0.00000  Uiso   1.00
N640   N     0.31386   0.81442   0.08199   0.00000  Uiso   1.00
N641   N     0.72785   0.97353   0.98051   0.00000  Uiso   1.00
N642   N     0.56679   0.55161   0.86524   0.00000  Uiso   1.00
N643   N     0.26712   0.84108   0.01119   0.00000  Uiso   1.00
N644   N     0.68112   0.00020   0.90971   0.00000  Uiso   1.00
C645   C     0.94411   0.73140   0.50573   0.00000  Uiso   1.00
C646   C     0.93963   0.79203   0.46922   0.00000  Uiso   1.00
C647   C     0.90985   0.85787   0.47796   0.00000  Uiso   1.00
C648   C     0.91097   0.90613   0.43983   0.00000  Uiso   1.00
C649   C     0.89952   0.00288   0.39003   0.00000  Uiso   1.00
C650   C     0.02223   0.71226   0.50944   0.00000  Uiso   1.00
C651   C     0.06189   0.71102   0.55201   0.00000  Uiso   1.00
C652   C     0.13254   0.69212   0.54774   0.00000  Uiso   1.00
C653   C     0.24931   0.66497   0.56039   0.00000  Uiso   1.00
C654   C     0.90813   0.66842   0.48147   0.00000  Uiso   1.00
C655   C     0.85186   0.63030   0.50052   0.00000  Uiso   1.00
C656   C     0.82645   0.57448   0.47271   0.00000  Uiso   1.00
C657   C     0.76606   0.47926   0.44193   0.00000  Uiso   1.00
C658   C     0.99907   0.70004   0.42247   0.00000  Uiso   1.00
C659   C     0.96949   0.77500   0.42400   0.00000  Uiso   1.00
C660   C     0.97066   0.82317   0.38585   0.00000  Uiso   1.00
C661   C     0.94088   0.88907   0.39453   0.00000  Uiso   1.00
C662   C     0.05209   0.69523   0.46423   0.00000  Uiso   1.00
C663   C     0.12270   0.67632   0.45989   0.00000  Uiso   1.00
C664   C     0.16245   0.67506   0.50244   0.00000  Uiso   1.00
C665   C     0.93798   0.65138   0.43625   0.00000  Uiso   1.00
C666   C     0.91266   0.59560   0.40841   0.00000  Uiso   1.00
C667   C     0.85636   0.55741   0.42741   0.00000  Uiso   1.00
H668   H     0.92087   0.74466   0.54094   0.00000  Uiso   1.00
H669   H     0.88676   0.87103   0.51296   0.00000  Uiso   1.00
H670   H     0.03877   0.72420   0.58700   0.00000  Uiso   1.00
H671   H     0.82877   0.64350   0.53552   0.00000  Uiso   1.00
H672   H     0.86213   0.00364   0.46201   0.00000  Uiso   1.00
H673   H     0.18264   0.69400   0.61812   0.00000  Uiso   1.00
H674   H     0.73982   0.52382   0.50957   0.00000  Uiso   1.00
H675   H     0.02231   0.68677   0.38727   0.00000  Uiso   1.00
H676   H     0.99376   0.80997   0.35086   0.00000  Uiso   1.00
H677   H     0.14578   0.66314   0.42489   0.00000  Uiso   1.00
H678   H     0.93578   0.58244   0.37342   0.00000  Uiso   1.00
H679   H     0.94898   0.95408   0.33044   0.00000  Uiso   1.00
H680   H     0.26950   0.64444   0.48655   0.00000  Uiso   1.00
H681   H     0.82667   0.47427   0.37800   0.00000  Uiso   1.00
O682   O     0.88496   0.06095   0.37505   0.00000  Uiso   1.00
O683   O     0.30547   0.65472   0.57986   0.00000  Uiso   1.00
O684   O     0.72449   0.43145   0.43745   0.00000  Uiso   1.00
N685   N     0.88647   0.97506   0.43604   0.00000  Uiso   1.00
N686   N     0.18614   0.68558   0.58199   0.00000  Uiso   1.00
N687   N     0.77215   0.52647   0.48051   0.00000  Uiso   1.00
N688   N     0.93321   0.94839   0.36524   0.00000  Uiso   1.00
N689   N     0.23288   0.65892   0.51119   0.00000  Uiso   1.00
N690   N     0.81888   0.49980   0.40971   0.00000  Uiso   1.00
C691   C     0.44411   0.23140   0.00573   0.00000  Uiso   1.00
C692   C     0.43963   0.29203   0.96922   0.00000  Uiso   1.00
C693   C     0.40985   0.35787   0.97796   0.00000  Uiso   1.00
C694   C     0.41097   0.40613   0.93983   0.00000  Uiso   1.00
C695   C     0.39952   0.50288   0.89003   0.00000  Uiso   1.00
C696   C     0.52223   0.21226   0.00944   0.00000  Uiso   1.00
C697   C     0.56189   0.21102   0.05201   0.00000  Uiso   1.00
C698   C     0.63254   0.19212   0.04774   0.00000  Uiso   1.00
C699   C     0.74931   0.16497   0.06039   0.00000  Uiso   1.00
C700   C     0.40813   0.16842   0.98147   0.00000  Uiso   1.00
C701   C     0.35186   0.13030   0.00052   0.00000  Uiso   1.00
C702   C     0.32645   0.07448   0.97271   0.00000  Uiso   1.00
C703   C     0.26606   0.97926   0.94193   0.00000  Uiso   1.00
C704   C     0.49907   0.20004   0.92247   0.00000  Uiso   1.00
C705   C     0.46949   0.27500   0.92400   0.00000  Uiso   1.00
C706   C     0.47066   0.32317   0.88585   0.00000  Uiso   1.00
C707   C     0.44088   0.38907   0.89453   0.00000  Uiso   1.00
C708   C     0.55209   0.19523   0.96423   0.00000  Uiso   1.00
C709   C     0.62270   0.17632   0.95989   0.00000  Uiso   1.00
C710   C     0.66245   0.17506   0.00244   0.00000  Uiso   1.00
C711   C     0.43798   0.15138   0.93625   0.00000  Uiso   1.00
C712   C     0.41266   0.09560   0.90841   0.00000  Uiso   1.00
C713   C     0.35636   0.05741   0.92741   0.00000  Uiso   1.00
H714   H     0.42087   0.24466   0.04094   0.00000  Uiso   1.00
H715   H     0.38676   0.37103   0.01296   0.00000  Uiso   1.00
H716   H     0.53877   0.22420   0.08700   0.00000  Uiso   1.00
H717   H     0.32877   0.14350   0.03552   0.00000  Uiso   1.00
H718   H     0.36213   0.50364   0.96201   0.00000  Uiso   1.00
H719   H     0.68264   0.19400   0.11812   0.00000  Uiso   1.00
H720   H     0.23982   0.02382   0.00957   0.00000  Uiso   1.00
H721   H     0.52231   0.18677   0.88727   0.00000  Uiso   1.00
H722   H     0.49376   0.30997   0.85086   0.00000  Uiso   1.00
H723   H     0.64578   0.16314   0.92489   0.00000  Uiso   1.00
H724   H     0.43578   0.08244   0.87342   0.00000  Uiso   1.00
H725   H     0.44898   0.45408   0.83044   0.00000  Uiso   1.00
H726   H     0.76950   0.14444   0.98655   0.00000  Uiso   1.00
H727   H     0.32667   0.97427   0.87800   0.00000  Uiso   1.00
O728   O     0.38496   0.56095   0.87505   0.00000  Uiso   1.00
O729   O     0.80547   0.15472   0.07986   0.00000  Uiso   1.00
O730   O     0.22449   0.93145   0.93745   0.00000  Uiso   1.00
N731   N     0.38647   0.47506   0.93604   0.00000  Uiso   1.00
N732   N     0.68614   0.18558   0.08199   0.00000  Uiso   1.00
N733   N     0.27215   0.02647   0.98051   0.00000  Uiso   1.00
N734   N     0.43321   0.44839   0.86524   0.00000  Uiso   1.00
N735   N     0.73288   0.15892   0.01119   0.00000  Uiso   1.00
N736   N     0.31888   0.99980   0.90971   0.00000  Uiso   1.00
