data_job_02580
_audit_creation_date              2018-12-19
_audit_creation_method            'Materials Studio'
_symmetry_space_group_name_H-M    'P1'
_symmetry_Int_Tables_number       1
_symmetry_cell_setting            triclinic
loop_
_symmetry_equiv_pos_as_xyz
  x,y,z
_cell_length_a                    33.2890
_cell_length_b                    33.2890
_cell_length_c                    11.9567
_cell_angle_alpha                 90.0000
_cell_angle_beta                  90.0000
_cell_angle_gamma                 90.0000
loop_
_atom_site_label
_atom_site_type_symbol
_atom_site_fract_x
_atom_site_fract_y
_atom_site_fract_z
_atom_site_U_iso_or_equiv
_atom_site_adp_type
_atom_site_occupancy
C1     C     0.59538   0.28427   0.25086   0.00000  Uiso   1.00
C2     C     0.58251   0.28903   0.12919   0.00000  Uiso   1.00
C3     C     0.54817   0.30860   0.09223   0.00000  Uiso   1.00
C4     C     0.54173   0.30968   0.97754   0.00000  Uiso   1.00
C5     C     0.51763   0.31978   0.80001   0.00000  Uiso   1.00
C6     C     0.60012   0.23924   0.27023   0.00000  Uiso   1.00
C7     C     0.58061   0.21695   0.35188   0.00000  Uiso   1.00
C8     C     0.58901   0.17612   0.35594   0.00000  Uiso   1.00
C9     C     0.59228   0.10892   0.39744   0.00000  Uiso   1.00
C10    C     0.63752   0.30201   0.25863   0.00000  Uiso   1.00
C11    C     0.64945   0.33249   0.33054   0.00000  Uiso   1.00
C12    C     0.68933   0.34450   0.32484   0.00000  Uiso   1.00
C13    C     0.75067   0.37476   0.34832   0.00000  Uiso   1.00
C14    C     0.64501   0.25141   0.11290   0.00000  Uiso   1.00
C15    C     0.60946   0.27118   0.05425   0.00000  Uiso   1.00
C16    C     0.60308   0.27224   0.93959   0.00000  Uiso   1.00
C17    C     0.56874   0.29181   0.90247   0.00000  Uiso   1.00
C18    C     0.62708   0.22140   0.19530   0.00000  Uiso   1.00
C19    C     0.63552   0.18059   0.19924   0.00000  Uiso   1.00
C20    C     0.61602   0.15824   0.28087   0.00000  Uiso   1.00
C21    C     0.66448   0.28417   0.18369   0.00000  Uiso   1.00
C22    C     0.70436   0.29613   0.17789   0.00000  Uiso   1.00
C23    C     0.71634   0.32662   0.24977   0.00000  Uiso   1.00
H24    H     0.57439   0.29817   0.30921   0.00000  Uiso   1.00
H25    H     0.52731   0.32240   0.15025   0.00000  Uiso   1.00
H26    H     0.55975   0.23077   0.40987   0.00000  Uiso   1.00
H27    H     0.62857   0.34629   0.38851   0.00000  Uiso   1.00
H28    H     0.48700   0.34139   0.94097   0.00000  Uiso   1.00
H29    H     0.55540   0.14818   0.48841   0.00000  Uiso   1.00
H30    H     0.70054   0.39179   0.44339   0.00000  Uiso   1.00
H31    H     0.66600   0.23751   0.05456   0.00000  Uiso   1.00
H32    H     0.62395   0.25843   0.88162   0.00000  Uiso   1.00
H33    H     0.65638   0.16679   0.14124   0.00000  Uiso   1.00
H34    H     0.72521   0.28232   0.11989   0.00000  Uiso   1.00
H35    H     0.56543   0.28947   0.72294   0.00000  Uiso   1.00
H36    H     0.63383   0.09625   0.27039   0.00000  Uiso   1.00
H37    H     0.77897   0.33986   0.22536   0.00000  Uiso   1.00
O38    O     0.49689   0.33027   0.72279   0.00000  Uiso   1.00
O39    O     0.58664   0.07678   0.44103   0.00000  Uiso   1.00
O40    O     0.77705   0.39639   0.38196   0.00000  Uiso   1.00
N41    N     0.51123   0.32631   0.91339   0.00000  Uiso   1.00
N42    N     0.57518   0.14566   0.42520   0.00000  Uiso   1.00
N43    N     0.71087   0.37341   0.38314   0.00000  Uiso   1.00
N44    N     0.55344   0.29837   0.79607   0.00000  Uiso   1.00
N45    N     0.61738   0.11772   0.30788   0.00000  Uiso   1.00
N46    N     0.75308   0.34547   0.26582   0.00000  Uiso   1.00
C47    C     0.09538   0.78427   0.75086   0.00000  Uiso   1.00
C48    C     0.08251   0.78903   0.62919   0.00000  Uiso   1.00
C49    C     0.04817   0.80860   0.59223   0.00000  Uiso   1.00
C50    C     0.04173   0.80968   0.47754   0.00000  Uiso   1.00
C51    C     0.01763   0.81978   0.30001   0.00000  Uiso   1.00
C52    C     0.10012   0.73924   0.77023   0.00000  Uiso   1.00
C53    C     0.08061   0.71695   0.85188   0.00000  Uiso   1.00
C54    C     0.08901   0.67612   0.85594   0.00000  Uiso   1.00
C55    C     0.09228   0.60892   0.89744   0.00000  Uiso   1.00
C56    C     0.13752   0.80201   0.75863   0.00000  Uiso   1.00
C57    C     0.14945   0.83249   0.83054   0.00000  Uiso   1.00
C58    C     0.18933   0.84450   0.82484   0.00000  Uiso   1.00
C59    C     0.25067   0.87476   0.84832   0.00000  Uiso   1.00
C60    C     0.14501   0.75141   0.61290   0.00000  Uiso   1.00
C61    C     0.10946   0.77118   0.55425   0.00000  Uiso   1.00
C62    C     0.10308   0.77224   0.43959   0.00000  Uiso   1.00
C63    C     0.06874   0.79181   0.40247   0.00000  Uiso   1.00
C64    C     0.12708   0.72140   0.69530   0.00000  Uiso   1.00
C65    C     0.13552   0.68059   0.69924   0.00000  Uiso   1.00
C66    C     0.11602   0.65824   0.78087   0.00000  Uiso   1.00
C67    C     0.16448   0.78417   0.68369   0.00000  Uiso   1.00
C68    C     0.20436   0.79613   0.67789   0.00000  Uiso   1.00
C69    C     0.21634   0.82662   0.74977   0.00000  Uiso   1.00
H70    H     0.07439   0.79817   0.80921   0.00000  Uiso   1.00
H71    H     0.02731   0.82240   0.65025   0.00000  Uiso   1.00
H72    H     0.05975   0.73077   0.90987   0.00000  Uiso   1.00
H73    H     0.12857   0.84629   0.88851   0.00000  Uiso   1.00
H74    H     0.98700   0.84139   0.44097   0.00000  Uiso   1.00
H75    H     0.05540   0.64818   0.98841   0.00000  Uiso   1.00
H76    H     0.20054   0.89179   0.94339   0.00000  Uiso   1.00
H77    H     0.16600   0.73751   0.55456   0.00000  Uiso   1.00
H78    H     0.12395   0.75843   0.38162   0.00000  Uiso   1.00
H79    H     0.15638   0.66679   0.64124   0.00000  Uiso   1.00
H80    H     0.22521   0.78232   0.61989   0.00000  Uiso   1.00
H81    H     0.06543   0.78947   0.22294   0.00000  Uiso   1.00
H82    H     0.13383   0.59625   0.77039   0.00000  Uiso   1.00
H83    H     0.27897   0.83986   0.72536   0.00000  Uiso   1.00
O84    O     0.99689   0.83027   0.22279   0.00000  Uiso   1.00
O85    O     0.08664   0.57678   0.94103   0.00000  Uiso   1.00
O86    O     0.27705   0.89639   0.88196   0.00000  Uiso   1.00
N87    N     0.01123   0.82631   0.41339   0.00000  Uiso   1.00
N88    N     0.07518   0.64566   0.92520   0.00000  Uiso   1.00
N89    N     0.21087   0.87341   0.88314   0.00000  Uiso   1.00
N90    N     0.05344   0.79837   0.29607   0.00000  Uiso   1.00
N91    N     0.11738   0.61772   0.80788   0.00000  Uiso   1.00
N92    N     0.25308   0.84547   0.76582   0.00000  Uiso   1.00
C93    C     0.90462   0.21573   0.75086   0.00000  Uiso   1.00
C94    C     0.91749   0.21097   0.62919   0.00000  Uiso   1.00
C95    C     0.95183   0.19140   0.59223   0.00000  Uiso   1.00
C96    C     0.95827   0.19032   0.47754   0.00000  Uiso   1.00
C97    C     0.98237   0.18022   0.30001   0.00000  Uiso   1.00
C98    C     0.89988   0.26076   0.77023   0.00000  Uiso   1.00
C99    C     0.91939   0.28305   0.85188   0.00000  Uiso   1.00
C100   C     0.91099   0.32388   0.85594   0.00000  Uiso   1.00
C101   C     0.90772   0.39108   0.89744   0.00000  Uiso   1.00
C102   C     0.86248   0.19799   0.75863   0.00000  Uiso   1.00
C103   C     0.85055   0.16751   0.83054   0.00000  Uiso   1.00
C104   C     0.81067   0.15550   0.82484   0.00000  Uiso   1.00
C105   C     0.74933   0.12524   0.84832   0.00000  Uiso   1.00
C106   C     0.85499   0.24859   0.61290   0.00000  Uiso   1.00
C107   C     0.89054   0.22882   0.55425   0.00000  Uiso   1.00
C108   C     0.89692   0.22776   0.43959   0.00000  Uiso   1.00
C109   C     0.93126   0.20819   0.40247   0.00000  Uiso   1.00
C110   C     0.87292   0.27860   0.69530   0.00000  Uiso   1.00
C111   C     0.86448   0.31941   0.69924   0.00000  Uiso   1.00
C112   C     0.88398   0.34176   0.78087   0.00000  Uiso   1.00
C113   C     0.83552   0.21583   0.68369   0.00000  Uiso   1.00
C114   C     0.79564   0.20387   0.67789   0.00000  Uiso   1.00
C115   C     0.78366   0.17338   0.74977   0.00000  Uiso   1.00
H116   H     0.92561   0.20183   0.80921   0.00000  Uiso   1.00
H117   H     0.97269   0.17760   0.65025   0.00000  Uiso   1.00
H118   H     0.94025   0.26923   0.90987   0.00000  Uiso   1.00
H119   H     0.87143   0.15371   0.88851   0.00000  Uiso   1.00
H120   H     0.01300   0.15861   0.44097   0.00000  Uiso   1.00
H121   H     0.94460   0.35182   0.98841   0.00000  Uiso   1.00
H122   H     0.79946   0.10821   0.94339   0.00000  Uiso   1.00
H123   H     0.83400   0.26249   0.55456   0.00000  Uiso   1.00
H124   H     0.87605   0.24157   0.38162   0.00000  Uiso   1.00
H125   H     0.84362   0.33321   0.64124   0.00000  Uiso   1.00
H126   H     0.77479   0.21768   0.61989   0.00000  Uiso   1.00
H127   H     0.93457   0.21053   0.22294   0.00000  Uiso   1.00
H128   H     0.86617   0.40375   0.77039   0.00000  Uiso   1.00
H129   H     0.72103   0.16014   0.72536   0.00000  Uiso   1.00
O130   O     0.00311   0.16973   0.22279   0.00000  Uiso   1.00
O131   O     0.91336   0.42322   0.94103   0.00000  Uiso   1.00
O132   O     0.72295   0.10361   0.88196   0.00000  Uiso   1.00
N133   N     0.98877   0.17369   0.41339   0.00000  Uiso   1.00
N134   N     0.92482   0.35434   0.92520   0.00000  Uiso   1.00
N135   N     0.78913   0.12659   0.88314   0.00000  Uiso   1.00
N136   N     0.94656   0.20163   0.29607   0.00000  Uiso   1.00
N137   N     0.88262   0.38228   0.80788   0.00000  Uiso   1.00
N138   N     0.74692   0.15453   0.76582   0.00000  Uiso   1.00
C139   C     0.40462   0.71573   0.25086   0.00000  Uiso   1.00
C140   C     0.41749   0.71097   0.12919   0.00000  Uiso   1.00
C141   C     0.45183   0.69140   0.09223   0.00000  Uiso   1.00
C142   C     0.45827   0.69032   0.97754   0.00000  Uiso   1.00
C143   C     0.48237   0.68022   0.80001   0.00000  Uiso   1.00
C144   C     0.39988   0.76076   0.27023   0.00000  Uiso   1.00
C145   C     0.41939   0.78305   0.35188   0.00000  Uiso   1.00
C146   C     0.41099   0.82388   0.35594   0.00000  Uiso   1.00
C147   C     0.40772   0.89108   0.39744   0.00000  Uiso   1.00
C148   C     0.36248   0.69799   0.25863   0.00000  Uiso   1.00
C149   C     0.35055   0.66751   0.33054   0.00000  Uiso   1.00
C150   C     0.31067   0.65550   0.32484   0.00000  Uiso   1.00
C151   C     0.24933   0.62524   0.34832   0.00000  Uiso   1.00
C152   C     0.35499   0.74859   0.11290   0.00000  Uiso   1.00
C153   C     0.39054   0.72882   0.05425   0.00000  Uiso   1.00
C154   C     0.39692   0.72776   0.93959   0.00000  Uiso   1.00
C155   C     0.43126   0.70819   0.90247   0.00000  Uiso   1.00
C156   C     0.37292   0.77860   0.19530   0.00000  Uiso   1.00
C157   C     0.36448   0.81941   0.19924   0.00000  Uiso   1.00
C158   C     0.38398   0.84176   0.28087   0.00000  Uiso   1.00
C159   C     0.33552   0.71583   0.18369   0.00000  Uiso   1.00
C160   C     0.29564   0.70387   0.17789   0.00000  Uiso   1.00
C161   C     0.28366   0.67338   0.24977   0.00000  Uiso   1.00
H162   H     0.42561   0.70183   0.30921   0.00000  Uiso   1.00
H163   H     0.47269   0.67760   0.15025   0.00000  Uiso   1.00
H164   H     0.44025   0.76923   0.40987   0.00000  Uiso   1.00
H165   H     0.37143   0.65371   0.38851   0.00000  Uiso   1.00
H166   H     0.51300   0.65861   0.94097   0.00000  Uiso   1.00
H167   H     0.44460   0.85182   0.48841   0.00000  Uiso   1.00
H168   H     0.29946   0.60821   0.44339   0.00000  Uiso   1.00
H169   H     0.33400   0.76249   0.05456   0.00000  Uiso   1.00
H170   H     0.37605   0.74157   0.88162   0.00000  Uiso   1.00
H171   H     0.34362   0.83321   0.14124   0.00000  Uiso   1.00
H172   H     0.27479   0.71768   0.11989   0.00000  Uiso   1.00
H173   H     0.43457   0.71053   0.72294   0.00000  Uiso   1.00
H174   H     0.36617   0.90375   0.27039   0.00000  Uiso   1.00
H175   H     0.22103   0.66014   0.22536   0.00000  Uiso   1.00
O176   O     0.50311   0.66973   0.72279   0.00000  Uiso   1.00
O177   O     0.41336   0.92322   0.44103   0.00000  Uiso   1.00
O178   O     0.22295   0.60361   0.38196   0.00000  Uiso   1.00
N179   N     0.48877   0.67369   0.91339   0.00000  Uiso   1.00
N180   N     0.42482   0.85434   0.42520   0.00000  Uiso   1.00
N181   N     0.28913   0.62659   0.38314   0.00000  Uiso   1.00
N182   N     0.44656   0.70163   0.79607   0.00000  Uiso   1.00
N183   N     0.38262   0.88228   0.30788   0.00000  Uiso   1.00
N184   N     0.24692   0.65453   0.26582   0.00000  Uiso   1.00
C185   C     0.71573   0.09538   0.50086   0.00000  Uiso   1.00
C186   C     0.71097   0.08251   0.37919   0.00000  Uiso   1.00
C187   C     0.69140   0.04817   0.34223   0.00000  Uiso   1.00
C188   C     0.69032   0.04173   0.22754   0.00000  Uiso   1.00
C189   C     0.68022   0.01763   0.05001   0.00000  Uiso   1.00
C190   C     0.76076   0.10012   0.52023   0.00000  Uiso   1.00
C191   C     0.78305   0.08061   0.60188   0.00000  Uiso   1.00
C192   C     0.82388   0.08901   0.60594   0.00000  Uiso   1.00
C193   C     0.89108   0.09228   0.64744   0.00000  Uiso   1.00
C194   C     0.69799   0.13752   0.50863   0.00000  Uiso   1.00
C195   C     0.66751   0.14945   0.58054   0.00000  Uiso   1.00
C196   C     0.65550   0.18933   0.57484   0.00000  Uiso   1.00
C197   C     0.62524   0.25067   0.59832   0.00000  Uiso   1.00
C198   C     0.74859   0.14501   0.36290   0.00000  Uiso   1.00
C199   C     0.72882   0.10946   0.30425   0.00000  Uiso   1.00
C200   C     0.72776   0.10308   0.18959   0.00000  Uiso   1.00
C201   C     0.70819   0.06874   0.15247   0.00000  Uiso   1.00
C202   C     0.77860   0.12708   0.44530   0.00000  Uiso   1.00
C203   C     0.81941   0.13552   0.44924   0.00000  Uiso   1.00
C204   C     0.84176   0.11602   0.53087   0.00000  Uiso   1.00
C205   C     0.71583   0.16448   0.43369   0.00000  Uiso   1.00
C206   C     0.70387   0.20436   0.42789   0.00000  Uiso   1.00
C207   C     0.67338   0.21634   0.49977   0.00000  Uiso   1.00
H208   H     0.70183   0.07439   0.55921   0.00000  Uiso   1.00
H209   H     0.67760   0.02731   0.40025   0.00000  Uiso   1.00
H210   H     0.76923   0.05975   0.65987   0.00000  Uiso   1.00
H211   H     0.65371   0.12857   0.63851   0.00000  Uiso   1.00
H212   H     0.65861   0.98700   0.19097   0.00000  Uiso   1.00
H213   H     0.85182   0.05540   0.73841   0.00000  Uiso   1.00
H214   H     0.60821   0.20054   0.69339   0.00000  Uiso   1.00
H215   H     0.76249   0.16600   0.30456   0.00000  Uiso   1.00
H216   H     0.74157   0.12395   0.13162   0.00000  Uiso   1.00
H217   H     0.83321   0.15638   0.39124   0.00000  Uiso   1.00
H218   H     0.71768   0.22521   0.36989   0.00000  Uiso   1.00
H219   H     0.71053   0.06543   0.97294   0.00000  Uiso   1.00
H220   H     0.90375   0.13383   0.52039   0.00000  Uiso   1.00
H221   H     0.66014   0.27897   0.47536   0.00000  Uiso   1.00
O222   O     0.66973   0.99689   0.97279   0.00000  Uiso   1.00
O223   O     0.92322   0.08664   0.69103   0.00000  Uiso   1.00
O224   O     0.60361   0.27705   0.63196   0.00000  Uiso   1.00
N225   N     0.67369   0.01123   0.16339   0.00000  Uiso   1.00
N226   N     0.85434   0.07518   0.67520   0.00000  Uiso   1.00
N227   N     0.62659   0.21087   0.63314   0.00000  Uiso   1.00
N228   N     0.70163   0.05344   0.04607   0.00000  Uiso   1.00
N229   N     0.88228   0.11738   0.55788   0.00000  Uiso   1.00
N230   N     0.65453   0.25308   0.51582   0.00000  Uiso   1.00
C231   C     0.21573   0.59538   0.00086   0.00000  Uiso   1.00
C232   C     0.21097   0.58251   0.87919   0.00000  Uiso   1.00
C233   C     0.19140   0.54817   0.84223   0.00000  Uiso   1.00
C234   C     0.19032   0.54173   0.72754   0.00000  Uiso   1.00
C235   C     0.18022   0.51763   0.55001   0.00000  Uiso   1.00
C236   C     0.26076   0.60012   0.02023   0.00000  Uiso   1.00
C237   C     0.28305   0.58061   0.10188   0.00000  Uiso   1.00
C238   C     0.32388   0.58901   0.10594   0.00000  Uiso   1.00
C239   C     0.39108   0.59228   0.14744   0.00000  Uiso   1.00
C240   C     0.19799   0.63752   0.00863   0.00000  Uiso   1.00
C241   C     0.16751   0.64945   0.08054   0.00000  Uiso   1.00
C242   C     0.15550   0.68933   0.07484   0.00000  Uiso   1.00
C243   C     0.12524   0.75067   0.09832   0.00000  Uiso   1.00
C244   C     0.24859   0.64501   0.86290   0.00000  Uiso   1.00
C245   C     0.22882   0.60946   0.80425   0.00000  Uiso   1.00
C246   C     0.22776   0.60308   0.68959   0.00000  Uiso   1.00
C247   C     0.20819   0.56874   0.65247   0.00000  Uiso   1.00
C248   C     0.27860   0.62708   0.94530   0.00000  Uiso   1.00
C249   C     0.31941   0.63552   0.94924   0.00000  Uiso   1.00
C250   C     0.34176   0.61602   0.03087   0.00000  Uiso   1.00
C251   C     0.21583   0.66448   0.93369   0.00000  Uiso   1.00
C252   C     0.20387   0.70436   0.92789   0.00000  Uiso   1.00
C253   C     0.17338   0.71634   0.99977   0.00000  Uiso   1.00
H254   H     0.20183   0.57439   0.05921   0.00000  Uiso   1.00
H255   H     0.17760   0.52731   0.90025   0.00000  Uiso   1.00
H256   H     0.26923   0.55975   0.15987   0.00000  Uiso   1.00
H257   H     0.15371   0.62857   0.13851   0.00000  Uiso   1.00
H258   H     0.15861   0.48700   0.69097   0.00000  Uiso   1.00
H259   H     0.35182   0.55540   0.23841   0.00000  Uiso   1.00
H260   H     0.10821   0.70054   0.19339   0.00000  Uiso   1.00
H261   H     0.26249   0.66600   0.80456   0.00000  Uiso   1.00
H262   H     0.24157   0.62395   0.63162   0.00000  Uiso   1.00
H263   H     0.33321   0.65638   0.89124   0.00000  Uiso   1.00
H264   H     0.21768   0.72521   0.86989   0.00000  Uiso   1.00
H265   H     0.21053   0.56543   0.47294   0.00000  Uiso   1.00
H266   H     0.40375   0.63383   0.02039   0.00000  Uiso   1.00
H267   H     0.16014   0.77897   0.97536   0.00000  Uiso   1.00
O268   O     0.16973   0.49689   0.47279   0.00000  Uiso   1.00
O269   O     0.42322   0.58664   0.19103   0.00000  Uiso   1.00
O270   O     0.10361   0.77705   0.13196   0.00000  Uiso   1.00
N271   N     0.17369   0.51123   0.66339   0.00000  Uiso   1.00
N272   N     0.35434   0.57518   0.17520   0.00000  Uiso   1.00
N273   N     0.12659   0.71087   0.13314   0.00000  Uiso   1.00
N274   N     0.20163   0.55344   0.54607   0.00000  Uiso   1.00
N275   N     0.38228   0.61738   0.05788   0.00000  Uiso   1.00
N276   N     0.15453   0.75308   0.01582   0.00000  Uiso   1.00
C277   C     0.78427   0.40462   0.00086   0.00000  Uiso   1.00
C278   C     0.78903   0.41749   0.87919   0.00000  Uiso   1.00
C279   C     0.80860   0.45183   0.84223   0.00000  Uiso   1.00
C280   C     0.80968   0.45827   0.72754   0.00000  Uiso   1.00
C281   C     0.81978   0.48237   0.55001   0.00000  Uiso   1.00
C282   C     0.73924   0.39988   0.02023   0.00000  Uiso   1.00
C283   C     0.71695   0.41939   0.10188   0.00000  Uiso   1.00
C284   C     0.67612   0.41099   0.10594   0.00000  Uiso   1.00
C285   C     0.60892   0.40772   0.14744   0.00000  Uiso   1.00
C286   C     0.80201   0.36248   0.00863   0.00000  Uiso   1.00
C287   C     0.83249   0.35055   0.08054   0.00000  Uiso   1.00
C288   C     0.84450   0.31067   0.07484   0.00000  Uiso   1.00
C289   C     0.87476   0.24933   0.09832   0.00000  Uiso   1.00
C290   C     0.75141   0.35499   0.86290   0.00000  Uiso   1.00
C291   C     0.77118   0.39054   0.80425   0.00000  Uiso   1.00
C292   C     0.77224   0.39692   0.68959   0.00000  Uiso   1.00
C293   C     0.79181   0.43126   0.65247   0.00000  Uiso   1.00
C294   C     0.72140   0.37292   0.94530   0.00000  Uiso   1.00
C295   C     0.68059   0.36448   0.94924   0.00000  Uiso   1.00
C296   C     0.65824   0.38398   0.03087   0.00000  Uiso   1.00
C297   C     0.78417   0.33552   0.93369   0.00000  Uiso   1.00
C298   C     0.79613   0.29564   0.92789   0.00000  Uiso   1.00
C299   C     0.82662   0.28366   0.99977   0.00000  Uiso   1.00
H300   H     0.79817   0.42561   0.05921   0.00000  Uiso   1.00
H301   H     0.82240   0.47269   0.90025   0.00000  Uiso   1.00
H302   H     0.73077   0.44025   0.15987   0.00000  Uiso   1.00
H303   H     0.84629   0.37143   0.13851   0.00000  Uiso   1.00
H304   H     0.84139   0.51300   0.69097   0.00000  Uiso   1.00
H305   H     0.64818   0.44460   0.23841   0.00000  Uiso   1.00
H306   H     0.89179   0.29946   0.19339   0.00000  Uiso   1.00
H307   H     0.73751   0.33400   0.80456   0.00000  Uiso   1.00
H308   H     0.75843   0.37605   0.63162   0.00000  Uiso   1.00
H309   H     0.66679   0.34362   0.89124   0.00000  Uiso   1.00
H310   H     0.78232   0.27479   0.86989   0.00000  Uiso   1.00
H311   H     0.78947   0.43457   0.47294   0.00000  Uiso   1.00
H312   H     0.59625   0.36617   0.02039   0.00000  Uiso   1.00
H313   H     0.83986   0.22103   0.97536   0.00000  Uiso   1.00
O314   O     0.83027   0.50311   0.47279   0.00000  Uiso   1.00
O315   O     0.57678   0.41336   0.19103   0.00000  Uiso   1.00
O316   O     0.89639   0.22295   0.13196   0.00000  Uiso   1.00
N317   N     0.82631   0.48877   0.66339   0.00000  Uiso   1.00
N318   N     0.64566   0.42482   0.17520   0.00000  Uiso   1.00
N319   N     0.87341   0.28913   0.13314   0.00000  Uiso   1.00
N320   N     0.79837   0.44656   0.54607   0.00000  Uiso   1.00
N321   N     0.61772   0.38262   0.05788   0.00000  Uiso   1.00
N322   N     0.84547   0.24692   0.01582   0.00000  Uiso   1.00
C323   C     0.28427   0.90462   0.50086   0.00000  Uiso   1.00
C324   C     0.28903   0.91749   0.37919   0.00000  Uiso   1.00
C325   C     0.30860   0.95183   0.34223   0.00000  Uiso   1.00
C326   C     0.30968   0.95827   0.22754   0.00000  Uiso   1.00
C327   C     0.31978   0.98237   0.05001   0.00000  Uiso   1.00
C328   C     0.23924   0.89988   0.52023   0.00000  Uiso   1.00
C329   C     0.21695   0.91939   0.60188   0.00000  Uiso   1.00
C330   C     0.17612   0.91099   0.60594   0.00000  Uiso   1.00
C331   C     0.10892   0.90772   0.64744   0.00000  Uiso   1.00
C332   C     0.30201   0.86248   0.50863   0.00000  Uiso   1.00
C333   C     0.33249   0.85055   0.58054   0.00000  Uiso   1.00
C334   C     0.34450   0.81067   0.57484   0.00000  Uiso   1.00
C335   C     0.37476   0.74933   0.59832   0.00000  Uiso   1.00
C336   C     0.25141   0.85499   0.36290   0.00000  Uiso   1.00
C337   C     0.27118   0.89054   0.30425   0.00000  Uiso   1.00
C338   C     0.27224   0.89692   0.18959   0.00000  Uiso   1.00
C339   C     0.29181   0.93126   0.15247   0.00000  Uiso   1.00
C340   C     0.22140   0.87292   0.44530   0.00000  Uiso   1.00
C341   C     0.18059   0.86448   0.44924   0.00000  Uiso   1.00
C342   C     0.15824   0.88398   0.53087   0.00000  Uiso   1.00
C343   C     0.28417   0.83552   0.43369   0.00000  Uiso   1.00
C344   C     0.29613   0.79564   0.42789   0.00000  Uiso   1.00
C345   C     0.32662   0.78366   0.49977   0.00000  Uiso   1.00
H346   H     0.29817   0.92561   0.55921   0.00000  Uiso   1.00
H347   H     0.32240   0.97269   0.40025   0.00000  Uiso   1.00
H348   H     0.23077   0.94025   0.65987   0.00000  Uiso   1.00
H349   H     0.34629   0.87143   0.63851   0.00000  Uiso   1.00
H350   H     0.34139   0.01300   0.19097   0.00000  Uiso   1.00
H351   H     0.14818   0.94460   0.73841   0.00000  Uiso   1.00
H352   H     0.39179   0.79946   0.69339   0.00000  Uiso   1.00
H353   H     0.23751   0.83400   0.30456   0.00000  Uiso   1.00
H354   H     0.25843   0.87605   0.13162   0.00000  Uiso   1.00
H355   H     0.16679   0.84362   0.39124   0.00000  Uiso   1.00
H356   H     0.28232   0.77479   0.36989   0.00000  Uiso   1.00
H357   H     0.28947   0.93457   0.97294   0.00000  Uiso   1.00
H358   H     0.09625   0.86617   0.52039   0.00000  Uiso   1.00
H359   H     0.33986   0.72103   0.47536   0.00000  Uiso   1.00
O360   O     0.33027   0.00311   0.97279   0.00000  Uiso   1.00
O361   O     0.07678   0.91336   0.69103   0.00000  Uiso   1.00
O362   O     0.39639   0.72295   0.63196   0.00000  Uiso   1.00
N363   N     0.32631   0.98877   0.16339   0.00000  Uiso   1.00
N364   N     0.14566   0.92482   0.67520   0.00000  Uiso   1.00
N365   N     0.37341   0.78913   0.63314   0.00000  Uiso   1.00
N366   N     0.29837   0.94656   0.04607   0.00000  Uiso   1.00
N367   N     0.11772   0.88262   0.55788   0.00000  Uiso   1.00
N368   N     0.34547   0.74692   0.51582   0.00000  Uiso   1.00
C369   C     0.40462   0.21573   0.99914   0.00000  Uiso   1.00
C370   C     0.41749   0.21097   0.12081   0.00000  Uiso   1.00
C371   C     0.45183   0.19140   0.15777   0.00000  Uiso   1.00
C372   C     0.45827   0.19032   0.27246   0.00000  Uiso   1.00
C373   C     0.48237   0.18022   0.44999   0.00000  Uiso   1.00
C374   C     0.39988   0.26076   0.97977   0.00000  Uiso   1.00
C375   C     0.41939   0.28305   0.89812   0.00000  Uiso   1.00
C376   C     0.41099   0.32388   0.89406   0.00000  Uiso   1.00
C377   C     0.40772   0.39108   0.85256   0.00000  Uiso   1.00
C378   C     0.36248   0.19799   0.99137   0.00000  Uiso   1.00
C379   C     0.35055   0.16751   0.91946   0.00000  Uiso   1.00
C380   C     0.31067   0.15550   0.92516   0.00000  Uiso   1.00
C381   C     0.24933   0.12524   0.90168   0.00000  Uiso   1.00
C382   C     0.35499   0.24859   0.13710   0.00000  Uiso   1.00
C383   C     0.39054   0.22882   0.19575   0.00000  Uiso   1.00
C384   C     0.39692   0.22776   0.31041   0.00000  Uiso   1.00
C385   C     0.43126   0.20819   0.34753   0.00000  Uiso   1.00
C386   C     0.37292   0.27860   0.05470   0.00000  Uiso   1.00
C387   C     0.36448   0.31941   0.05076   0.00000  Uiso   1.00
C388   C     0.38398   0.34176   0.96913   0.00000  Uiso   1.00
C389   C     0.33552   0.21583   0.06631   0.00000  Uiso   1.00
C390   C     0.29564   0.20387   0.07211   0.00000  Uiso   1.00
C391   C     0.28366   0.17338   0.00023   0.00000  Uiso   1.00
H392   H     0.42561   0.20183   0.94079   0.00000  Uiso   1.00
H393   H     0.47269   0.17760   0.09975   0.00000  Uiso   1.00
H394   H     0.44025   0.26923   0.84013   0.00000  Uiso   1.00
H395   H     0.37143   0.15371   0.86149   0.00000  Uiso   1.00
H396   H     0.51300   0.15861   0.30903   0.00000  Uiso   1.00
H397   H     0.44460   0.35182   0.76159   0.00000  Uiso   1.00
H398   H     0.29946   0.10821   0.80661   0.00000  Uiso   1.00
H399   H     0.33400   0.26249   0.19544   0.00000  Uiso   1.00
H400   H     0.37605   0.24157   0.36838   0.00000  Uiso   1.00
H401   H     0.34362   0.33321   0.10876   0.00000  Uiso   1.00
H402   H     0.27479   0.21768   0.13011   0.00000  Uiso   1.00
H403   H     0.43457   0.21053   0.52706   0.00000  Uiso   1.00
H404   H     0.36617   0.40375   0.97961   0.00000  Uiso   1.00
H405   H     0.22103   0.16014   0.02464   0.00000  Uiso   1.00
O406   O     0.50311   0.16973   0.52721   0.00000  Uiso   1.00
O407   O     0.41336   0.42322   0.80897   0.00000  Uiso   1.00
O408   O     0.22295   0.10361   0.86804   0.00000  Uiso   1.00
N409   N     0.48877   0.17369   0.33661   0.00000  Uiso   1.00
N410   N     0.42482   0.35434   0.82480   0.00000  Uiso   1.00
N411   N     0.28913   0.12659   0.86686   0.00000  Uiso   1.00
N412   N     0.44656   0.20163   0.45393   0.00000  Uiso   1.00
N413   N     0.38262   0.38228   0.94212   0.00000  Uiso   1.00
N414   N     0.24692   0.15453   0.98418   0.00000  Uiso   1.00
C415   C     0.90462   0.71573   0.49914   0.00000  Uiso   1.00
C416   C     0.91749   0.71097   0.62081   0.00000  Uiso   1.00
C417   C     0.95183   0.69140   0.65777   0.00000  Uiso   1.00
C418   C     0.95827   0.69032   0.77246   0.00000  Uiso   1.00
C419   C     0.98237   0.68022   0.94999   0.00000  Uiso   1.00
C420   C     0.89988   0.76076   0.47977   0.00000  Uiso   1.00
C421   C     0.91939   0.78305   0.39812   0.00000  Uiso   1.00
C422   C     0.91099   0.82388   0.39406   0.00000  Uiso   1.00
C423   C     0.90772   0.89108   0.35256   0.00000  Uiso   1.00
C424   C     0.86248   0.69799   0.49137   0.00000  Uiso   1.00
C425   C     0.85055   0.66751   0.41946   0.00000  Uiso   1.00
C426   C     0.81067   0.65550   0.42516   0.00000  Uiso   1.00
C427   C     0.74933   0.62524   0.40168   0.00000  Uiso   1.00
C428   C     0.85499   0.74859   0.63710   0.00000  Uiso   1.00
C429   C     0.89054   0.72882   0.69575   0.00000  Uiso   1.00
C430   C     0.89692   0.72776   0.81041   0.00000  Uiso   1.00
C431   C     0.93126   0.70819   0.84753   0.00000  Uiso   1.00
C432   C     0.87292   0.77860   0.55470   0.00000  Uiso   1.00
C433   C     0.86448   0.81941   0.55076   0.00000  Uiso   1.00
C434   C     0.88398   0.84176   0.46913   0.00000  Uiso   1.00
C435   C     0.83552   0.71583   0.56631   0.00000  Uiso   1.00
C436   C     0.79564   0.70387   0.57211   0.00000  Uiso   1.00
C437   C     0.78366   0.67338   0.50023   0.00000  Uiso   1.00
H438   H     0.92561   0.70183   0.44079   0.00000  Uiso   1.00
H439   H     0.97269   0.67760   0.59975   0.00000  Uiso   1.00
H440   H     0.94025   0.76923   0.34013   0.00000  Uiso   1.00
H441   H     0.87143   0.65371   0.36149   0.00000  Uiso   1.00
H442   H     0.01300   0.65861   0.80903   0.00000  Uiso   1.00
H443   H     0.94460   0.85182   0.26159   0.00000  Uiso   1.00
H444   H     0.79946   0.60821   0.30661   0.00000  Uiso   1.00
H445   H     0.83400   0.76249   0.69544   0.00000  Uiso   1.00
H446   H     0.87605   0.74157   0.86838   0.00000  Uiso   1.00
H447   H     0.84362   0.83321   0.60876   0.00000  Uiso   1.00
H448   H     0.77479   0.71768   0.63011   0.00000  Uiso   1.00
H449   H     0.93457   0.71053   0.02706   0.00000  Uiso   1.00
H450   H     0.86617   0.90375   0.47961   0.00000  Uiso   1.00
H451   H     0.72103   0.66014   0.52464   0.00000  Uiso   1.00
O452   O     0.00311   0.66973   0.02721   0.00000  Uiso   1.00
O453   O     0.91336   0.92322   0.30897   0.00000  Uiso   1.00
O454   O     0.72295   0.60361   0.36804   0.00000  Uiso   1.00
N455   N     0.98877   0.67369   0.83661   0.00000  Uiso   1.00
N456   N     0.92482   0.85434   0.32480   0.00000  Uiso   1.00
N457   N     0.78913   0.62659   0.36686   0.00000  Uiso   1.00
N458   N     0.94656   0.70163   0.95393   0.00000  Uiso   1.00
N459   N     0.88262   0.88228   0.44212   0.00000  Uiso   1.00
N460   N     0.74692   0.65453   0.48418   0.00000  Uiso   1.00
C461   C     0.09538   0.28427   0.49914   0.00000  Uiso   1.00
C462   C     0.08251   0.28903   0.62081   0.00000  Uiso   1.00
C463   C     0.04817   0.30860   0.65777   0.00000  Uiso   1.00
C464   C     0.04173   0.30968   0.77246   0.00000  Uiso   1.00
C465   C     0.01763   0.31978   0.94999   0.00000  Uiso   1.00
C466   C     0.10012   0.23924   0.47977   0.00000  Uiso   1.00
C467   C     0.08061   0.21695   0.39812   0.00000  Uiso   1.00
C468   C     0.08901   0.17612   0.39406   0.00000  Uiso   1.00
C469   C     0.09228   0.10892   0.35256   0.00000  Uiso   1.00
C470   C     0.13752   0.30201   0.49137   0.00000  Uiso   1.00
C471   C     0.14945   0.33249   0.41946   0.00000  Uiso   1.00
C472   C     0.18933   0.34450   0.42516   0.00000  Uiso   1.00
C473   C     0.25067   0.37476   0.40168   0.00000  Uiso   1.00
C474   C     0.14501   0.25141   0.63710   0.00000  Uiso   1.00
C475   C     0.10946   0.27118   0.69575   0.00000  Uiso   1.00
C476   C     0.10308   0.27224   0.81041   0.00000  Uiso   1.00
C477   C     0.06874   0.29181   0.84753   0.00000  Uiso   1.00
C478   C     0.12708   0.22140   0.55470   0.00000  Uiso   1.00
C479   C     0.13552   0.18059   0.55076   0.00000  Uiso   1.00
C480   C     0.11602   0.15824   0.46913   0.00000  Uiso   1.00
C481   C     0.16448   0.28417   0.56631   0.00000  Uiso   1.00
C482   C     0.20436   0.29613   0.57211   0.00000  Uiso   1.00
C483   C     0.21634   0.32662   0.50023   0.00000  Uiso   1.00
H484   H     0.07439   0.29817   0.44079   0.00000  Uiso   1.00
H485   H     0.02731   0.32240   0.59975   0.00000  Uiso   1.00
H486   H     0.05975   0.23077   0.34013   0.00000  Uiso   1.00
H487   H     0.12857   0.34629   0.36149   0.00000  Uiso   1.00
H488   H     0.98700   0.34139   0.80903   0.00000  Uiso   1.00
H489   H     0.05540   0.14818   0.26159   0.00000  Uiso   1.00
H490   H     0.20054   0.39179   0.30661   0.00000  Uiso   1.00
H491   H     0.16600   0.23751   0.69544   0.00000  Uiso   1.00
H492   H     0.12395   0.25843   0.86838   0.00000  Uiso   1.00
H493   H     0.15638   0.16679   0.60876   0.00000  Uiso   1.00
H494   H     0.22521   0.28232   0.63011   0.00000  Uiso   1.00
H495   H     0.06543   0.28947   0.02706   0.00000  Uiso   1.00
H496   H     0.13383   0.09625   0.47961   0.00000  Uiso   1.00
H497   H     0.27897   0.33986   0.52464   0.00000  Uiso   1.00
O498   O     0.99689   0.33027   0.02721   0.00000  Uiso   1.00
O499   O     0.08664   0.07678   0.30897   0.00000  Uiso   1.00
O500   O     0.27705   0.39639   0.36804   0.00000  Uiso   1.00
N501   N     0.01123   0.32631   0.83661   0.00000  Uiso   1.00
N502   N     0.07518   0.14566   0.32480   0.00000  Uiso   1.00
N503   N     0.21087   0.37341   0.36686   0.00000  Uiso   1.00
N504   N     0.05344   0.29837   0.95393   0.00000  Uiso   1.00
N505   N     0.11738   0.11772   0.44212   0.00000  Uiso   1.00
N506   N     0.25308   0.34547   0.48418   0.00000  Uiso   1.00
C507   C     0.59538   0.78427   0.99914   0.00000  Uiso   1.00
C508   C     0.58251   0.78903   0.12081   0.00000  Uiso   1.00
C509   C     0.54817   0.80860   0.15777   0.00000  Uiso   1.00
C510   C     0.54173   0.80968   0.27246   0.00000  Uiso   1.00
C511   C     0.51763   0.81978   0.44999   0.00000  Uiso   1.00
C512   C     0.60012   0.73924   0.97977   0.00000  Uiso   1.00
C513   C     0.58061   0.71695   0.89812   0.00000  Uiso   1.00
C514   C     0.58901   0.67612   0.89406   0.00000  Uiso   1.00
C515   C     0.59228   0.60892   0.85256   0.00000  Uiso   1.00
C516   C     0.63752   0.80201   0.99137   0.00000  Uiso   1.00
C517   C     0.64945   0.83249   0.91946   0.00000  Uiso   1.00
C518   C     0.68933   0.84450   0.92516   0.00000  Uiso   1.00
C519   C     0.75067   0.87476   0.90168   0.00000  Uiso   1.00
C520   C     0.64501   0.75141   0.13710   0.00000  Uiso   1.00
C521   C     0.60946   0.77118   0.19575   0.00000  Uiso   1.00
C522   C     0.60308   0.77224   0.31041   0.00000  Uiso   1.00
C523   C     0.56874   0.79181   0.34753   0.00000  Uiso   1.00
C524   C     0.62708   0.72140   0.05470   0.00000  Uiso   1.00
C525   C     0.63552   0.68059   0.05076   0.00000  Uiso   1.00
C526   C     0.61602   0.65824   0.96913   0.00000  Uiso   1.00
C527   C     0.66448   0.78417   0.06631   0.00000  Uiso   1.00
C528   C     0.70436   0.79613   0.07211   0.00000  Uiso   1.00
C529   C     0.71634   0.82662   0.00023   0.00000  Uiso   1.00
H530   H     0.57439   0.79817   0.94079   0.00000  Uiso   1.00
H531   H     0.52731   0.82240   0.09975   0.00000  Uiso   1.00
H532   H     0.55975   0.73077   0.84013   0.00000  Uiso   1.00
H533   H     0.62857   0.84629   0.86149   0.00000  Uiso   1.00
H534   H     0.48700   0.84139   0.30903   0.00000  Uiso   1.00
H535   H     0.55540   0.64818   0.76159   0.00000  Uiso   1.00
H536   H     0.70054   0.89179   0.80661   0.00000  Uiso   1.00
H537   H     0.66600   0.73751   0.19544   0.00000  Uiso   1.00
H538   H     0.62395   0.75843   0.36838   0.00000  Uiso   1.00
H539   H     0.65638   0.66679   0.10876   0.00000  Uiso   1.00
H540   H     0.72521   0.78232   0.13011   0.00000  Uiso   1.00
H541   H     0.56543   0.78947   0.52706   0.00000  Uiso   1.00
H542   H     0.63383   0.59625   0.97961   0.00000  Uiso   1.00
H543   H     0.77897   0.83986   0.02464   0.00000  Uiso   1.00
O544   O     0.49689   0.83027   0.52721   0.00000  Uiso   1.00
O545   O     0.58664   0.57678   0.80897   0.00000  Uiso   1.00
O546   O     0.77705   0.89639   0.86804   0.00000  Uiso   1.00
N547   N     0.51123   0.82631   0.33661   0.00000  Uiso   1.00
N548   N     0.57518   0.64566   0.82480   0.00000  Uiso   1.00
N549   N     0.71087   0.87341   0.86686   0.00000  Uiso   1.00
N550   N     0.55344   0.79837   0.45393   0.00000  Uiso   1.00
N551   N     0.61738   0.61772   0.94212   0.00000  Uiso   1.00
N552   N     0.75308   0.84547   0.98418   0.00000  Uiso   1.00
C553   C     0.28427   0.40462   0.74914   0.00000  Uiso   1.00
C554   C     0.28903   0.41749   0.87081   0.00000  Uiso   1.00
C555   C     0.30860   0.45183   0.90777   0.00000  Uiso   1.00
C556   C     0.30968   0.45827   0.02246   0.00000  Uiso   1.00
C557   C     0.31978   0.48237   0.19999   0.00000  Uiso   1.00
C558   C     0.23924   0.39988   0.72977   0.00000  Uiso   1.00
C559   C     0.21695   0.41939   0.64812   0.00000  Uiso   1.00
C560   C     0.17612   0.41099   0.64406   0.00000  Uiso   1.00
C561   C     0.10892   0.40772   0.60256   0.00000  Uiso   1.00
C562   C     0.30201   0.36248   0.74137   0.00000  Uiso   1.00
C563   C     0.33249   0.35055   0.66946   0.00000  Uiso   1.00
C564   C     0.34450   0.31067   0.67516   0.00000  Uiso   1.00
C565   C     0.37476   0.24933   0.65168   0.00000  Uiso   1.00
C566   C     0.25141   0.35499   0.88710   0.00000  Uiso   1.00
C567   C     0.27118   0.39054   0.94575   0.00000  Uiso   1.00
C568   C     0.27224   0.39692   0.06041   0.00000  Uiso   1.00
C569   C     0.29181   0.43126   0.09753   0.00000  Uiso   1.00
C570   C     0.22140   0.37292   0.80470   0.00000  Uiso   1.00
C571   C     0.18059   0.36448   0.80076   0.00000  Uiso   1.00
C572   C     0.15824   0.38398   0.71913   0.00000  Uiso   1.00
C573   C     0.28417   0.33552   0.81631   0.00000  Uiso   1.00
C574   C     0.29613   0.29564   0.82211   0.00000  Uiso   1.00
C575   C     0.32662   0.28366   0.75023   0.00000  Uiso   1.00
H576   H     0.29817   0.42561   0.69079   0.00000  Uiso   1.00
H577   H     0.32240   0.47269   0.84975   0.00000  Uiso   1.00
H578   H     0.23077   0.44025   0.59013   0.00000  Uiso   1.00
H579   H     0.34629   0.37143   0.61149   0.00000  Uiso   1.00
H580   H     0.34139   0.51300   0.05903   0.00000  Uiso   1.00
H581   H     0.14818   0.44460   0.51159   0.00000  Uiso   1.00
H582   H     0.39179   0.29946   0.55661   0.00000  Uiso   1.00
H583   H     0.23751   0.33400   0.94544   0.00000  Uiso   1.00
H584   H     0.25843   0.37605   0.11838   0.00000  Uiso   1.00
H585   H     0.16679   0.34362   0.85876   0.00000  Uiso   1.00
H586   H     0.28232   0.27479   0.88011   0.00000  Uiso   1.00
H587   H     0.28947   0.43457   0.27706   0.00000  Uiso   1.00
H588   H     0.09625   0.36617   0.72961   0.00000  Uiso   1.00
H589   H     0.33986   0.22103   0.77464   0.00000  Uiso   1.00
O590   O     0.33027   0.50311   0.27721   0.00000  Uiso   1.00
O591   O     0.07678   0.41336   0.55897   0.00000  Uiso   1.00
O592   O     0.39639   0.22295   0.61804   0.00000  Uiso   1.00
N593   N     0.32631   0.48877   0.08661   0.00000  Uiso   1.00
N594   N     0.14566   0.42482   0.57480   0.00000  Uiso   1.00
N595   N     0.37341   0.28913   0.61686   0.00000  Uiso   1.00
N596   N     0.29837   0.44656   0.20393   0.00000  Uiso   1.00
N597   N     0.11772   0.38262   0.69212   0.00000  Uiso   1.00
N598   N     0.34547   0.24692   0.73418   0.00000  Uiso   1.00
C599   C     0.78427   0.90462   0.24914   0.00000  Uiso   1.00
C600   C     0.78903   0.91749   0.37081   0.00000  Uiso   1.00
C601   C     0.80860   0.95183   0.40777   0.00000  Uiso   1.00
C602   C     0.80968   0.95827   0.52246   0.00000  Uiso   1.00
C603   C     0.81978   0.98237   0.69999   0.00000  Uiso   1.00
C604   C     0.73924   0.89988   0.22977   0.00000  Uiso   1.00
C605   C     0.71695   0.91939   0.14812   0.00000  Uiso   1.00
C606   C     0.67612   0.91099   0.14406   0.00000  Uiso   1.00
C607   C     0.60892   0.90772   0.10256   0.00000  Uiso   1.00
C608   C     0.80201   0.86248   0.24137   0.00000  Uiso   1.00
C609   C     0.83249   0.85055   0.16946   0.00000  Uiso   1.00
C610   C     0.84450   0.81067   0.17516   0.00000  Uiso   1.00
C611   C     0.87476   0.74933   0.15168   0.00000  Uiso   1.00
C612   C     0.75141   0.85499   0.38710   0.00000  Uiso   1.00
C613   C     0.77118   0.89054   0.44575   0.00000  Uiso   1.00
C614   C     0.77224   0.89692   0.56041   0.00000  Uiso   1.00
C615   C     0.79181   0.93126   0.59753   0.00000  Uiso   1.00
C616   C     0.72140   0.87292   0.30470   0.00000  Uiso   1.00
C617   C     0.68059   0.86448   0.30076   0.00000  Uiso   1.00
C618   C     0.65824   0.88398   0.21913   0.00000  Uiso   1.00
C619   C     0.78417   0.83552   0.31631   0.00000  Uiso   1.00
C620   C     0.79613   0.79564   0.32211   0.00000  Uiso   1.00
C621   C     0.82662   0.78366   0.25023   0.00000  Uiso   1.00
H622   H     0.79817   0.92561   0.19079   0.00000  Uiso   1.00
H623   H     0.82240   0.97269   0.34975   0.00000  Uiso   1.00
H624   H     0.73077   0.94025   0.09013   0.00000  Uiso   1.00
H625   H     0.84629   0.87143   0.11149   0.00000  Uiso   1.00
H626   H     0.84139   0.01300   0.55903   0.00000  Uiso   1.00
H627   H     0.64818   0.94460   0.01159   0.00000  Uiso   1.00
H628   H     0.89179   0.79946   0.05661   0.00000  Uiso   1.00
H629   H     0.73751   0.83400   0.44544   0.00000  Uiso   1.00
H630   H     0.75843   0.87605   0.61838   0.00000  Uiso   1.00
H631   H     0.66679   0.84362   0.35876   0.00000  Uiso   1.00
H632   H     0.78232   0.77479   0.38011   0.00000  Uiso   1.00
H633   H     0.78947   0.93457   0.77706   0.00000  Uiso   1.00
H634   H     0.59625   0.86617   0.22961   0.00000  Uiso   1.00
H635   H     0.83986   0.72103   0.27464   0.00000  Uiso   1.00
O636   O     0.83027   0.00311   0.77721   0.00000  Uiso   1.00
O637   O     0.57678   0.91336   0.05897   0.00000  Uiso   1.00
O638   O     0.89639   0.72295   0.11804   0.00000  Uiso   1.00
N639   N     0.82631   0.98877   0.58661   0.00000  Uiso   1.00
N640   N     0.64566   0.92482   0.07480   0.00000  Uiso   1.00
N641   N     0.87341   0.78913   0.11686   0.00000  Uiso   1.00
N642   N     0.79837   0.94656   0.70393   0.00000  Uiso   1.00
N643   N     0.61772   0.88262   0.19212   0.00000  Uiso   1.00
N644   N     0.84547   0.74692   0.23418   0.00000  Uiso   1.00
C645   C     0.21573   0.09538   0.24914   0.00000  Uiso   1.00
C646   C     0.21097   0.08251   0.37081   0.00000  Uiso   1.00
C647   C     0.19140   0.04817   0.40777   0.00000  Uiso   1.00
C648   C     0.19032   0.04173   0.52246   0.00000  Uiso   1.00
C649   C     0.18022   0.01763   0.69999   0.00000  Uiso   1.00
C650   C     0.26076   0.10012   0.22977   0.00000  Uiso   1.00
C651   C     0.28305   0.08061   0.14812   0.00000  Uiso   1.00
C652   C     0.32388   0.08901   0.14406   0.00000  Uiso   1.00
C653   C     0.39108   0.09228   0.10256   0.00000  Uiso   1.00
C654   C     0.19799   0.13752   0.24137   0.00000  Uiso   1.00
C655   C     0.16751   0.14945   0.16946   0.00000  Uiso   1.00
C656   C     0.15550   0.18933   0.17516   0.00000  Uiso   1.00
C657   C     0.12524   0.25067   0.15168   0.00000  Uiso   1.00
C658   C     0.24859   0.14501   0.38710   0.00000  Uiso   1.00
C659   C     0.22882   0.10946   0.44575   0.00000  Uiso   1.00
C660   C     0.22776   0.10308   0.56041   0.00000  Uiso   1.00
C661   C     0.20819   0.06874   0.59753   0.00000  Uiso   1.00
C662   C     0.27860   0.12708   0.30470   0.00000  Uiso   1.00
C663   C     0.31941   0.13552   0.30076   0.00000  Uiso   1.00
C664   C     0.34176   0.11602   0.21913   0.00000  Uiso   1.00
C665   C     0.21583   0.16448   0.31631   0.00000  Uiso   1.00
C666   C     0.20387   0.20436   0.32211   0.00000  Uiso   1.00
C667   C     0.17338   0.21634   0.25023   0.00000  Uiso   1.00
H668   H     0.20183   0.07439   0.19079   0.00000  Uiso   1.00
H669   H     0.17760   0.02731   0.34975   0.00000  Uiso   1.00
H670   H     0.26923   0.05975   0.09013   0.00000  Uiso   1.00
H671   H     0.15371   0.12857   0.11149   0.00000  Uiso   1.00
H672   H     0.15861   0.98700   0.55903   0.00000  Uiso   1.00
H673   H     0.35182   0.05540   0.01159   0.00000  Uiso   1.00
H674   H     0.10821   0.20054   0.05661   0.00000  Uiso   1.00
H675   H     0.26249   0.16600   0.44544   0.00000  Uiso   1.00
H676   H     0.24157   0.12395   0.61838   0.00000  Uiso   1.00
H677   H     0.33321   0.15638   0.35876   0.00000  Uiso   1.00
H678   H     0.21768   0.22521   0.38011   0.00000  Uiso   1.00
H679   H     0.21053   0.06543   0.77706   0.00000  Uiso   1.00
H680   H     0.40375   0.13383   0.22961   0.00000  Uiso   1.00
H681   H     0.16014   0.27897   0.27464   0.00000  Uiso   1.00
O682   O     0.16973   0.99689   0.77721   0.00000  Uiso   1.00
O683   O     0.42322   0.08664   0.05897   0.00000  Uiso   1.00
O684   O     0.10361   0.27705   0.11804   0.00000  Uiso   1.00
N685   N     0.17369   0.01123   0.58661   0.00000  Uiso   1.00
N686   N     0.35434   0.07518   0.07480   0.00000  Uiso   1.00
N687   N     0.12659   0.21087   0.11686   0.00000  Uiso   1.00
N688   N     0.20163   0.05344   0.70393   0.00000  Uiso   1.00
N689   N     0.38228   0.11738   0.19212   0.00000  Uiso   1.00
N690   N     0.15453   0.25308   0.23418   0.00000  Uiso   1.00
C691   C     0.71573   0.59538   0.74914   0.00000  Uiso   1.00
C692   C     0.71097   0.58251   0.87081   0.00000  Uiso   1.00
C693   C     0.69140   0.54817   0.90777   0.00000  Uiso   1.00
C694   C     0.69032   0.54173   0.02246   0.00000  Uiso   1.00
C695   C     0.68022   0.51763   0.19999   0.00000  Uiso   1.00
C696   C     0.76076   0.60012   0.72977   0.00000  Uiso   1.00
C697   C     0.78305   0.58061   0.64812   0.00000  Uiso   1.00
C698   C     0.82388   0.58901   0.64406   0.00000  Uiso   1.00
C699   C     0.89108   0.59228   0.60256   0.00000  Uiso   1.00
C700   C     0.69799   0.63752   0.74137   0.00000  Uiso   1.00
C701   C     0.66751   0.64945   0.66946   0.00000  Uiso   1.00
C702   C     0.65550   0.68933   0.67516   0.00000  Uiso   1.00
C703   C     0.62524   0.75067   0.65168   0.00000  Uiso   1.00
C704   C     0.74859   0.64501   0.88710   0.00000  Uiso   1.00
C705   C     0.72882   0.60946   0.94575   0.00000  Uiso   1.00
C706   C     0.72776   0.60308   0.06041   0.00000  Uiso   1.00
C707   C     0.70819   0.56874   0.09753   0.00000  Uiso   1.00
C708   C     0.77860   0.62708   0.80470   0.00000  Uiso   1.00
C709   C     0.81941   0.63552   0.80076   0.00000  Uiso   1.00
C710   C     0.84176   0.61602   0.71913   0.00000  Uiso   1.00
C711   C     0.71583   0.66448   0.81631   0.00000  Uiso   1.00
C712   C     0.70387   0.70436   0.82211   0.00000  Uiso   1.00
C713   C     0.67338   0.71634   0.75023   0.00000  Uiso   1.00
H714   H     0.70183   0.57439   0.69079   0.00000  Uiso   1.00
H715   H     0.67760   0.52731   0.84975   0.00000  Uiso   1.00
H716   H     0.76923   0.55975   0.59013   0.00000  Uiso   1.00
H717   H     0.65371   0.62857   0.61149   0.00000  Uiso   1.00
H718   H     0.65861   0.48700   0.05903   0.00000  Uiso   1.00
H719   H     0.85182   0.55540   0.51159   0.00000  Uiso   1.00
H720   H     0.60821   0.70054   0.55661   0.00000  Uiso   1.00
H721   H     0.76249   0.66600   0.94544   0.00000  Uiso   1.00
H722   H     0.74157   0.62395   0.11838   0.00000  Uiso   1.00
H723   H     0.83321   0.65638   0.85876   0.00000  Uiso   1.00
H724   H     0.71768   0.72521   0.88011   0.00000  Uiso   1.00
H725   H     0.71053   0.56543   0.27706   0.00000  Uiso   1.00
H726   H     0.90375   0.63383   0.72961   0.00000  Uiso   1.00
H727   H     0.66014   0.77897   0.77464   0.00000  Uiso   1.00
O728   O     0.66973   0.49689   0.27721   0.00000  Uiso   1.00
O729   O     0.92322   0.58664   0.55897   0.00000  Uiso   1.00
O730   O     0.60361   0.77705   0.61804   0.00000  Uiso   1.00
N731   N     0.67369   0.51123   0.08661   0.00000  Uiso   1.00
N732   N     0.85434   0.57518   0.57480   0.00000  Uiso   1.00
N733   N     0.62659   0.71087   0.61686   0.00000  Uiso   1.00
N734   N     0.70163   0.55344   0.20393   0.00000  Uiso   1.00
N735   N     0.88228   0.61738   0.69212   0.00000  Uiso   1.00
N736   N     0.65453   0.75308   0.73418   0.00000  Uiso   1.00
