data_job_01184
_audit_creation_date              2018-12-19
_audit_creation_method            'Materials Studio'
_symmetry_space_group_name_H-M    'P1'
_symmetry_Int_Tables_number       1
_symmetry_cell_setting            triclinic
loop_
_symmetry_equiv_pos_as_xyz
  x,y,z
_cell_length_a                    23.7841
_cell_length_b                    23.7841
_cell_length_c                    21.3671
_cell_angle_alpha                 90.0000
_cell_angle_beta                  90.0000
_cell_angle_gamma                 90.0000
loop_
_atom_site_label
_atom_site_type_symbol
_atom_site_fract_x
_atom_site_fract_y
_atom_site_fract_z
_atom_site_U_iso_or_equiv
_atom_site_adp_type
_atom_site_occupancy
C1     C     0.15735   0.36942   0.41516   0.00000  Uiso   1.00
C2     C     0.14806   0.42307   0.45286   0.00000  Uiso   1.00
C3     C     0.17606   0.47364   0.44405   0.00000  Uiso   1.00
C4     C     0.16153   0.51778   0.48338   0.00000  Uiso   1.00
C5     C     0.15337   0.60202   0.53487   0.00000  Uiso   1.00
C6     C     0.17215   0.32390   0.46264   0.00000  Uiso   1.00
C7     C     0.22041   0.29109   0.46204   0.00000  Uiso   1.00
C8     C     0.22615   0.25173   0.50960   0.00000  Uiso   1.00
C9     C     0.25538   0.18198   0.57624   0.00000  Uiso   1.00
C10    C     0.10005   0.35338   0.38861   0.00000  Uiso   1.00
C11    C     0.08767   0.34535   0.32577   0.00000  Uiso   1.00
C12    C     0.03271   0.33080   0.31101   0.00000  Uiso   1.00
C13    C     0.94997   0.30684   0.26271   0.00000  Uiso   1.00
C14    C     0.08176   0.35786   0.50069   0.00000  Uiso   1.00
C15    C     0.10701   0.41679   0.49932   0.00000  Uiso   1.00
C16    C     0.09243   0.46085   0.53867   0.00000  Uiso   1.00
C17    C     0.12040   0.51149   0.52992   0.00000  Uiso   1.00
C18    C     0.13110   0.31762   0.50909   0.00000  Uiso   1.00
C19    C     0.13678   0.27830   0.55667   0.00000  Uiso   1.00
C20    C     0.18502   0.24544   0.55614   0.00000  Uiso   1.00
C21    C     0.05899   0.34710   0.43507   0.00000  Uiso   1.00
C22    C     0.00404   0.33256   0.42040   0.00000  Uiso   1.00
C23    C     0.99158   0.32451   0.35755   0.00000  Uiso   1.00
H24    H     0.18932   0.37431   0.37900   0.00000  Uiso   1.00
H25    H     0.20784   0.47848   0.40809   0.00000  Uiso   1.00
H26    H     0.25217   0.29595   0.42608   0.00000  Uiso   1.00
H27    H     0.11945   0.35021   0.28983   0.00000  Uiso   1.00
H28    H     0.21027   0.59121   0.46085   0.00000  Uiso   1.00
H29    H     0.30374   0.20632   0.49877   0.00000  Uiso   1.00
H30    H     0.02388   0.32073   0.21146   0.00000  Uiso   1.00
H31    H     0.04980   0.35297   0.53686   0.00000  Uiso   1.00
H32    H     0.06066   0.45598   0.57462   0.00000  Uiso   1.00
H33    H     0.10499   0.27345   0.59261   0.00000  Uiso   1.00
H34    H     0.97227   0.32771   0.45636   0.00000  Uiso   1.00
H35    H     0.09082   0.57294   0.59602   0.00000  Uiso   1.00
H36    H     0.18429   0.18805   0.63393   0.00000  Uiso   1.00
H37    H     0.90443   0.30246   0.34663   0.00000  Uiso   1.00
O38    O     0.16022   0.65022   0.55044   0.00000  Uiso   1.00
O39    O     0.28285   0.14525   0.60017   0.00000  Uiso   1.00
O40    O     0.91567   0.29536   0.22324   0.00000  Uiso   1.00
N41    N     0.18066   0.57278   0.48747   0.00000  Uiso   1.00
N42    N     0.26806   0.21293   0.52293   0.00000  Uiso   1.00
N43    N     0.00641   0.31988   0.25432   0.00000  Uiso   1.00
N44    N     0.11638   0.56295   0.56020   0.00000  Uiso   1.00
N45    N     0.20378   0.20310   0.59566   0.00000  Uiso   1.00
N46    N     0.94213   0.31005   0.32705   0.00000  Uiso   1.00
C47    C     0.65735   0.86942   0.91516   0.00000  Uiso   1.00
C48    C     0.64806   0.92307   0.95286   0.00000  Uiso   1.00
C49    C     0.67606   0.97364   0.94405   0.00000  Uiso   1.00
C50    C     0.66153   0.01778   0.98338   0.00000  Uiso   1.00
C51    C     0.65337   0.10202   0.03487   0.00000  Uiso   1.00
C52    C     0.67215   0.82390   0.96264   0.00000  Uiso   1.00
C53    C     0.72041   0.79109   0.96204   0.00000  Uiso   1.00
C54    C     0.72615   0.75173   0.00960   0.00000  Uiso   1.00
C55    C     0.75538   0.68198   0.07624   0.00000  Uiso   1.00
C56    C     0.60005   0.85338   0.88861   0.00000  Uiso   1.00
C57    C     0.58767   0.84535   0.82577   0.00000  Uiso   1.00
C58    C     0.53271   0.83080   0.81101   0.00000  Uiso   1.00
C59    C     0.44997   0.80684   0.76271   0.00000  Uiso   1.00
C60    C     0.58176   0.85786   0.00069   0.00000  Uiso   1.00
C61    C     0.60701   0.91679   0.99932   0.00000  Uiso   1.00
C62    C     0.59243   0.96085   0.03867   0.00000  Uiso   1.00
C63    C     0.62040   0.01149   0.02992   0.00000  Uiso   1.00
C64    C     0.63110   0.81762   0.00909   0.00000  Uiso   1.00
C65    C     0.63678   0.77830   0.05667   0.00000  Uiso   1.00
C66    C     0.68502   0.74544   0.05614   0.00000  Uiso   1.00
C67    C     0.55899   0.84710   0.93507   0.00000  Uiso   1.00
C68    C     0.50404   0.83256   0.92040   0.00000  Uiso   1.00
C69    C     0.49158   0.82451   0.85755   0.00000  Uiso   1.00
H70    H     0.68932   0.87431   0.87900   0.00000  Uiso   1.00
H71    H     0.70784   0.97848   0.90809   0.00000  Uiso   1.00
H72    H     0.75217   0.79595   0.92608   0.00000  Uiso   1.00
H73    H     0.61945   0.85021   0.78983   0.00000  Uiso   1.00
H74    H     0.71027   0.09121   0.96085   0.00000  Uiso   1.00
H75    H     0.80374   0.70632   0.99877   0.00000  Uiso   1.00
H76    H     0.52388   0.82073   0.71146   0.00000  Uiso   1.00
H77    H     0.54980   0.85297   0.03686   0.00000  Uiso   1.00
H78    H     0.56066   0.95598   0.07462   0.00000  Uiso   1.00
H79    H     0.60499   0.77345   0.09261   0.00000  Uiso   1.00
H80    H     0.47227   0.82771   0.95636   0.00000  Uiso   1.00
H81    H     0.59082   0.07294   0.09602   0.00000  Uiso   1.00
H82    H     0.68429   0.68805   0.13393   0.00000  Uiso   1.00
H83    H     0.40443   0.80246   0.84663   0.00000  Uiso   1.00
O84    O     0.66022   0.15022   0.05044   0.00000  Uiso   1.00
O85    O     0.78285   0.64525   0.10017   0.00000  Uiso   1.00
O86    O     0.41567   0.79536   0.72324   0.00000  Uiso   1.00
N87    N     0.68066   0.07278   0.98747   0.00000  Uiso   1.00
N88    N     0.76806   0.71293   0.02293   0.00000  Uiso   1.00
N89    N     0.50641   0.81988   0.75432   0.00000  Uiso   1.00
N90    N     0.61638   0.06295   0.06020   0.00000  Uiso   1.00
N91    N     0.70378   0.70310   0.09566   0.00000  Uiso   1.00
N92    N     0.44213   0.81005   0.82705   0.00000  Uiso   1.00
C93    C     0.34265   0.13058   0.91516   0.00000  Uiso   1.00
C94    C     0.35194   0.07693   0.95286   0.00000  Uiso   1.00
C95    C     0.32394   0.02636   0.94405   0.00000  Uiso   1.00
C96    C     0.33847   0.98222   0.98338   0.00000  Uiso   1.00
C97    C     0.34663   0.89798   0.03487   0.00000  Uiso   1.00
C98    C     0.32785   0.17610   0.96264   0.00000  Uiso   1.00
C99    C     0.27959   0.20891   0.96204   0.00000  Uiso   1.00
C100   C     0.27385   0.24827   0.00960   0.00000  Uiso   1.00
C101   C     0.24462   0.31802   0.07624   0.00000  Uiso   1.00
C102   C     0.39995   0.14662   0.88861   0.00000  Uiso   1.00
C103   C     0.41233   0.15465   0.82577   0.00000  Uiso   1.00
C104   C     0.46729   0.16920   0.81101   0.00000  Uiso   1.00
C105   C     0.55003   0.19316   0.76271   0.00000  Uiso   1.00
C106   C     0.41824   0.14214   0.00069   0.00000  Uiso   1.00
C107   C     0.39299   0.08321   0.99932   0.00000  Uiso   1.00
C108   C     0.40757   0.03915   0.03867   0.00000  Uiso   1.00
C109   C     0.37960   0.98851   0.02992   0.00000  Uiso   1.00
C110   C     0.36890   0.18238   0.00909   0.00000  Uiso   1.00
C111   C     0.36322   0.22170   0.05667   0.00000  Uiso   1.00
C112   C     0.31498   0.25456   0.05614   0.00000  Uiso   1.00
C113   C     0.44101   0.15290   0.93507   0.00000  Uiso   1.00
C114   C     0.49596   0.16744   0.92040   0.00000  Uiso   1.00
C115   C     0.50842   0.17549   0.85755   0.00000  Uiso   1.00
H116   H     0.31068   0.12569   0.87900   0.00000  Uiso   1.00
H117   H     0.29216   0.02152   0.90809   0.00000  Uiso   1.00
H118   H     0.24783   0.20405   0.92608   0.00000  Uiso   1.00
H119   H     0.38055   0.14979   0.78983   0.00000  Uiso   1.00
H120   H     0.28973   0.90879   0.96085   0.00000  Uiso   1.00
H121   H     0.19626   0.29368   0.99877   0.00000  Uiso   1.00
H122   H     0.47612   0.17927   0.71146   0.00000  Uiso   1.00
H123   H     0.45020   0.14703   0.03686   0.00000  Uiso   1.00
H124   H     0.43934   0.04402   0.07462   0.00000  Uiso   1.00
H125   H     0.39501   0.22655   0.09261   0.00000  Uiso   1.00
H126   H     0.52773   0.17229   0.95636   0.00000  Uiso   1.00
H127   H     0.40918   0.92706   0.09602   0.00000  Uiso   1.00
H128   H     0.31571   0.31195   0.13393   0.00000  Uiso   1.00
H129   H     0.59557   0.19754   0.84663   0.00000  Uiso   1.00
O130   O     0.33978   0.84978   0.05044   0.00000  Uiso   1.00
O131   O     0.21715   0.35475   0.10017   0.00000  Uiso   1.00
O132   O     0.58433   0.20464   0.72324   0.00000  Uiso   1.00
N133   N     0.31934   0.92722   0.98747   0.00000  Uiso   1.00
N134   N     0.23194   0.28707   0.02293   0.00000  Uiso   1.00
N135   N     0.49359   0.18012   0.75432   0.00000  Uiso   1.00
N136   N     0.38362   0.93705   0.06020   0.00000  Uiso   1.00
N137   N     0.29622   0.29690   0.09566   0.00000  Uiso   1.00
N138   N     0.55787   0.18995   0.82705   0.00000  Uiso   1.00
C139   C     0.84265   0.63058   0.41516   0.00000  Uiso   1.00
C140   C     0.85194   0.57693   0.45286   0.00000  Uiso   1.00
C141   C     0.82394   0.52636   0.44405   0.00000  Uiso   1.00
C142   C     0.83847   0.48222   0.48338   0.00000  Uiso   1.00
C143   C     0.84663   0.39798   0.53487   0.00000  Uiso   1.00
C144   C     0.82785   0.67610   0.46264   0.00000  Uiso   1.00
C145   C     0.77959   0.70891   0.46204   0.00000  Uiso   1.00
C146   C     0.77385   0.74827   0.50960   0.00000  Uiso   1.00
C147   C     0.74462   0.81802   0.57624   0.00000  Uiso   1.00
C148   C     0.89995   0.64662   0.38861   0.00000  Uiso   1.00
C149   C     0.91233   0.65465   0.32577   0.00000  Uiso   1.00
C150   C     0.96729   0.66920   0.31101   0.00000  Uiso   1.00
C151   C     0.05003   0.69316   0.26271   0.00000  Uiso   1.00
C152   C     0.91824   0.64214   0.50069   0.00000  Uiso   1.00
C153   C     0.89299   0.58321   0.49932   0.00000  Uiso   1.00
C154   C     0.90757   0.53915   0.53867   0.00000  Uiso   1.00
C155   C     0.87960   0.48851   0.52992   0.00000  Uiso   1.00
C156   C     0.86890   0.68238   0.50909   0.00000  Uiso   1.00
C157   C     0.86322   0.72170   0.55667   0.00000  Uiso   1.00
C158   C     0.81498   0.75456   0.55614   0.00000  Uiso   1.00
C159   C     0.94101   0.65290   0.43507   0.00000  Uiso   1.00
C160   C     0.99596   0.66744   0.42040   0.00000  Uiso   1.00
C161   C     0.00842   0.67549   0.35755   0.00000  Uiso   1.00
H162   H     0.81068   0.62569   0.37900   0.00000  Uiso   1.00
H163   H     0.79216   0.52152   0.40809   0.00000  Uiso   1.00
H164   H     0.74783   0.70405   0.42608   0.00000  Uiso   1.00
H165   H     0.88055   0.64979   0.28983   0.00000  Uiso   1.00
H166   H     0.78973   0.40879   0.46085   0.00000  Uiso   1.00
H167   H     0.69626   0.79368   0.49877   0.00000  Uiso   1.00
H168   H     0.97612   0.67927   0.21146   0.00000  Uiso   1.00
H169   H     0.95020   0.64703   0.53686   0.00000  Uiso   1.00
H170   H     0.93934   0.54402   0.57462   0.00000  Uiso   1.00
H171   H     0.89501   0.72655   0.59261   0.00000  Uiso   1.00
H172   H     0.02773   0.67229   0.45636   0.00000  Uiso   1.00
H173   H     0.90918   0.42706   0.59602   0.00000  Uiso   1.00
H174   H     0.81571   0.81195   0.63393   0.00000  Uiso   1.00
H175   H     0.09557   0.69754   0.34663   0.00000  Uiso   1.00
O176   O     0.83978   0.34978   0.55044   0.00000  Uiso   1.00
O177   O     0.71715   0.85475   0.60017   0.00000  Uiso   1.00
O178   O     0.08433   0.70464   0.22324   0.00000  Uiso   1.00
N179   N     0.81934   0.42722   0.48747   0.00000  Uiso   1.00
N180   N     0.73194   0.78707   0.52293   0.00000  Uiso   1.00
N181   N     0.99359   0.68012   0.25432   0.00000  Uiso   1.00
N182   N     0.88362   0.43705   0.56020   0.00000  Uiso   1.00
N183   N     0.79622   0.79690   0.59566   0.00000  Uiso   1.00
N184   N     0.05787   0.68995   0.32705   0.00000  Uiso   1.00
C185   C     0.63058   0.65735   0.66516   0.00000  Uiso   1.00
C186   C     0.57693   0.64806   0.70286   0.00000  Uiso   1.00
C187   C     0.52636   0.67606   0.69405   0.00000  Uiso   1.00
C188   C     0.48222   0.66153   0.73338   0.00000  Uiso   1.00
C189   C     0.39798   0.65337   0.78487   0.00000  Uiso   1.00
C190   C     0.67610   0.67215   0.71264   0.00000  Uiso   1.00
C191   C     0.70891   0.72041   0.71204   0.00000  Uiso   1.00
C192   C     0.74827   0.72615   0.75960   0.00000  Uiso   1.00
C193   C     0.81802   0.75538   0.82624   0.00000  Uiso   1.00
C194   C     0.64662   0.60005   0.63861   0.00000  Uiso   1.00
C195   C     0.65465   0.58767   0.57577   0.00000  Uiso   1.00
C196   C     0.66920   0.53271   0.56101   0.00000  Uiso   1.00
C197   C     0.69316   0.44997   0.51271   0.00000  Uiso   1.00
C198   C     0.64214   0.58176   0.75069   0.00000  Uiso   1.00
C199   C     0.58321   0.60701   0.74932   0.00000  Uiso   1.00
C200   C     0.53915   0.59243   0.78867   0.00000  Uiso   1.00
C201   C     0.48851   0.62040   0.77992   0.00000  Uiso   1.00
C202   C     0.68238   0.63110   0.75909   0.00000  Uiso   1.00
C203   C     0.72170   0.63678   0.80667   0.00000  Uiso   1.00
C204   C     0.75456   0.68502   0.80614   0.00000  Uiso   1.00
C205   C     0.65290   0.55899   0.68507   0.00000  Uiso   1.00
C206   C     0.66744   0.50404   0.67040   0.00000  Uiso   1.00
C207   C     0.67549   0.49158   0.60755   0.00000  Uiso   1.00
H208   H     0.62569   0.68932   0.62900   0.00000  Uiso   1.00
H209   H     0.52152   0.70784   0.65809   0.00000  Uiso   1.00
H210   H     0.70405   0.75217   0.67608   0.00000  Uiso   1.00
H211   H     0.64979   0.61945   0.53983   0.00000  Uiso   1.00
H212   H     0.40879   0.71027   0.71085   0.00000  Uiso   1.00
H213   H     0.79368   0.80374   0.74877   0.00000  Uiso   1.00
H214   H     0.67927   0.52388   0.46146   0.00000  Uiso   1.00
H215   H     0.64703   0.54980   0.78686   0.00000  Uiso   1.00
H216   H     0.54402   0.56066   0.82462   0.00000  Uiso   1.00
H217   H     0.72655   0.60499   0.84261   0.00000  Uiso   1.00
H218   H     0.67229   0.47227   0.70636   0.00000  Uiso   1.00
H219   H     0.42706   0.59082   0.84602   0.00000  Uiso   1.00
H220   H     0.81195   0.68429   0.88393   0.00000  Uiso   1.00
H221   H     0.69754   0.40443   0.59663   0.00000  Uiso   1.00
O222   O     0.34978   0.66022   0.80044   0.00000  Uiso   1.00
O223   O     0.85475   0.78285   0.85017   0.00000  Uiso   1.00
O224   O     0.70464   0.41567   0.47324   0.00000  Uiso   1.00
N225   N     0.42722   0.68066   0.73747   0.00000  Uiso   1.00
N226   N     0.78707   0.76806   0.77293   0.00000  Uiso   1.00
N227   N     0.68012   0.50641   0.50432   0.00000  Uiso   1.00
N228   N     0.43705   0.61638   0.81020   0.00000  Uiso   1.00
N229   N     0.79690   0.70378   0.84566   0.00000  Uiso   1.00
N230   N     0.68995   0.44213   0.57705   0.00000  Uiso   1.00
C231   C     0.13058   0.15735   0.16516   0.00000  Uiso   1.00
C232   C     0.07693   0.14806   0.20286   0.00000  Uiso   1.00
C233   C     0.02636   0.17606   0.19405   0.00000  Uiso   1.00
C234   C     0.98222   0.16153   0.23338   0.00000  Uiso   1.00
C235   C     0.89798   0.15337   0.28487   0.00000  Uiso   1.00
C236   C     0.17610   0.17215   0.21264   0.00000  Uiso   1.00
C237   C     0.20891   0.22041   0.21204   0.00000  Uiso   1.00
C238   C     0.24827   0.22615   0.25960   0.00000  Uiso   1.00
C239   C     0.31802   0.25538   0.32624   0.00000  Uiso   1.00
C240   C     0.14662   0.10005   0.13861   0.00000  Uiso   1.00
C241   C     0.15465   0.08767   0.07577   0.00000  Uiso   1.00
C242   C     0.16920   0.03271   0.06101   0.00000  Uiso   1.00
C243   C     0.19316   0.94997   0.01271   0.00000  Uiso   1.00
C244   C     0.14214   0.08176   0.25069   0.00000  Uiso   1.00
C245   C     0.08321   0.10701   0.24932   0.00000  Uiso   1.00
C246   C     0.03915   0.09243   0.28867   0.00000  Uiso   1.00
C247   C     0.98851   0.12040   0.27992   0.00000  Uiso   1.00
C248   C     0.18238   0.13110   0.25909   0.00000  Uiso   1.00
C249   C     0.22170   0.13678   0.30667   0.00000  Uiso   1.00
C250   C     0.25456   0.18502   0.30614   0.00000  Uiso   1.00
C251   C     0.15290   0.05899   0.18507   0.00000  Uiso   1.00
C252   C     0.16744   0.00404   0.17040   0.00000  Uiso   1.00
C253   C     0.17549   0.99158   0.10755   0.00000  Uiso   1.00
H254   H     0.12569   0.18932   0.12900   0.00000  Uiso   1.00
H255   H     0.02152   0.20784   0.15809   0.00000  Uiso   1.00
H256   H     0.20405   0.25217   0.17608   0.00000  Uiso   1.00
H257   H     0.14979   0.11945   0.03983   0.00000  Uiso   1.00
H258   H     0.90879   0.21027   0.21085   0.00000  Uiso   1.00
H259   H     0.29368   0.30374   0.24877   0.00000  Uiso   1.00
H260   H     0.17927   0.02388   0.96146   0.00000  Uiso   1.00
H261   H     0.14703   0.04980   0.28686   0.00000  Uiso   1.00
H262   H     0.04402   0.06066   0.32462   0.00000  Uiso   1.00
H263   H     0.22655   0.10499   0.34261   0.00000  Uiso   1.00
H264   H     0.17229   0.97227   0.20636   0.00000  Uiso   1.00
H265   H     0.92706   0.09082   0.34602   0.00000  Uiso   1.00
H266   H     0.31195   0.18429   0.38393   0.00000  Uiso   1.00
H267   H     0.19754   0.90443   0.09663   0.00000  Uiso   1.00
O268   O     0.84978   0.16022   0.30044   0.00000  Uiso   1.00
O269   O     0.35475   0.28285   0.35017   0.00000  Uiso   1.00
O270   O     0.20464   0.91567   0.97324   0.00000  Uiso   1.00
N271   N     0.92722   0.18066   0.23747   0.00000  Uiso   1.00
N272   N     0.28707   0.26806   0.27293   0.00000  Uiso   1.00
N273   N     0.18012   0.00641   0.00432   0.00000  Uiso   1.00
N274   N     0.93705   0.11638   0.31020   0.00000  Uiso   1.00
N275   N     0.29690   0.20378   0.34566   0.00000  Uiso   1.00
N276   N     0.18995   0.94213   0.07705   0.00000  Uiso   1.00
C277   C     0.86942   0.84265   0.16516   0.00000  Uiso   1.00
C278   C     0.92307   0.85194   0.20286   0.00000  Uiso   1.00
C279   C     0.97364   0.82394   0.19405   0.00000  Uiso   1.00
C280   C     0.01778   0.83847   0.23338   0.00000  Uiso   1.00
C281   C     0.10202   0.84663   0.28487   0.00000  Uiso   1.00
C282   C     0.82390   0.82785   0.21264   0.00000  Uiso   1.00
C283   C     0.79109   0.77959   0.21204   0.00000  Uiso   1.00
C284   C     0.75173   0.77385   0.25960   0.00000  Uiso   1.00
C285   C     0.68198   0.74462   0.32624   0.00000  Uiso   1.00
C286   C     0.85338   0.89995   0.13861   0.00000  Uiso   1.00
C287   C     0.84535   0.91233   0.07577   0.00000  Uiso   1.00
C288   C     0.83080   0.96729   0.06101   0.00000  Uiso   1.00
C289   C     0.80684   0.05003   0.01271   0.00000  Uiso   1.00
C290   C     0.85786   0.91824   0.25069   0.00000  Uiso   1.00
C291   C     0.91679   0.89299   0.24932   0.00000  Uiso   1.00
C292   C     0.96085   0.90757   0.28867   0.00000  Uiso   1.00
C293   C     0.01149   0.87960   0.27992   0.00000  Uiso   1.00
C294   C     0.81762   0.86890   0.25909   0.00000  Uiso   1.00
C295   C     0.77830   0.86322   0.30667   0.00000  Uiso   1.00
C296   C     0.74544   0.81498   0.30614   0.00000  Uiso   1.00
C297   C     0.84710   0.94101   0.18507   0.00000  Uiso   1.00
C298   C     0.83256   0.99596   0.17040   0.00000  Uiso   1.00
C299   C     0.82451   0.00842   0.10755   0.00000  Uiso   1.00
H300   H     0.87431   0.81068   0.12900   0.00000  Uiso   1.00
H301   H     0.97848   0.79216   0.15809   0.00000  Uiso   1.00
H302   H     0.79595   0.74783   0.17608   0.00000  Uiso   1.00
H303   H     0.85021   0.88055   0.03983   0.00000  Uiso   1.00
H304   H     0.09121   0.78973   0.21085   0.00000  Uiso   1.00
H305   H     0.70632   0.69626   0.24877   0.00000  Uiso   1.00
H306   H     0.82073   0.97612   0.96146   0.00000  Uiso   1.00
H307   H     0.85297   0.95020   0.28686   0.00000  Uiso   1.00
H308   H     0.95598   0.93934   0.32462   0.00000  Uiso   1.00
H309   H     0.77345   0.89501   0.34261   0.00000  Uiso   1.00
H310   H     0.82771   0.02773   0.20636   0.00000  Uiso   1.00
H311   H     0.07294   0.90918   0.34602   0.00000  Uiso   1.00
H312   H     0.68805   0.81571   0.38393   0.00000  Uiso   1.00
H313   H     0.80246   0.09557   0.09663   0.00000  Uiso   1.00
O314   O     0.15022   0.83978   0.30044   0.00000  Uiso   1.00
O315   O     0.64525   0.71715   0.35017   0.00000  Uiso   1.00
O316   O     0.79536   0.08433   0.97324   0.00000  Uiso   1.00
N317   N     0.07278   0.81934   0.23747   0.00000  Uiso   1.00
N318   N     0.71293   0.73194   0.27293   0.00000  Uiso   1.00
N319   N     0.81988   0.99359   0.00432   0.00000  Uiso   1.00
N320   N     0.06295   0.88362   0.31020   0.00000  Uiso   1.00
N321   N     0.70310   0.79622   0.34566   0.00000  Uiso   1.00
N322   N     0.81005   0.05787   0.07705   0.00000  Uiso   1.00
C323   C     0.36942   0.34265   0.66516   0.00000  Uiso   1.00
C324   C     0.42307   0.35194   0.70286   0.00000  Uiso   1.00
C325   C     0.47364   0.32394   0.69405   0.00000  Uiso   1.00
C326   C     0.51778   0.33847   0.73338   0.00000  Uiso   1.00
C327   C     0.60202   0.34663   0.78487   0.00000  Uiso   1.00
C328   C     0.32390   0.32785   0.71264   0.00000  Uiso   1.00
C329   C     0.29109   0.27959   0.71204   0.00000  Uiso   1.00
C330   C     0.25173   0.27385   0.75960   0.00000  Uiso   1.00
C331   C     0.18198   0.24462   0.82624   0.00000  Uiso   1.00
C332   C     0.35338   0.39995   0.63861   0.00000  Uiso   1.00
C333   C     0.34535   0.41233   0.57577   0.00000  Uiso   1.00
C334   C     0.33080   0.46729   0.56101   0.00000  Uiso   1.00
C335   C     0.30684   0.55003   0.51271   0.00000  Uiso   1.00
C336   C     0.35786   0.41824   0.75069   0.00000  Uiso   1.00
C337   C     0.41679   0.39299   0.74932   0.00000  Uiso   1.00
C338   C     0.46085   0.40757   0.78867   0.00000  Uiso   1.00
C339   C     0.51149   0.37960   0.77992   0.00000  Uiso   1.00
C340   C     0.31762   0.36890   0.75909   0.00000  Uiso   1.00
C341   C     0.27830   0.36322   0.80667   0.00000  Uiso   1.00
C342   C     0.24544   0.31498   0.80614   0.00000  Uiso   1.00
C343   C     0.34710   0.44101   0.68507   0.00000  Uiso   1.00
C344   C     0.33256   0.49596   0.67040   0.00000  Uiso   1.00
C345   C     0.32451   0.50842   0.60755   0.00000  Uiso   1.00
H346   H     0.37431   0.31068   0.62900   0.00000  Uiso   1.00
H347   H     0.47848   0.29216   0.65809   0.00000  Uiso   1.00
H348   H     0.29595   0.24783   0.67608   0.00000  Uiso   1.00
H349   H     0.35021   0.38055   0.53983   0.00000  Uiso   1.00
H350   H     0.59121   0.28973   0.71085   0.00000  Uiso   1.00
H351   H     0.20632   0.19626   0.74877   0.00000  Uiso   1.00
H352   H     0.32073   0.47612   0.46146   0.00000  Uiso   1.00
H353   H     0.35297   0.45020   0.78686   0.00000  Uiso   1.00
H354   H     0.45598   0.43934   0.82462   0.00000  Uiso   1.00
H355   H     0.27345   0.39501   0.84261   0.00000  Uiso   1.00
H356   H     0.32771   0.52773   0.70636   0.00000  Uiso   1.00
H357   H     0.57294   0.40918   0.84602   0.00000  Uiso   1.00
H358   H     0.18805   0.31571   0.88393   0.00000  Uiso   1.00
H359   H     0.30246   0.59557   0.59663   0.00000  Uiso   1.00
O360   O     0.65022   0.33978   0.80044   0.00000  Uiso   1.00
O361   O     0.14525   0.21715   0.85017   0.00000  Uiso   1.00
O362   O     0.29536   0.58433   0.47324   0.00000  Uiso   1.00
N363   N     0.57278   0.31934   0.73747   0.00000  Uiso   1.00
N364   N     0.21293   0.23194   0.77293   0.00000  Uiso   1.00
N365   N     0.31988   0.49359   0.50432   0.00000  Uiso   1.00
N366   N     0.56295   0.38362   0.81020   0.00000  Uiso   1.00
N367   N     0.20310   0.29622   0.84566   0.00000  Uiso   1.00
N368   N     0.31005   0.55787   0.57705   0.00000  Uiso   1.00
C369   C     0.84265   0.13058   0.83484   0.00000  Uiso   1.00
C370   C     0.85194   0.07693   0.79714   0.00000  Uiso   1.00
C371   C     0.82394   0.02636   0.80595   0.00000  Uiso   1.00
C372   C     0.83847   0.98222   0.76662   0.00000  Uiso   1.00
C373   C     0.84663   0.89798   0.71513   0.00000  Uiso   1.00
C374   C     0.82785   0.17610   0.78736   0.00000  Uiso   1.00
C375   C     0.77959   0.20891   0.78796   0.00000  Uiso   1.00
C376   C     0.77385   0.24827   0.74040   0.00000  Uiso   1.00
C377   C     0.74462   0.31802   0.67376   0.00000  Uiso   1.00
C378   C     0.89995   0.14662   0.86139   0.00000  Uiso   1.00
C379   C     0.91233   0.15465   0.92423   0.00000  Uiso   1.00
C380   C     0.96729   0.16920   0.93899   0.00000  Uiso   1.00
C381   C     0.05003   0.19316   0.98729   0.00000  Uiso   1.00
C382   C     0.91824   0.14214   0.74931   0.00000  Uiso   1.00
C383   C     0.89299   0.08321   0.75068   0.00000  Uiso   1.00
C384   C     0.90757   0.03915   0.71133   0.00000  Uiso   1.00
C385   C     0.87960   0.98851   0.72008   0.00000  Uiso   1.00
C386   C     0.86890   0.18238   0.74091   0.00000  Uiso   1.00
C387   C     0.86322   0.22170   0.69333   0.00000  Uiso   1.00
C388   C     0.81498   0.25456   0.69386   0.00000  Uiso   1.00
C389   C     0.94101   0.15290   0.81493   0.00000  Uiso   1.00
C390   C     0.99596   0.16744   0.82960   0.00000  Uiso   1.00
C391   C     0.00842   0.17549   0.89245   0.00000  Uiso   1.00
H392   H     0.81068   0.12569   0.87100   0.00000  Uiso   1.00
H393   H     0.79216   0.02152   0.84191   0.00000  Uiso   1.00
H394   H     0.74783   0.20405   0.82392   0.00000  Uiso   1.00
H395   H     0.88055   0.14979   0.96017   0.00000  Uiso   1.00
H396   H     0.78973   0.90879   0.78915   0.00000  Uiso   1.00
H397   H     0.69626   0.29368   0.75123   0.00000  Uiso   1.00
H398   H     0.97612   0.17927   0.03854   0.00000  Uiso   1.00
H399   H     0.95020   0.14703   0.71314   0.00000  Uiso   1.00
H400   H     0.93934   0.04402   0.67538   0.00000  Uiso   1.00
H401   H     0.89501   0.22655   0.65739   0.00000  Uiso   1.00
H402   H     0.02773   0.17229   0.79364   0.00000  Uiso   1.00
H403   H     0.90918   0.92706   0.65398   0.00000  Uiso   1.00
H404   H     0.81571   0.31195   0.61607   0.00000  Uiso   1.00
H405   H     0.09557   0.19754   0.90337   0.00000  Uiso   1.00
O406   O     0.83978   0.84978   0.69956   0.00000  Uiso   1.00
O407   O     0.71715   0.35475   0.64983   0.00000  Uiso   1.00
O408   O     0.08433   0.20464   0.02676   0.00000  Uiso   1.00
N409   N     0.81934   0.92722   0.76253   0.00000  Uiso   1.00
N410   N     0.73194   0.28707   0.72707   0.00000  Uiso   1.00
N411   N     0.99359   0.18012   0.99568   0.00000  Uiso   1.00
N412   N     0.88362   0.93705   0.68980   0.00000  Uiso   1.00
N413   N     0.79622   0.29690   0.65434   0.00000  Uiso   1.00
N414   N     0.05787   0.18995   0.92295   0.00000  Uiso   1.00
C415   C     0.34265   0.63058   0.33484   0.00000  Uiso   1.00
C416   C     0.35194   0.57693   0.29714   0.00000  Uiso   1.00
C417   C     0.32394   0.52636   0.30595   0.00000  Uiso   1.00
C418   C     0.33847   0.48222   0.26662   0.00000  Uiso   1.00
C419   C     0.34663   0.39798   0.21513   0.00000  Uiso   1.00
C420   C     0.32785   0.67610   0.28736   0.00000  Uiso   1.00
C421   C     0.27959   0.70891   0.28796   0.00000  Uiso   1.00
C422   C     0.27385   0.74827   0.24040   0.00000  Uiso   1.00
C423   C     0.24462   0.81802   0.17376   0.00000  Uiso   1.00
C424   C     0.39995   0.64662   0.36139   0.00000  Uiso   1.00
C425   C     0.41233   0.65465   0.42423   0.00000  Uiso   1.00
C426   C     0.46729   0.66920   0.43899   0.00000  Uiso   1.00
C427   C     0.55003   0.69316   0.48729   0.00000  Uiso   1.00
C428   C     0.41824   0.64214   0.24931   0.00000  Uiso   1.00
C429   C     0.39299   0.58321   0.25068   0.00000  Uiso   1.00
C430   C     0.40757   0.53915   0.21133   0.00000  Uiso   1.00
C431   C     0.37960   0.48851   0.22008   0.00000  Uiso   1.00
C432   C     0.36890   0.68238   0.24091   0.00000  Uiso   1.00
C433   C     0.36322   0.72170   0.19333   0.00000  Uiso   1.00
C434   C     0.31498   0.75456   0.19386   0.00000  Uiso   1.00
C435   C     0.44101   0.65290   0.31493   0.00000  Uiso   1.00
C436   C     0.49596   0.66744   0.32960   0.00000  Uiso   1.00
C437   C     0.50842   0.67549   0.39245   0.00000  Uiso   1.00
H438   H     0.31068   0.62569   0.37100   0.00000  Uiso   1.00
H439   H     0.29216   0.52152   0.34191   0.00000  Uiso   1.00
H440   H     0.24783   0.70405   0.32392   0.00000  Uiso   1.00
H441   H     0.38055   0.64979   0.46017   0.00000  Uiso   1.00
H442   H     0.28973   0.40879   0.28915   0.00000  Uiso   1.00
H443   H     0.19626   0.79368   0.25123   0.00000  Uiso   1.00
H444   H     0.47612   0.67927   0.53854   0.00000  Uiso   1.00
H445   H     0.45020   0.64703   0.21314   0.00000  Uiso   1.00
H446   H     0.43934   0.54402   0.17538   0.00000  Uiso   1.00
H447   H     0.39501   0.72655   0.15739   0.00000  Uiso   1.00
H448   H     0.52773   0.67229   0.29364   0.00000  Uiso   1.00
H449   H     0.40918   0.42706   0.15398   0.00000  Uiso   1.00
H450   H     0.31571   0.81195   0.11607   0.00000  Uiso   1.00
H451   H     0.59557   0.69754   0.40337   0.00000  Uiso   1.00
O452   O     0.33978   0.34978   0.19956   0.00000  Uiso   1.00
O453   O     0.21715   0.85475   0.14983   0.00000  Uiso   1.00
O454   O     0.58433   0.70464   0.52676   0.00000  Uiso   1.00
N455   N     0.31934   0.42722   0.26253   0.00000  Uiso   1.00
N456   N     0.23194   0.78707   0.22707   0.00000  Uiso   1.00
N457   N     0.49359   0.68012   0.49568   0.00000  Uiso   1.00
N458   N     0.38362   0.43705   0.18980   0.00000  Uiso   1.00
N459   N     0.29622   0.79690   0.15434   0.00000  Uiso   1.00
N460   N     0.55787   0.68995   0.42295   0.00000  Uiso   1.00
C461   C     0.65735   0.36942   0.33484   0.00000  Uiso   1.00
C462   C     0.64806   0.42307   0.29714   0.00000  Uiso   1.00
C463   C     0.67606   0.47364   0.30595   0.00000  Uiso   1.00
C464   C     0.66153   0.51778   0.26662   0.00000  Uiso   1.00
C465   C     0.65337   0.60202   0.21513   0.00000  Uiso   1.00
C466   C     0.67215   0.32390   0.28736   0.00000  Uiso   1.00
C467   C     0.72041   0.29109   0.28796   0.00000  Uiso   1.00
C468   C     0.72615   0.25173   0.24040   0.00000  Uiso   1.00
C469   C     0.75538   0.18198   0.17376   0.00000  Uiso   1.00
C470   C     0.60005   0.35338   0.36139   0.00000  Uiso   1.00
C471   C     0.58767   0.34535   0.42423   0.00000  Uiso   1.00
C472   C     0.53271   0.33080   0.43899   0.00000  Uiso   1.00
C473   C     0.44997   0.30684   0.48729   0.00000  Uiso   1.00
C474   C     0.58176   0.35786   0.24931   0.00000  Uiso   1.00
C475   C     0.60701   0.41679   0.25068   0.00000  Uiso   1.00
C476   C     0.59243   0.46085   0.21133   0.00000  Uiso   1.00
C477   C     0.62040   0.51149   0.22008   0.00000  Uiso   1.00
C478   C     0.63110   0.31762   0.24091   0.00000  Uiso   1.00
C479   C     0.63678   0.27830   0.19333   0.00000  Uiso   1.00
C480   C     0.68502   0.24544   0.19386   0.00000  Uiso   1.00
C481   C     0.55899   0.34710   0.31493   0.00000  Uiso   1.00
C482   C     0.50404   0.33256   0.32960   0.00000  Uiso   1.00
C483   C     0.49158   0.32451   0.39245   0.00000  Uiso   1.00
H484   H     0.68932   0.37431   0.37100   0.00000  Uiso   1.00
H485   H     0.70784   0.47848   0.34191   0.00000  Uiso   1.00
H486   H     0.75217   0.29595   0.32392   0.00000  Uiso   1.00
H487   H     0.61945   0.35021   0.46017   0.00000  Uiso   1.00
H488   H     0.71027   0.59121   0.28915   0.00000  Uiso   1.00
H489   H     0.80374   0.20632   0.25123   0.00000  Uiso   1.00
H490   H     0.52388   0.32073   0.53854   0.00000  Uiso   1.00
H491   H     0.54980   0.35297   0.21314   0.00000  Uiso   1.00
H492   H     0.56066   0.45598   0.17538   0.00000  Uiso   1.00
H493   H     0.60499   0.27345   0.15739   0.00000  Uiso   1.00
H494   H     0.47227   0.32771   0.29364   0.00000  Uiso   1.00
H495   H     0.59082   0.57294   0.15398   0.00000  Uiso   1.00
H496   H     0.68429   0.18805   0.11607   0.00000  Uiso   1.00
H497   H     0.40443   0.30246   0.40337   0.00000  Uiso   1.00
O498   O     0.66022   0.65022   0.19956   0.00000  Uiso   1.00
O499   O     0.78285   0.14525   0.14983   0.00000  Uiso   1.00
O500   O     0.41567   0.29536   0.52676   0.00000  Uiso   1.00
N501   N     0.68066   0.57278   0.26253   0.00000  Uiso   1.00
N502   N     0.76806   0.21293   0.22707   0.00000  Uiso   1.00
N503   N     0.50641   0.31988   0.49568   0.00000  Uiso   1.00
N504   N     0.61638   0.56295   0.18980   0.00000  Uiso   1.00
N505   N     0.70378   0.20310   0.15434   0.00000  Uiso   1.00
N506   N     0.44213   0.31005   0.42295   0.00000  Uiso   1.00
C507   C     0.15735   0.86942   0.83484   0.00000  Uiso   1.00
C508   C     0.14806   0.92307   0.79714   0.00000  Uiso   1.00
C509   C     0.17606   0.97364   0.80595   0.00000  Uiso   1.00
C510   C     0.16153   0.01778   0.76662   0.00000  Uiso   1.00
C511   C     0.15337   0.10202   0.71513   0.00000  Uiso   1.00
C512   C     0.17215   0.82390   0.78736   0.00000  Uiso   1.00
C513   C     0.22041   0.79109   0.78796   0.00000  Uiso   1.00
C514   C     0.22615   0.75173   0.74040   0.00000  Uiso   1.00
C515   C     0.25538   0.68198   0.67376   0.00000  Uiso   1.00
C516   C     0.10005   0.85338   0.86139   0.00000  Uiso   1.00
C517   C     0.08767   0.84535   0.92423   0.00000  Uiso   1.00
C518   C     0.03271   0.83080   0.93899   0.00000  Uiso   1.00
C519   C     0.94997   0.80684   0.98729   0.00000  Uiso   1.00
C520   C     0.08176   0.85786   0.74931   0.00000  Uiso   1.00
C521   C     0.10701   0.91679   0.75068   0.00000  Uiso   1.00
C522   C     0.09243   0.96085   0.71133   0.00000  Uiso   1.00
C523   C     0.12040   0.01149   0.72008   0.00000  Uiso   1.00
C524   C     0.13110   0.81762   0.74091   0.00000  Uiso   1.00
C525   C     0.13678   0.77830   0.69333   0.00000  Uiso   1.00
C526   C     0.18502   0.74544   0.69386   0.00000  Uiso   1.00
C527   C     0.05899   0.84710   0.81493   0.00000  Uiso   1.00
C528   C     0.00404   0.83256   0.82960   0.00000  Uiso   1.00
C529   C     0.99158   0.82451   0.89245   0.00000  Uiso   1.00
H530   H     0.18932   0.87431   0.87100   0.00000  Uiso   1.00
H531   H     0.20784   0.97848   0.84191   0.00000  Uiso   1.00
H532   H     0.25217   0.79595   0.82392   0.00000  Uiso   1.00
H533   H     0.11945   0.85021   0.96017   0.00000  Uiso   1.00
H534   H     0.21027   0.09121   0.78915   0.00000  Uiso   1.00
H535   H     0.30374   0.70632   0.75123   0.00000  Uiso   1.00
H536   H     0.02388   0.82073   0.03854   0.00000  Uiso   1.00
H537   H     0.04980   0.85297   0.71314   0.00000  Uiso   1.00
H538   H     0.06066   0.95598   0.67538   0.00000  Uiso   1.00
H539   H     0.10499   0.77345   0.65739   0.00000  Uiso   1.00
H540   H     0.97227   0.82771   0.79364   0.00000  Uiso   1.00
H541   H     0.09082   0.07294   0.65398   0.00000  Uiso   1.00
H542   H     0.18429   0.68805   0.61607   0.00000  Uiso   1.00
H543   H     0.90443   0.80246   0.90337   0.00000  Uiso   1.00
O544   O     0.16022   0.15022   0.69956   0.00000  Uiso   1.00
O545   O     0.28285   0.64525   0.64983   0.00000  Uiso   1.00
O546   O     0.91567   0.79536   0.02676   0.00000  Uiso   1.00
N547   N     0.18066   0.07278   0.76253   0.00000  Uiso   1.00
N548   N     0.26806   0.71293   0.72707   0.00000  Uiso   1.00
N549   N     0.00641   0.81988   0.99568   0.00000  Uiso   1.00
N550   N     0.11638   0.06295   0.68980   0.00000  Uiso   1.00
N551   N     0.20378   0.70310   0.65434   0.00000  Uiso   1.00
N552   N     0.94213   0.81005   0.92295   0.00000  Uiso   1.00
C553   C     0.36942   0.84265   0.58484   0.00000  Uiso   1.00
C554   C     0.42307   0.85194   0.54714   0.00000  Uiso   1.00
C555   C     0.47364   0.82394   0.55595   0.00000  Uiso   1.00
C556   C     0.51778   0.83847   0.51662   0.00000  Uiso   1.00
C557   C     0.60202   0.84663   0.46513   0.00000  Uiso   1.00
C558   C     0.32390   0.82785   0.53736   0.00000  Uiso   1.00
C559   C     0.29109   0.77959   0.53796   0.00000  Uiso   1.00
C560   C     0.25173   0.77385   0.49040   0.00000  Uiso   1.00
C561   C     0.18198   0.74462   0.42376   0.00000  Uiso   1.00
C562   C     0.35338   0.89995   0.61139   0.00000  Uiso   1.00
C563   C     0.34535   0.91233   0.67423   0.00000  Uiso   1.00
C564   C     0.33080   0.96729   0.68899   0.00000  Uiso   1.00
C565   C     0.30684   0.05003   0.73729   0.00000  Uiso   1.00
C566   C     0.35786   0.91824   0.49931   0.00000  Uiso   1.00
C567   C     0.41679   0.89299   0.50068   0.00000  Uiso   1.00
C568   C     0.46085   0.90757   0.46133   0.00000  Uiso   1.00
C569   C     0.51149   0.87960   0.47008   0.00000  Uiso   1.00
C570   C     0.31762   0.86890   0.49091   0.00000  Uiso   1.00
C571   C     0.27830   0.86322   0.44333   0.00000  Uiso   1.00
C572   C     0.24544   0.81498   0.44386   0.00000  Uiso   1.00
C573   C     0.34710   0.94101   0.56493   0.00000  Uiso   1.00
C574   C     0.33256   0.99596   0.57960   0.00000  Uiso   1.00
C575   C     0.32451   0.00842   0.64245   0.00000  Uiso   1.00
H576   H     0.37431   0.81068   0.62100   0.00000  Uiso   1.00
H577   H     0.47848   0.79216   0.59191   0.00000  Uiso   1.00
H578   H     0.29595   0.74783   0.57392   0.00000  Uiso   1.00
H579   H     0.35021   0.88055   0.71017   0.00000  Uiso   1.00
H580   H     0.59121   0.78973   0.53915   0.00000  Uiso   1.00
H581   H     0.20632   0.69626   0.50123   0.00000  Uiso   1.00
H582   H     0.32073   0.97612   0.78854   0.00000  Uiso   1.00
H583   H     0.35297   0.95020   0.46314   0.00000  Uiso   1.00
H584   H     0.45598   0.93934   0.42538   0.00000  Uiso   1.00
H585   H     0.27345   0.89501   0.40739   0.00000  Uiso   1.00
H586   H     0.32771   0.02773   0.54364   0.00000  Uiso   1.00
H587   H     0.57294   0.90918   0.40398   0.00000  Uiso   1.00
H588   H     0.18805   0.81571   0.36607   0.00000  Uiso   1.00
H589   H     0.30246   0.09557   0.65337   0.00000  Uiso   1.00
O590   O     0.65022   0.83978   0.44956   0.00000  Uiso   1.00
O591   O     0.14525   0.71715   0.39983   0.00000  Uiso   1.00
O592   O     0.29536   0.08433   0.77676   0.00000  Uiso   1.00
N593   N     0.57278   0.81934   0.51253   0.00000  Uiso   1.00
N594   N     0.21293   0.73194   0.47707   0.00000  Uiso   1.00
N595   N     0.31988   0.99359   0.74568   0.00000  Uiso   1.00
N596   N     0.56295   0.88362   0.43980   0.00000  Uiso   1.00
N597   N     0.20310   0.79622   0.40434   0.00000  Uiso   1.00
N598   N     0.31005   0.05787   0.67295   0.00000  Uiso   1.00
C599   C     0.86942   0.34265   0.08484   0.00000  Uiso   1.00
C600   C     0.92307   0.35194   0.04714   0.00000  Uiso   1.00
C601   C     0.97364   0.32394   0.05595   0.00000  Uiso   1.00
C602   C     0.01778   0.33847   0.01662   0.00000  Uiso   1.00
C603   C     0.10202   0.34663   0.96513   0.00000  Uiso   1.00
C604   C     0.82390   0.32785   0.03736   0.00000  Uiso   1.00
C605   C     0.79109   0.27959   0.03796   0.00000  Uiso   1.00
C606   C     0.75173   0.27385   0.99040   0.00000  Uiso   1.00
C607   C     0.68198   0.24462   0.92376   0.00000  Uiso   1.00
C608   C     0.85338   0.39995   0.11139   0.00000  Uiso   1.00
C609   C     0.84535   0.41233   0.17423   0.00000  Uiso   1.00
C610   C     0.83080   0.46729   0.18899   0.00000  Uiso   1.00
C611   C     0.80684   0.55003   0.23729   0.00000  Uiso   1.00
C612   C     0.85786   0.41824   0.99931   0.00000  Uiso   1.00
C613   C     0.91679   0.39299   0.00068   0.00000  Uiso   1.00
C614   C     0.96085   0.40757   0.96133   0.00000  Uiso   1.00
C615   C     0.01149   0.37960   0.97008   0.00000  Uiso   1.00
C616   C     0.81762   0.36890   0.99091   0.00000  Uiso   1.00
C617   C     0.77830   0.36322   0.94333   0.00000  Uiso   1.00
C618   C     0.74544   0.31498   0.94386   0.00000  Uiso   1.00
C619   C     0.84710   0.44101   0.06493   0.00000  Uiso   1.00
C620   C     0.83256   0.49596   0.07960   0.00000  Uiso   1.00
C621   C     0.82451   0.50842   0.14245   0.00000  Uiso   1.00
H622   H     0.87431   0.31068   0.12100   0.00000  Uiso   1.00
H623   H     0.97848   0.29216   0.09191   0.00000  Uiso   1.00
H624   H     0.79595   0.24783   0.07392   0.00000  Uiso   1.00
H625   H     0.85021   0.38055   0.21017   0.00000  Uiso   1.00
H626   H     0.09121   0.28973   0.03915   0.00000  Uiso   1.00
H627   H     0.70632   0.19626   0.00123   0.00000  Uiso   1.00
H628   H     0.82073   0.47612   0.28854   0.00000  Uiso   1.00
H629   H     0.85297   0.45020   0.96314   0.00000  Uiso   1.00
H630   H     0.95598   0.43934   0.92538   0.00000  Uiso   1.00
H631   H     0.77345   0.39501   0.90739   0.00000  Uiso   1.00
H632   H     0.82771   0.52773   0.04364   0.00000  Uiso   1.00
H633   H     0.07294   0.40918   0.90398   0.00000  Uiso   1.00
H634   H     0.68805   0.31571   0.86607   0.00000  Uiso   1.00
H635   H     0.80246   0.59557   0.15337   0.00000  Uiso   1.00
O636   O     0.15022   0.33978   0.94956   0.00000  Uiso   1.00
O637   O     0.64525   0.21715   0.89983   0.00000  Uiso   1.00
O638   O     0.79536   0.58433   0.27676   0.00000  Uiso   1.00
N639   N     0.07278   0.31934   0.01253   0.00000  Uiso   1.00
N640   N     0.71293   0.23194   0.97707   0.00000  Uiso   1.00
N641   N     0.81988   0.49359   0.24568   0.00000  Uiso   1.00
N642   N     0.06295   0.38362   0.93980   0.00000  Uiso   1.00
N643   N     0.70310   0.29622   0.90434   0.00000  Uiso   1.00
N644   N     0.81005   0.55787   0.17295   0.00000  Uiso   1.00
C645   C     0.13058   0.65735   0.08484   0.00000  Uiso   1.00
C646   C     0.07693   0.64806   0.04714   0.00000  Uiso   1.00
C647   C     0.02636   0.67606   0.05595   0.00000  Uiso   1.00
C648   C     0.98222   0.66153   0.01662   0.00000  Uiso   1.00
C649   C     0.89798   0.65337   0.96513   0.00000  Uiso   1.00
C650   C     0.17610   0.67215   0.03736   0.00000  Uiso   1.00
C651   C     0.20891   0.72041   0.03796   0.00000  Uiso   1.00
C652   C     0.24827   0.72615   0.99040   0.00000  Uiso   1.00
C653   C     0.31802   0.75538   0.92376   0.00000  Uiso   1.00
C654   C     0.14662   0.60005   0.11139   0.00000  Uiso   1.00
C655   C     0.15465   0.58767   0.17423   0.00000  Uiso   1.00
C656   C     0.16920   0.53271   0.18899   0.00000  Uiso   1.00
C657   C     0.19316   0.44997   0.23729   0.00000  Uiso   1.00
C658   C     0.14214   0.58176   0.99931   0.00000  Uiso   1.00
C659   C     0.08321   0.60701   0.00068   0.00000  Uiso   1.00
C660   C     0.03915   0.59243   0.96133   0.00000  Uiso   1.00
C661   C     0.98851   0.62040   0.97008   0.00000  Uiso   1.00
C662   C     0.18238   0.63110   0.99091   0.00000  Uiso   1.00
C663   C     0.22170   0.63678   0.94333   0.00000  Uiso   1.00
C664   C     0.25456   0.68502   0.94386   0.00000  Uiso   1.00
C665   C     0.15290   0.55899   0.06493   0.00000  Uiso   1.00
C666   C     0.16744   0.50404   0.07960   0.00000  Uiso   1.00
C667   C     0.17549   0.49158   0.14245   0.00000  Uiso   1.00
H668   H     0.12569   0.68932   0.12100   0.00000  Uiso   1.00
H669   H     0.02152   0.70784   0.09191   0.00000  Uiso   1.00
H670   H     0.20405   0.75217   0.07392   0.00000  Uiso   1.00
H671   H     0.14979   0.61945   0.21017   0.00000  Uiso   1.00
H672   H     0.90879   0.71027   0.03915   0.00000  Uiso   1.00
H673   H     0.29368   0.80374   0.00123   0.00000  Uiso   1.00
H674   H     0.17927   0.52388   0.28854   0.00000  Uiso   1.00
H675   H     0.14703   0.54980   0.96314   0.00000  Uiso   1.00
H676   H     0.04402   0.56066   0.92538   0.00000  Uiso   1.00
H677   H     0.22655   0.60499   0.90739   0.00000  Uiso   1.00
H678   H     0.17229   0.47227   0.04364   0.00000  Uiso   1.00
H679   H     0.92706   0.59082   0.90398   0.00000  Uiso   1.00
H680   H     0.31195   0.68429   0.86607   0.00000  Uiso   1.00
H681   H     0.19754   0.40443   0.15337   0.00000  Uiso   1.00
O682   O     0.84978   0.66022   0.94956   0.00000  Uiso   1.00
O683   O     0.35475   0.78285   0.89983   0.00000  Uiso   1.00
O684   O     0.20464   0.41567   0.27676   0.00000  Uiso   1.00
N685   N     0.92722   0.68066   0.01253   0.00000  Uiso   1.00
N686   N     0.28707   0.76806   0.97707   0.00000  Uiso   1.00
N687   N     0.18012   0.50641   0.24568   0.00000  Uiso   1.00
N688   N     0.93705   0.61638   0.93980   0.00000  Uiso   1.00
N689   N     0.29690   0.70378   0.90434   0.00000  Uiso   1.00
N690   N     0.18995   0.44213   0.17295   0.00000  Uiso   1.00
C691   C     0.63058   0.15735   0.58484   0.00000  Uiso   1.00
C692   C     0.57693   0.14806   0.54714   0.00000  Uiso   1.00
C693   C     0.52636   0.17606   0.55595   0.00000  Uiso   1.00
C694   C     0.48222   0.16153   0.51662   0.00000  Uiso   1.00
C695   C     0.39798   0.15337   0.46513   0.00000  Uiso   1.00
C696   C     0.67610   0.17215   0.53736   0.00000  Uiso   1.00
C697   C     0.70891   0.22041   0.53796   0.00000  Uiso   1.00
C698   C     0.74827   0.22615   0.49040   0.00000  Uiso   1.00
C699   C     0.81802   0.25538   0.42376   0.00000  Uiso   1.00
C700   C     0.64662   0.10005   0.61139   0.00000  Uiso   1.00
C701   C     0.65465   0.08767   0.67423   0.00000  Uiso   1.00
C702   C     0.66920   0.03271   0.68899   0.00000  Uiso   1.00
C703   C     0.69316   0.94997   0.73729   0.00000  Uiso   1.00
C704   C     0.64214   0.08176   0.49931   0.00000  Uiso   1.00
C705   C     0.58321   0.10701   0.50068   0.00000  Uiso   1.00
C706   C     0.53915   0.09243   0.46133   0.00000  Uiso   1.00
C707   C     0.48851   0.12040   0.47008   0.00000  Uiso   1.00
C708   C     0.68238   0.13110   0.49091   0.00000  Uiso   1.00
C709   C     0.72170   0.13678   0.44333   0.00000  Uiso   1.00
C710   C     0.75456   0.18502   0.44386   0.00000  Uiso   1.00
C711   C     0.65290   0.05899   0.56493   0.00000  Uiso   1.00
C712   C     0.66744   0.00404   0.57960   0.00000  Uiso   1.00
C713   C     0.67549   0.99158   0.64245   0.00000  Uiso   1.00
H714   H     0.62569   0.18932   0.62100   0.00000  Uiso   1.00
H715   H     0.52152   0.20784   0.59191   0.00000  Uiso   1.00
H716   H     0.70405   0.25217   0.57392   0.00000  Uiso   1.00
H717   H     0.64979   0.11945   0.71017   0.00000  Uiso   1.00
H718   H     0.40879   0.21027   0.53915   0.00000  Uiso   1.00
H719   H     0.79368   0.30374   0.50123   0.00000  Uiso   1.00
H720   H     0.67927   0.02388   0.78854   0.00000  Uiso   1.00
H721   H     0.64703   0.04980   0.46314   0.00000  Uiso   1.00
H722   H     0.54402   0.06066   0.42538   0.00000  Uiso   1.00
H723   H     0.72655   0.10499   0.40739   0.00000  Uiso   1.00
H724   H     0.67229   0.97227   0.54364   0.00000  Uiso   1.00
H725   H     0.42706   0.09082   0.40398   0.00000  Uiso   1.00
H726   H     0.81195   0.18429   0.36607   0.00000  Uiso   1.00
H727   H     0.69754   0.90443   0.65337   0.00000  Uiso   1.00
O728   O     0.34978   0.16022   0.44956   0.00000  Uiso   1.00
O729   O     0.85475   0.28285   0.39983   0.00000  Uiso   1.00
O730   O     0.70464   0.91567   0.77676   0.00000  Uiso   1.00
N731   N     0.42722   0.18066   0.51253   0.00000  Uiso   1.00
N732   N     0.78707   0.26806   0.47707   0.00000  Uiso   1.00
N733   N     0.68012   0.00641   0.74568   0.00000  Uiso   1.00
N734   N     0.43705   0.11638   0.43980   0.00000  Uiso   1.00
N735   N     0.79690   0.20378   0.40434   0.00000  Uiso   1.00
N736   N     0.68995   0.94213   0.67295   0.00000  Uiso   1.00
