data_job_05458
_audit_creation_date              2018-12-19
_audit_creation_method            'Materials Studio'
_symmetry_space_group_name_H-M    'P1'
_symmetry_Int_Tables_number       1
_symmetry_cell_setting            triclinic
loop_
_symmetry_equiv_pos_as_xyz
  x,y,z
_cell_length_a                    28.6808
_cell_length_b                    20.3383
_cell_length_c                    16.3060
_cell_angle_alpha                 90.0000
_cell_angle_beta                  90.0000
_cell_angle_gamma                 90.0000
loop_
_atom_site_label
_atom_site_type_symbol
_atom_site_fract_x
_atom_site_fract_y
_atom_site_fract_z
_atom_site_U_iso_or_equiv
_atom_site_adp_type
_atom_site_occupancy
C1     C     0.40783   0.49652   0.97265   0.00000  Uiso   1.00
C2     C     0.37565   0.53747   0.02680   0.00000  Uiso   1.00
C3     C     0.38267   0.60261   0.04893   0.00000  Uiso   1.00
C4     C     0.34919   0.63132   0.09893   0.00000  Uiso   1.00
C5     C     0.30518   0.70025   0.17897   0.00000  Uiso   1.00
C6     C     0.42077   0.43602   0.02299   0.00000  Uiso   1.00
C7     C     0.46573   0.41586   0.04190   0.00000  Uiso   1.00
C8     C     0.47023   0.35917   0.08867   0.00000  Uiso   1.00
C9     C     0.49627   0.27058   0.16274   0.00000  Uiso   1.00
C10    C     0.37777   0.47163   0.90203   0.00000  Uiso   1.00
C11    C     0.38659   0.48140   0.81924   0.00000  Uiso   1.00
C12    C     0.35490   0.45467   0.76417   0.00000  Uiso   1.00
C13    C     0.31417   0.42137   0.65044   0.00000  Uiso   1.00
C14    C     0.33588   0.43168   0.02208   0.00000  Uiso   1.00
C15    C     0.33657   0.50225   0.05366   0.00000  Uiso   1.00
C16    C     0.30306   0.53087   0.10363   0.00000  Uiso   1.00
C17    C     0.31004   0.59604   0.12582   0.00000  Uiso   1.00
C18    C     0.38169   0.40080   0.04984   0.00000  Uiso   1.00
C19    C     0.38612   0.34413   0.09659   0.00000  Uiso   1.00
C20    C     0.43108   0.32389   0.11557   0.00000  Uiso   1.00
C21    C     0.33869   0.43641   0.92888   0.00000  Uiso   1.00
C22    C     0.30698   0.40966   0.87394   0.00000  Uiso   1.00
C23    C     0.31574   0.41939   0.79107   0.00000  Uiso   1.00
H24    H     0.43826   0.52394   0.95175   0.00000  Uiso   1.00
H25    H     0.41293   0.62984   0.02815   0.00000  Uiso   1.00
H26    H     0.49597   0.44313   0.02111   0.00000  Uiso   1.00
H27    H     0.41684   0.50865   0.79848   0.00000  Uiso   1.00
H28    H     0.36761   0.73172   0.12472   0.00000  Uiso   1.00
H29    H     0.54271   0.33801   0.10985   0.00000  Uiso   1.00
H30    H     0.37585   0.47618   0.64040   0.00000  Uiso   1.00
H31    H     0.30545   0.40426   0.04299   0.00000  Uiso   1.00
H32    H     0.27282   0.50360   0.12440   0.00000  Uiso   1.00
H33    H     0.35587   0.31688   0.11736   0.00000  Uiso   1.00
H34    H     0.27674   0.38241   0.89474   0.00000  Uiso   1.00
H35    H     0.25390   0.62926   0.20284   0.00000  Uiso   1.00
H36    H     0.42900   0.23554   0.18797   0.00000  Uiso   1.00
H37    H     0.26214   0.37372   0.71853   0.00000  Uiso   1.00
O38    O     0.29170   0.74799   0.21571   0.00000  Uiso   1.00
O39    O     0.52142   0.23145   0.19618   0.00000  Uiso   1.00
O40    O     0.30251   0.41274   0.58029   0.00000  Uiso   1.00
N41    N     0.34532   0.69398   0.13192   0.00000  Uiso   1.00
N42    N     0.50903   0.32588   0.11803   0.00000  Uiso   1.00
N43    N     0.35304   0.45505   0.67914   0.00000  Uiso   1.00
N44    N     0.28413   0.63884   0.17395   0.00000  Uiso   1.00
N45    N     0.44784   0.27075   0.16006   0.00000  Uiso   1.00
N46    N     0.29185   0.39992   0.72117   0.00000  Uiso   1.00
C47    C     0.58241   0.38664   0.52347   0.00000  Uiso   1.00
C48    C     0.61382   0.42417   0.46429   0.00000  Uiso   1.00
C49    C     0.60739   0.48864   0.43880   0.00000  Uiso   1.00
C50    C     0.63999   0.51406   0.38442   0.00000  Uiso   1.00
C51    C     0.68302   0.57806   0.29673   0.00000  Uiso   1.00
C52    C     0.56701   0.32482   0.47801   0.00000  Uiso   1.00
C53    C     0.52123   0.30575   0.46407   0.00000  Uiso   1.00
C54    C     0.51442   0.24753   0.42124   0.00000  Uiso   1.00
C55    C     0.48478   0.15727   0.35491   0.00000  Uiso   1.00
C56    C     0.61389   0.36330   0.59298   0.00000  Uiso   1.00
C57    C     0.60752   0.37658   0.67571   0.00000  Uiso   1.00
C58    C     0.64018   0.35075   0.72969   0.00000  Uiso   1.00
C59    C     0.68333   0.32024   0.84186   0.00000  Uiso   1.00
C60    C     0.65172   0.31714   0.47222   0.00000  Uiso   1.00
C61    C     0.65146   0.38642   0.43645   0.00000  Uiso   1.00
C62    C     0.68408   0.41175   0.38210   0.00000  Uiso   1.00
C63    C     0.67770   0.47625   0.35653   0.00000  Uiso   1.00
C64    C     0.60466   0.28707   0.45017   0.00000  Uiso   1.00
C65    C     0.59791   0.22886   0.40737   0.00000  Uiso   1.00
C66    C     0.55214   0.20971   0.39336   0.00000  Uiso   1.00
C67    C     0.65154   0.32556   0.56515   0.00000  Uiso   1.00
C68    C     0.68421   0.29970   0.61901   0.00000  Uiso   1.00
C69    C     0.67789   0.31293   0.70180   0.00000  Uiso   1.00
H70    H     0.55310   0.41602   0.54514   0.00000  Uiso   1.00
H71    H     0.57825   0.51783   0.46035   0.00000  Uiso   1.00
H72    H     0.49210   0.33496   0.48563   0.00000  Uiso   1.00
H73    H     0.57839   0.40579   0.69723   0.00000  Uiso   1.00
H74    H     0.62274   0.61405   0.35405   0.00000  Uiso   1.00
H75    H     0.44108   0.22846   0.40736   0.00000  Uiso   1.00
H76    H     0.62303   0.37780   0.85358   0.00000  Uiso   1.00
H77    H     0.68103   0.28776   0.45055   0.00000  Uiso   1.00
H78    H     0.71321   0.38253   0.36056   0.00000  Uiso   1.00
H79    H     0.62706   0.19967   0.38584   0.00000  Uiso   1.00
H80    H     0.71334   0.27049   0.59744   0.00000  Uiso   1.00
H81    H     0.73227   0.50424   0.27305   0.00000  Uiso   1.00
H82    H     0.55062   0.11864   0.32637   0.00000  Uiso   1.00
H83    H     0.73256   0.26799   0.77258   0.00000  Uiso   1.00
O84    O     0.69635   0.62379   0.25604   0.00000  Uiso   1.00
O85    O     0.45803   0.11791   0.32600   0.00000  Uiso   1.00
O86    O     0.69674   0.31385   0.91142   0.00000  Uiso   1.00
N87    N     0.64410   0.57520   0.34735   0.00000  Uiso   1.00
N88    N     0.47427   0.21470   0.39718   0.00000  Uiso   1.00
N89    N     0.64436   0.35431   0.81436   0.00000  Uiso   1.00
N90    N     0.70304   0.51611   0.30376   0.00000  Uiso   1.00
N91    N     0.53321   0.15561   0.35360   0.00000  Uiso   1.00
N92    N     0.70330   0.29523   0.77078   0.00000  Uiso   1.00
C93    C     0.40783   0.99652   0.47265   0.00000  Uiso   1.00
C94    C     0.37565   0.03747   0.52680   0.00000  Uiso   1.00
C95    C     0.38267   0.10261   0.54893   0.00000  Uiso   1.00
C96    C     0.34919   0.13132   0.59893   0.00000  Uiso   1.00
C97    C     0.30518   0.20025   0.67897   0.00000  Uiso   1.00
C98    C     0.42077   0.93602   0.52299   0.00000  Uiso   1.00
C99    C     0.46573   0.91586   0.54190   0.00000  Uiso   1.00
C100   C     0.47023   0.85917   0.58867   0.00000  Uiso   1.00
C101   C     0.49627   0.77058   0.66274   0.00000  Uiso   1.00
C102   C     0.37777   0.97163   0.40203   0.00000  Uiso   1.00
C103   C     0.38659   0.98140   0.31924   0.00000  Uiso   1.00
C104   C     0.35490   0.95467   0.26417   0.00000  Uiso   1.00
C105   C     0.31417   0.92137   0.15044   0.00000  Uiso   1.00
C106   C     0.33588   0.93168   0.52208   0.00000  Uiso   1.00
C107   C     0.33657   0.00225   0.55366   0.00000  Uiso   1.00
C108   C     0.30306   0.03087   0.60363   0.00000  Uiso   1.00
C109   C     0.31004   0.09604   0.62582   0.00000  Uiso   1.00
C110   C     0.38169   0.90080   0.54984   0.00000  Uiso   1.00
C111   C     0.38612   0.84413   0.59659   0.00000  Uiso   1.00
C112   C     0.43108   0.82389   0.61557   0.00000  Uiso   1.00
C113   C     0.33869   0.93641   0.42888   0.00000  Uiso   1.00
C114   C     0.30698   0.90966   0.37394   0.00000  Uiso   1.00
C115   C     0.31574   0.91939   0.29107   0.00000  Uiso   1.00
H116   H     0.43826   0.02394   0.45175   0.00000  Uiso   1.00
H117   H     0.41293   0.12984   0.52815   0.00000  Uiso   1.00
H118   H     0.49597   0.94313   0.52111   0.00000  Uiso   1.00
H119   H     0.41684   0.00865   0.29848   0.00000  Uiso   1.00
H120   H     0.36761   0.23172   0.62472   0.00000  Uiso   1.00
H121   H     0.54271   0.83801   0.60985   0.00000  Uiso   1.00
H122   H     0.37585   0.97618   0.14040   0.00000  Uiso   1.00
H123   H     0.30545   0.90426   0.54299   0.00000  Uiso   1.00
H124   H     0.27282   0.00360   0.62440   0.00000  Uiso   1.00
H125   H     0.35587   0.81688   0.61736   0.00000  Uiso   1.00
H126   H     0.27674   0.88241   0.39474   0.00000  Uiso   1.00
H127   H     0.25390   0.12926   0.70284   0.00000  Uiso   1.00
H128   H     0.42900   0.73554   0.68797   0.00000  Uiso   1.00
H129   H     0.26214   0.87372   0.21853   0.00000  Uiso   1.00
O130   O     0.29170   0.24799   0.71571   0.00000  Uiso   1.00
O131   O     0.52142   0.73145   0.69618   0.00000  Uiso   1.00
O132   O     0.30251   0.91274   0.08029   0.00000  Uiso   1.00
N133   N     0.34532   0.19398   0.63192   0.00000  Uiso   1.00
N134   N     0.50903   0.82588   0.61803   0.00000  Uiso   1.00
N135   N     0.35304   0.95505   0.17914   0.00000  Uiso   1.00
N136   N     0.28413   0.13884   0.67395   0.00000  Uiso   1.00
N137   N     0.44784   0.77075   0.66006   0.00000  Uiso   1.00
N138   N     0.29185   0.89992   0.22117   0.00000  Uiso   1.00
C139   C     0.58241   0.88664   0.02347   0.00000  Uiso   1.00
C140   C     0.61382   0.92417   0.96429   0.00000  Uiso   1.00
C141   C     0.60739   0.98864   0.93880   0.00000  Uiso   1.00
C142   C     0.63999   0.01406   0.88442   0.00000  Uiso   1.00
C143   C     0.68302   0.07806   0.79673   0.00000  Uiso   1.00
C144   C     0.56701   0.82482   0.97801   0.00000  Uiso   1.00
C145   C     0.52123   0.80575   0.96407   0.00000  Uiso   1.00
C146   C     0.51442   0.74753   0.92124   0.00000  Uiso   1.00
C147   C     0.48478   0.65727   0.85491   0.00000  Uiso   1.00
C148   C     0.61389   0.86330   0.09298   0.00000  Uiso   1.00
C149   C     0.60752   0.87658   0.17571   0.00000  Uiso   1.00
C150   C     0.64018   0.85075   0.22969   0.00000  Uiso   1.00
C151   C     0.68333   0.82024   0.34186   0.00000  Uiso   1.00
C152   C     0.65172   0.81714   0.97222   0.00000  Uiso   1.00
C153   C     0.65146   0.88642   0.93645   0.00000  Uiso   1.00
C154   C     0.68408   0.91175   0.88210   0.00000  Uiso   1.00
C155   C     0.67770   0.97625   0.85653   0.00000  Uiso   1.00
C156   C     0.60466   0.78707   0.95017   0.00000  Uiso   1.00
C157   C     0.59791   0.72886   0.90737   0.00000  Uiso   1.00
C158   C     0.55214   0.70971   0.89336   0.00000  Uiso   1.00
C159   C     0.65154   0.82556   0.06515   0.00000  Uiso   1.00
C160   C     0.68421   0.79970   0.11901   0.00000  Uiso   1.00
C161   C     0.67789   0.81293   0.20180   0.00000  Uiso   1.00
H162   H     0.55310   0.91602   0.04514   0.00000  Uiso   1.00
H163   H     0.57825   0.01783   0.96035   0.00000  Uiso   1.00
H164   H     0.49210   0.83496   0.98563   0.00000  Uiso   1.00
H165   H     0.57839   0.90579   0.19723   0.00000  Uiso   1.00
H166   H     0.62274   0.11405   0.85405   0.00000  Uiso   1.00
H167   H     0.44108   0.72846   0.90736   0.00000  Uiso   1.00
H168   H     0.62303   0.87780   0.35358   0.00000  Uiso   1.00
H169   H     0.68103   0.78776   0.95055   0.00000  Uiso   1.00
H170   H     0.71321   0.88253   0.86056   0.00000  Uiso   1.00
H171   H     0.62706   0.69967   0.88584   0.00000  Uiso   1.00
H172   H     0.71334   0.77049   0.09744   0.00000  Uiso   1.00
H173   H     0.73227   0.00424   0.77305   0.00000  Uiso   1.00
H174   H     0.55062   0.61864   0.82637   0.00000  Uiso   1.00
H175   H     0.73256   0.76799   0.27258   0.00000  Uiso   1.00
O176   O     0.69635   0.12379   0.75604   0.00000  Uiso   1.00
O177   O     0.45803   0.61791   0.82600   0.00000  Uiso   1.00
O178   O     0.69674   0.81385   0.41142   0.00000  Uiso   1.00
N179   N     0.64410   0.07520   0.84735   0.00000  Uiso   1.00
N180   N     0.47427   0.71470   0.89718   0.00000  Uiso   1.00
N181   N     0.64436   0.85431   0.31436   0.00000  Uiso   1.00
N182   N     0.70304   0.01611   0.80376   0.00000  Uiso   1.00
N183   N     0.53321   0.65561   0.85360   0.00000  Uiso   1.00
N184   N     0.70330   0.79523   0.27078   0.00000  Uiso   1.00
C185   C     0.59217   0.50348   0.97265   0.00000  Uiso   1.00
C186   C     0.62435   0.46253   0.02680   0.00000  Uiso   1.00
C187   C     0.61733   0.39739   0.04893   0.00000  Uiso   1.00
C188   C     0.65081   0.36868   0.09893   0.00000  Uiso   1.00
C189   C     0.69482   0.29975   0.17897   0.00000  Uiso   1.00
C190   C     0.57923   0.56398   0.02299   0.00000  Uiso   1.00
C191   C     0.53427   0.58414   0.04190   0.00000  Uiso   1.00
C192   C     0.52977   0.64083   0.08867   0.00000  Uiso   1.00
C193   C     0.50373   0.72942   0.16274   0.00000  Uiso   1.00
C194   C     0.62223   0.52837   0.90203   0.00000  Uiso   1.00
C195   C     0.61341   0.51860   0.81924   0.00000  Uiso   1.00
C196   C     0.64510   0.54533   0.76417   0.00000  Uiso   1.00
C197   C     0.68583   0.57863   0.65044   0.00000  Uiso   1.00
C198   C     0.66412   0.56832   0.02208   0.00000  Uiso   1.00
C199   C     0.66343   0.49775   0.05366   0.00000  Uiso   1.00
C200   C     0.69694   0.46913   0.10363   0.00000  Uiso   1.00
C201   C     0.68996   0.40396   0.12582   0.00000  Uiso   1.00
C202   C     0.61831   0.59920   0.04984   0.00000  Uiso   1.00
C203   C     0.61388   0.65587   0.09659   0.00000  Uiso   1.00
C204   C     0.56892   0.67611   0.11557   0.00000  Uiso   1.00
C205   C     0.66131   0.56359   0.92888   0.00000  Uiso   1.00
C206   C     0.69302   0.59034   0.87394   0.00000  Uiso   1.00
C207   C     0.68426   0.58061   0.79107   0.00000  Uiso   1.00
H208   H     0.56174   0.47606   0.95175   0.00000  Uiso   1.00
H209   H     0.58707   0.37016   0.02815   0.00000  Uiso   1.00
H210   H     0.50403   0.55687   0.02111   0.00000  Uiso   1.00
H211   H     0.58316   0.49135   0.79848   0.00000  Uiso   1.00
H212   H     0.63239   0.26828   0.12472   0.00000  Uiso   1.00
H213   H     0.45729   0.66199   0.10985   0.00000  Uiso   1.00
H214   H     0.62415   0.52382   0.64040   0.00000  Uiso   1.00
H215   H     0.69455   0.59574   0.04299   0.00000  Uiso   1.00
H216   H     0.72718   0.49640   0.12440   0.00000  Uiso   1.00
H217   H     0.64413   0.68312   0.11736   0.00000  Uiso   1.00
H218   H     0.72326   0.61759   0.89474   0.00000  Uiso   1.00
H219   H     0.74610   0.37074   0.20284   0.00000  Uiso   1.00
H220   H     0.57100   0.76446   0.18797   0.00000  Uiso   1.00
H221   H     0.73786   0.62628   0.71853   0.00000  Uiso   1.00
O222   O     0.70830   0.25201   0.21571   0.00000  Uiso   1.00
O223   O     0.47858   0.76855   0.19618   0.00000  Uiso   1.00
O224   O     0.69749   0.58726   0.58029   0.00000  Uiso   1.00
N225   N     0.65468   0.30602   0.13192   0.00000  Uiso   1.00
N226   N     0.49097   0.67412   0.11803   0.00000  Uiso   1.00
N227   N     0.64696   0.54495   0.67914   0.00000  Uiso   1.00
N228   N     0.71587   0.36116   0.17395   0.00000  Uiso   1.00
N229   N     0.55216   0.72925   0.16006   0.00000  Uiso   1.00
N230   N     0.70815   0.60008   0.72117   0.00000  Uiso   1.00
C231   C     0.41759   0.61336   0.52347   0.00000  Uiso   1.00
C232   C     0.38618   0.57583   0.46429   0.00000  Uiso   1.00
C233   C     0.39261   0.51136   0.43880   0.00000  Uiso   1.00
C234   C     0.36001   0.48594   0.38442   0.00000  Uiso   1.00
C235   C     0.31698   0.42194   0.29673   0.00000  Uiso   1.00
C236   C     0.43299   0.67518   0.47801   0.00000  Uiso   1.00
C237   C     0.47877   0.69425   0.46407   0.00000  Uiso   1.00
C238   C     0.48558   0.75247   0.42124   0.00000  Uiso   1.00
C239   C     0.51522   0.84273   0.35491   0.00000  Uiso   1.00
C240   C     0.38611   0.63670   0.59298   0.00000  Uiso   1.00
C241   C     0.39248   0.62342   0.67571   0.00000  Uiso   1.00
C242   C     0.35982   0.64925   0.72969   0.00000  Uiso   1.00
C243   C     0.31667   0.67976   0.84186   0.00000  Uiso   1.00
C244   C     0.34828   0.68286   0.47222   0.00000  Uiso   1.00
C245   C     0.34854   0.61358   0.43645   0.00000  Uiso   1.00
C246   C     0.31592   0.58825   0.38210   0.00000  Uiso   1.00
C247   C     0.32230   0.52375   0.35653   0.00000  Uiso   1.00
C248   C     0.39534   0.71293   0.45017   0.00000  Uiso   1.00
C249   C     0.40209   0.77114   0.40737   0.00000  Uiso   1.00
C250   C     0.44786   0.79029   0.39336   0.00000  Uiso   1.00
C251   C     0.34846   0.67444   0.56515   0.00000  Uiso   1.00
C252   C     0.31579   0.70030   0.61901   0.00000  Uiso   1.00
C253   C     0.32211   0.68707   0.70180   0.00000  Uiso   1.00
H254   H     0.44690   0.58398   0.54514   0.00000  Uiso   1.00
H255   H     0.42175   0.48217   0.46035   0.00000  Uiso   1.00
H256   H     0.50790   0.66504   0.48563   0.00000  Uiso   1.00
H257   H     0.42161   0.59421   0.69723   0.00000  Uiso   1.00
H258   H     0.37726   0.38595   0.35405   0.00000  Uiso   1.00
H259   H     0.55892   0.77154   0.40736   0.00000  Uiso   1.00
H260   H     0.37697   0.62220   0.85358   0.00000  Uiso   1.00
H261   H     0.31897   0.71224   0.45055   0.00000  Uiso   1.00
H262   H     0.28679   0.61747   0.36056   0.00000  Uiso   1.00
H263   H     0.37294   0.80033   0.38584   0.00000  Uiso   1.00
H264   H     0.28666   0.72951   0.59744   0.00000  Uiso   1.00
H265   H     0.26773   0.49576   0.27305   0.00000  Uiso   1.00
H266   H     0.44938   0.88136   0.32637   0.00000  Uiso   1.00
H267   H     0.26744   0.73201   0.77258   0.00000  Uiso   1.00
O268   O     0.30365   0.37621   0.25604   0.00000  Uiso   1.00
O269   O     0.54197   0.88209   0.32600   0.00000  Uiso   1.00
O270   O     0.30326   0.68615   0.91142   0.00000  Uiso   1.00
N271   N     0.35590   0.42480   0.34735   0.00000  Uiso   1.00
N272   N     0.52573   0.78530   0.39718   0.00000  Uiso   1.00
N273   N     0.35564   0.64569   0.81436   0.00000  Uiso   1.00
N274   N     0.29696   0.48389   0.30376   0.00000  Uiso   1.00
N275   N     0.46679   0.84439   0.35360   0.00000  Uiso   1.00
N276   N     0.29670   0.70477   0.77078   0.00000  Uiso   1.00
C277   C     0.59217   0.00348   0.47265   0.00000  Uiso   1.00
C278   C     0.62435   0.96253   0.52680   0.00000  Uiso   1.00
C279   C     0.61733   0.89739   0.54893   0.00000  Uiso   1.00
C280   C     0.65081   0.86868   0.59893   0.00000  Uiso   1.00
C281   C     0.69482   0.79975   0.67897   0.00000  Uiso   1.00
C282   C     0.57923   0.06398   0.52299   0.00000  Uiso   1.00
C283   C     0.53427   0.08414   0.54190   0.00000  Uiso   1.00
C284   C     0.52977   0.14083   0.58867   0.00000  Uiso   1.00
C285   C     0.50373   0.22942   0.66274   0.00000  Uiso   1.00
C286   C     0.62223   0.02837   0.40203   0.00000  Uiso   1.00
C287   C     0.61341   0.01860   0.31924   0.00000  Uiso   1.00
C288   C     0.64510   0.04533   0.26417   0.00000  Uiso   1.00
C289   C     0.68583   0.07863   0.15044   0.00000  Uiso   1.00
C290   C     0.66412   0.06832   0.52208   0.00000  Uiso   1.00
C291   C     0.66343   0.99775   0.55366   0.00000  Uiso   1.00
C292   C     0.69694   0.96913   0.60363   0.00000  Uiso   1.00
C293   C     0.68996   0.90396   0.62582   0.00000  Uiso   1.00
C294   C     0.61831   0.09920   0.54984   0.00000  Uiso   1.00
C295   C     0.61388   0.15587   0.59659   0.00000  Uiso   1.00
C296   C     0.56892   0.17611   0.61557   0.00000  Uiso   1.00
C297   C     0.66131   0.06359   0.42888   0.00000  Uiso   1.00
C298   C     0.69302   0.09034   0.37394   0.00000  Uiso   1.00
C299   C     0.68426   0.08061   0.29107   0.00000  Uiso   1.00
H300   H     0.56174   0.97606   0.45175   0.00000  Uiso   1.00
H301   H     0.58707   0.87016   0.52815   0.00000  Uiso   1.00
H302   H     0.50403   0.05687   0.52111   0.00000  Uiso   1.00
H303   H     0.58316   0.99135   0.29848   0.00000  Uiso   1.00
H304   H     0.63239   0.76828   0.62472   0.00000  Uiso   1.00
H305   H     0.45729   0.16199   0.60985   0.00000  Uiso   1.00
H306   H     0.62415   0.02382   0.14040   0.00000  Uiso   1.00
H307   H     0.69455   0.09574   0.54299   0.00000  Uiso   1.00
H308   H     0.72718   0.99640   0.62440   0.00000  Uiso   1.00
H309   H     0.64413   0.18312   0.61736   0.00000  Uiso   1.00
H310   H     0.72326   0.11759   0.39474   0.00000  Uiso   1.00
H311   H     0.74610   0.87074   0.70284   0.00000  Uiso   1.00
H312   H     0.57100   0.26446   0.68797   0.00000  Uiso   1.00
H313   H     0.73786   0.12628   0.21853   0.00000  Uiso   1.00
O314   O     0.70830   0.75201   0.71571   0.00000  Uiso   1.00
O315   O     0.47858   0.26855   0.69618   0.00000  Uiso   1.00
O316   O     0.69749   0.08726   0.08029   0.00000  Uiso   1.00
N317   N     0.65468   0.80602   0.63192   0.00000  Uiso   1.00
N318   N     0.49097   0.17412   0.61803   0.00000  Uiso   1.00
N319   N     0.64696   0.04495   0.17914   0.00000  Uiso   1.00
N320   N     0.71587   0.86116   0.67395   0.00000  Uiso   1.00
N321   N     0.55216   0.22925   0.66006   0.00000  Uiso   1.00
N322   N     0.70815   0.10008   0.22117   0.00000  Uiso   1.00
C323   C     0.41759   0.11336   0.02347   0.00000  Uiso   1.00
C324   C     0.38618   0.07583   0.96429   0.00000  Uiso   1.00
C325   C     0.39261   0.01136   0.93880   0.00000  Uiso   1.00
C326   C     0.36001   0.98594   0.88442   0.00000  Uiso   1.00
C327   C     0.31698   0.92194   0.79673   0.00000  Uiso   1.00
C328   C     0.43299   0.17518   0.97801   0.00000  Uiso   1.00
C329   C     0.47877   0.19425   0.96407   0.00000  Uiso   1.00
C330   C     0.48558   0.25247   0.92124   0.00000  Uiso   1.00
C331   C     0.51522   0.34273   0.85491   0.00000  Uiso   1.00
C332   C     0.38611   0.13670   0.09298   0.00000  Uiso   1.00
C333   C     0.39248   0.12342   0.17571   0.00000  Uiso   1.00
C334   C     0.35982   0.14925   0.22969   0.00000  Uiso   1.00
C335   C     0.31667   0.17976   0.34186   0.00000  Uiso   1.00
C336   C     0.34828   0.18286   0.97222   0.00000  Uiso   1.00
C337   C     0.34854   0.11358   0.93645   0.00000  Uiso   1.00
C338   C     0.31592   0.08825   0.88210   0.00000  Uiso   1.00
C339   C     0.32230   0.02375   0.85653   0.00000  Uiso   1.00
C340   C     0.39534   0.21293   0.95017   0.00000  Uiso   1.00
C341   C     0.40209   0.27114   0.90737   0.00000  Uiso   1.00
C342   C     0.44786   0.29029   0.89336   0.00000  Uiso   1.00
C343   C     0.34846   0.17444   0.06515   0.00000  Uiso   1.00
C344   C     0.31579   0.20030   0.11901   0.00000  Uiso   1.00
C345   C     0.32211   0.18707   0.20180   0.00000  Uiso   1.00
H346   H     0.44690   0.08398   0.04514   0.00000  Uiso   1.00
H347   H     0.42175   0.98217   0.96035   0.00000  Uiso   1.00
H348   H     0.50790   0.16504   0.98563   0.00000  Uiso   1.00
H349   H     0.42161   0.09421   0.19723   0.00000  Uiso   1.00
H350   H     0.37726   0.88595   0.85405   0.00000  Uiso   1.00
H351   H     0.55892   0.27154   0.90736   0.00000  Uiso   1.00
H352   H     0.37697   0.12220   0.35358   0.00000  Uiso   1.00
H353   H     0.31897   0.21224   0.95055   0.00000  Uiso   1.00
H354   H     0.28679   0.11747   0.86056   0.00000  Uiso   1.00
H355   H     0.37294   0.30033   0.88584   0.00000  Uiso   1.00
H356   H     0.28666   0.22951   0.09744   0.00000  Uiso   1.00
H357   H     0.26773   0.99576   0.77305   0.00000  Uiso   1.00
H358   H     0.44938   0.38136   0.82637   0.00000  Uiso   1.00
H359   H     0.26744   0.23201   0.27258   0.00000  Uiso   1.00
O360   O     0.30365   0.87621   0.75604   0.00000  Uiso   1.00
O361   O     0.54197   0.38209   0.82600   0.00000  Uiso   1.00
O362   O     0.30326   0.18615   0.41142   0.00000  Uiso   1.00
N363   N     0.35590   0.92480   0.84735   0.00000  Uiso   1.00
N364   N     0.52573   0.28530   0.89718   0.00000  Uiso   1.00
N365   N     0.35564   0.14569   0.31436   0.00000  Uiso   1.00
N366   N     0.29696   0.98389   0.80376   0.00000  Uiso   1.00
N367   N     0.46679   0.34439   0.85360   0.00000  Uiso   1.00
N368   N     0.29670   0.20477   0.27078   0.00000  Uiso   1.00
C369   C     0.90783   0.00348   0.97265   0.00000  Uiso   1.00
C370   C     0.87565   0.96253   0.02680   0.00000  Uiso   1.00
C371   C     0.88267   0.89739   0.04893   0.00000  Uiso   1.00
C372   C     0.84919   0.86868   0.09893   0.00000  Uiso   1.00
C373   C     0.80518   0.79975   0.17897   0.00000  Uiso   1.00
C374   C     0.92077   0.06398   0.02299   0.00000  Uiso   1.00
C375   C     0.96573   0.08414   0.04190   0.00000  Uiso   1.00
C376   C     0.97023   0.14083   0.08867   0.00000  Uiso   1.00
C377   C     0.99627   0.22942   0.16274   0.00000  Uiso   1.00
C378   C     0.87777   0.02837   0.90203   0.00000  Uiso   1.00
C379   C     0.88659   0.01860   0.81924   0.00000  Uiso   1.00
C380   C     0.85490   0.04533   0.76417   0.00000  Uiso   1.00
C381   C     0.81417   0.07863   0.65044   0.00000  Uiso   1.00
C382   C     0.83588   0.06832   0.02208   0.00000  Uiso   1.00
C383   C     0.83657   0.99775   0.05366   0.00000  Uiso   1.00
C384   C     0.80306   0.96913   0.10363   0.00000  Uiso   1.00
C385   C     0.81004   0.90396   0.12582   0.00000  Uiso   1.00
C386   C     0.88169   0.09920   0.04984   0.00000  Uiso   1.00
C387   C     0.88612   0.15587   0.09659   0.00000  Uiso   1.00
C388   C     0.93108   0.17611   0.11557   0.00000  Uiso   1.00
C389   C     0.83869   0.06359   0.92888   0.00000  Uiso   1.00
C390   C     0.80698   0.09034   0.87394   0.00000  Uiso   1.00
C391   C     0.81574   0.08061   0.79107   0.00000  Uiso   1.00
H392   H     0.93826   0.97606   0.95175   0.00000  Uiso   1.00
H393   H     0.91293   0.87016   0.02815   0.00000  Uiso   1.00
H394   H     0.99597   0.05687   0.02111   0.00000  Uiso   1.00
H395   H     0.91684   0.99135   0.79848   0.00000  Uiso   1.00
H396   H     0.86761   0.76828   0.12472   0.00000  Uiso   1.00
H397   H     0.04271   0.16199   0.10985   0.00000  Uiso   1.00
H398   H     0.87585   0.02382   0.64040   0.00000  Uiso   1.00
H399   H     0.80545   0.09574   0.04299   0.00000  Uiso   1.00
H400   H     0.77282   0.99640   0.12440   0.00000  Uiso   1.00
H401   H     0.85587   0.18312   0.11736   0.00000  Uiso   1.00
H402   H     0.77674   0.11759   0.89474   0.00000  Uiso   1.00
H403   H     0.75390   0.87074   0.20284   0.00000  Uiso   1.00
H404   H     0.92900   0.26446   0.18797   0.00000  Uiso   1.00
H405   H     0.76214   0.12628   0.71853   0.00000  Uiso   1.00
O406   O     0.79170   0.75201   0.21571   0.00000  Uiso   1.00
O407   O     0.02142   0.26855   0.19618   0.00000  Uiso   1.00
O408   O     0.80251   0.08726   0.58029   0.00000  Uiso   1.00
N409   N     0.84532   0.80602   0.13192   0.00000  Uiso   1.00
N410   N     0.00903   0.17412   0.11803   0.00000  Uiso   1.00
N411   N     0.85304   0.04495   0.67914   0.00000  Uiso   1.00
N412   N     0.78413   0.86116   0.17395   0.00000  Uiso   1.00
N413   N     0.94784   0.22925   0.16006   0.00000  Uiso   1.00
N414   N     0.79185   0.10008   0.72117   0.00000  Uiso   1.00
C415   C     0.08241   0.11336   0.52347   0.00000  Uiso   1.00
C416   C     0.11382   0.07583   0.46429   0.00000  Uiso   1.00
C417   C     0.10739   0.01136   0.43880   0.00000  Uiso   1.00
C418   C     0.13999   0.98594   0.38442   0.00000  Uiso   1.00
C419   C     0.18302   0.92194   0.29673   0.00000  Uiso   1.00
C420   C     0.06701   0.17518   0.47801   0.00000  Uiso   1.00
C421   C     0.02123   0.19425   0.46407   0.00000  Uiso   1.00
C422   C     0.01442   0.25247   0.42124   0.00000  Uiso   1.00
C423   C     0.98478   0.34273   0.35491   0.00000  Uiso   1.00
C424   C     0.11389   0.13670   0.59298   0.00000  Uiso   1.00
C425   C     0.10752   0.12342   0.67571   0.00000  Uiso   1.00
C426   C     0.14018   0.14925   0.72969   0.00000  Uiso   1.00
C427   C     0.18333   0.17976   0.84186   0.00000  Uiso   1.00
C428   C     0.15172   0.18286   0.47222   0.00000  Uiso   1.00
C429   C     0.15146   0.11358   0.43645   0.00000  Uiso   1.00
C430   C     0.18408   0.08825   0.38210   0.00000  Uiso   1.00
C431   C     0.17770   0.02375   0.35653   0.00000  Uiso   1.00
C432   C     0.10466   0.21293   0.45017   0.00000  Uiso   1.00
C433   C     0.09791   0.27114   0.40737   0.00000  Uiso   1.00
C434   C     0.05214   0.29029   0.39336   0.00000  Uiso   1.00
C435   C     0.15154   0.17444   0.56515   0.00000  Uiso   1.00
C436   C     0.18421   0.20030   0.61901   0.00000  Uiso   1.00
C437   C     0.17789   0.18707   0.70180   0.00000  Uiso   1.00
H438   H     0.05310   0.08398   0.54514   0.00000  Uiso   1.00
H439   H     0.07825   0.98217   0.46035   0.00000  Uiso   1.00
H440   H     0.99210   0.16504   0.48563   0.00000  Uiso   1.00
H441   H     0.07839   0.09421   0.69723   0.00000  Uiso   1.00
H442   H     0.12274   0.88595   0.35405   0.00000  Uiso   1.00
H443   H     0.94108   0.27154   0.40736   0.00000  Uiso   1.00
H444   H     0.12303   0.12220   0.85358   0.00000  Uiso   1.00
H445   H     0.18103   0.21224   0.45055   0.00000  Uiso   1.00
H446   H     0.21321   0.11747   0.36056   0.00000  Uiso   1.00
H447   H     0.12706   0.30033   0.38584   0.00000  Uiso   1.00
H448   H     0.21334   0.22951   0.59744   0.00000  Uiso   1.00
H449   H     0.23227   0.99576   0.27305   0.00000  Uiso   1.00
H450   H     0.05062   0.38136   0.32637   0.00000  Uiso   1.00
H451   H     0.23256   0.23201   0.77258   0.00000  Uiso   1.00
O452   O     0.19635   0.87621   0.25604   0.00000  Uiso   1.00
O453   O     0.95803   0.38209   0.32600   0.00000  Uiso   1.00
O454   O     0.19674   0.18615   0.91142   0.00000  Uiso   1.00
N455   N     0.14410   0.92480   0.34735   0.00000  Uiso   1.00
N456   N     0.97427   0.28530   0.39718   0.00000  Uiso   1.00
N457   N     0.14436   0.14569   0.81436   0.00000  Uiso   1.00
N458   N     0.20304   0.98389   0.30376   0.00000  Uiso   1.00
N459   N     0.03321   0.34439   0.35360   0.00000  Uiso   1.00
N460   N     0.20330   0.20477   0.77078   0.00000  Uiso   1.00
C461   C     0.90783   0.50348   0.47265   0.00000  Uiso   1.00
C462   C     0.87565   0.46253   0.52680   0.00000  Uiso   1.00
C463   C     0.88267   0.39739   0.54893   0.00000  Uiso   1.00
C464   C     0.84919   0.36868   0.59893   0.00000  Uiso   1.00
C465   C     0.80518   0.29975   0.67897   0.00000  Uiso   1.00
C466   C     0.92077   0.56398   0.52299   0.00000  Uiso   1.00
C467   C     0.96573   0.58414   0.54190   0.00000  Uiso   1.00
C468   C     0.97023   0.64083   0.58867   0.00000  Uiso   1.00
C469   C     0.99627   0.72942   0.66274   0.00000  Uiso   1.00
C470   C     0.87777   0.52837   0.40203   0.00000  Uiso   1.00
C471   C     0.88659   0.51860   0.31924   0.00000  Uiso   1.00
C472   C     0.85490   0.54533   0.26417   0.00000  Uiso   1.00
C473   C     0.81417   0.57863   0.15044   0.00000  Uiso   1.00
C474   C     0.83588   0.56832   0.52208   0.00000  Uiso   1.00
C475   C     0.83657   0.49775   0.55366   0.00000  Uiso   1.00
C476   C     0.80306   0.46913   0.60363   0.00000  Uiso   1.00
C477   C     0.81004   0.40396   0.62582   0.00000  Uiso   1.00
C478   C     0.88169   0.59920   0.54984   0.00000  Uiso   1.00
C479   C     0.88612   0.65587   0.59659   0.00000  Uiso   1.00
C480   C     0.93108   0.67611   0.61557   0.00000  Uiso   1.00
C481   C     0.83869   0.56359   0.42888   0.00000  Uiso   1.00
C482   C     0.80698   0.59034   0.37394   0.00000  Uiso   1.00
C483   C     0.81574   0.58061   0.29107   0.00000  Uiso   1.00
H484   H     0.93826   0.47606   0.45175   0.00000  Uiso   1.00
H485   H     0.91293   0.37016   0.52815   0.00000  Uiso   1.00
H486   H     0.99597   0.55687   0.52111   0.00000  Uiso   1.00
H487   H     0.91684   0.49135   0.29848   0.00000  Uiso   1.00
H488   H     0.86761   0.26828   0.62472   0.00000  Uiso   1.00
H489   H     0.04271   0.66199   0.60985   0.00000  Uiso   1.00
H490   H     0.87585   0.52382   0.14040   0.00000  Uiso   1.00
H491   H     0.80545   0.59574   0.54299   0.00000  Uiso   1.00
H492   H     0.77282   0.49640   0.62440   0.00000  Uiso   1.00
H493   H     0.85587   0.68312   0.61736   0.00000  Uiso   1.00
H494   H     0.77674   0.61759   0.39474   0.00000  Uiso   1.00
H495   H     0.75390   0.37074   0.70284   0.00000  Uiso   1.00
H496   H     0.92900   0.76446   0.68797   0.00000  Uiso   1.00
H497   H     0.76214   0.62628   0.21853   0.00000  Uiso   1.00
O498   O     0.79170   0.25201   0.71571   0.00000  Uiso   1.00
O499   O     0.02142   0.76855   0.69618   0.00000  Uiso   1.00
O500   O     0.80251   0.58726   0.08029   0.00000  Uiso   1.00
N501   N     0.84532   0.30602   0.63192   0.00000  Uiso   1.00
N502   N     0.00903   0.67412   0.61803   0.00000  Uiso   1.00
N503   N     0.85304   0.54495   0.17914   0.00000  Uiso   1.00
N504   N     0.78413   0.36116   0.67395   0.00000  Uiso   1.00
N505   N     0.94784   0.72925   0.66006   0.00000  Uiso   1.00
N506   N     0.79185   0.60008   0.22117   0.00000  Uiso   1.00
C507   C     0.08241   0.61336   0.02347   0.00000  Uiso   1.00
C508   C     0.11382   0.57583   0.96429   0.00000  Uiso   1.00
C509   C     0.10739   0.51136   0.93880   0.00000  Uiso   1.00
C510   C     0.13999   0.48594   0.88442   0.00000  Uiso   1.00
C511   C     0.18302   0.42194   0.79673   0.00000  Uiso   1.00
C512   C     0.06701   0.67518   0.97801   0.00000  Uiso   1.00
C513   C     0.02123   0.69425   0.96407   0.00000  Uiso   1.00
C514   C     0.01442   0.75247   0.92124   0.00000  Uiso   1.00
C515   C     0.98478   0.84273   0.85491   0.00000  Uiso   1.00
C516   C     0.11389   0.63670   0.09298   0.00000  Uiso   1.00
C517   C     0.10752   0.62342   0.17571   0.00000  Uiso   1.00
C518   C     0.14018   0.64925   0.22969   0.00000  Uiso   1.00
C519   C     0.18333   0.67976   0.34186   0.00000  Uiso   1.00
C520   C     0.15172   0.68286   0.97222   0.00000  Uiso   1.00
C521   C     0.15146   0.61358   0.93645   0.00000  Uiso   1.00
C522   C     0.18408   0.58825   0.88210   0.00000  Uiso   1.00
C523   C     0.17770   0.52375   0.85653   0.00000  Uiso   1.00
C524   C     0.10466   0.71293   0.95017   0.00000  Uiso   1.00
C525   C     0.09791   0.77114   0.90737   0.00000  Uiso   1.00
C526   C     0.05214   0.79029   0.89336   0.00000  Uiso   1.00
C527   C     0.15154   0.67444   0.06515   0.00000  Uiso   1.00
C528   C     0.18421   0.70030   0.11901   0.00000  Uiso   1.00
C529   C     0.17789   0.68707   0.20180   0.00000  Uiso   1.00
H530   H     0.05310   0.58398   0.04514   0.00000  Uiso   1.00
H531   H     0.07825   0.48217   0.96035   0.00000  Uiso   1.00
H532   H     0.99210   0.66504   0.98563   0.00000  Uiso   1.00
H533   H     0.07839   0.59421   0.19723   0.00000  Uiso   1.00
H534   H     0.12274   0.38595   0.85405   0.00000  Uiso   1.00
H535   H     0.94108   0.77154   0.90736   0.00000  Uiso   1.00
H536   H     0.12303   0.62220   0.35358   0.00000  Uiso   1.00
H537   H     0.18103   0.71224   0.95055   0.00000  Uiso   1.00
H538   H     0.21321   0.61747   0.86056   0.00000  Uiso   1.00
H539   H     0.12706   0.80033   0.88584   0.00000  Uiso   1.00
H540   H     0.21334   0.72951   0.09744   0.00000  Uiso   1.00
H541   H     0.23227   0.49576   0.77305   0.00000  Uiso   1.00
H542   H     0.05062   0.88136   0.82637   0.00000  Uiso   1.00
H543   H     0.23256   0.73201   0.27258   0.00000  Uiso   1.00
O544   O     0.19635   0.37621   0.75604   0.00000  Uiso   1.00
O545   O     0.95803   0.88209   0.82600   0.00000  Uiso   1.00
O546   O     0.19674   0.68615   0.41142   0.00000  Uiso   1.00
N547   N     0.14410   0.42480   0.84735   0.00000  Uiso   1.00
N548   N     0.97427   0.78530   0.89718   0.00000  Uiso   1.00
N549   N     0.14436   0.64569   0.31436   0.00000  Uiso   1.00
N550   N     0.20304   0.48389   0.80376   0.00000  Uiso   1.00
N551   N     0.03321   0.84439   0.85360   0.00000  Uiso   1.00
N552   N     0.20330   0.70477   0.27078   0.00000  Uiso   1.00
C553   C     0.09217   0.99652   0.97265   0.00000  Uiso   1.00
C554   C     0.12435   0.03747   0.02680   0.00000  Uiso   1.00
C555   C     0.11733   0.10261   0.04893   0.00000  Uiso   1.00
C556   C     0.15081   0.13132   0.09893   0.00000  Uiso   1.00
C557   C     0.19482   0.20025   0.17897   0.00000  Uiso   1.00
C558   C     0.07923   0.93602   0.02299   0.00000  Uiso   1.00
C559   C     0.03427   0.91586   0.04190   0.00000  Uiso   1.00
C560   C     0.02977   0.85917   0.08867   0.00000  Uiso   1.00
C561   C     0.00373   0.77058   0.16274   0.00000  Uiso   1.00
C562   C     0.12223   0.97163   0.90203   0.00000  Uiso   1.00
C563   C     0.11341   0.98140   0.81924   0.00000  Uiso   1.00
C564   C     0.14510   0.95467   0.76417   0.00000  Uiso   1.00
C565   C     0.18583   0.92137   0.65044   0.00000  Uiso   1.00
C566   C     0.16412   0.93168   0.02208   0.00000  Uiso   1.00
C567   C     0.16343   0.00225   0.05366   0.00000  Uiso   1.00
C568   C     0.19694   0.03087   0.10363   0.00000  Uiso   1.00
C569   C     0.18996   0.09604   0.12582   0.00000  Uiso   1.00
C570   C     0.11831   0.90080   0.04984   0.00000  Uiso   1.00
C571   C     0.11388   0.84413   0.09659   0.00000  Uiso   1.00
C572   C     0.06892   0.82389   0.11557   0.00000  Uiso   1.00
C573   C     0.16131   0.93641   0.92888   0.00000  Uiso   1.00
C574   C     0.19302   0.90966   0.87394   0.00000  Uiso   1.00
C575   C     0.18426   0.91939   0.79107   0.00000  Uiso   1.00
H576   H     0.06174   0.02394   0.95175   0.00000  Uiso   1.00
H577   H     0.08707   0.12984   0.02815   0.00000  Uiso   1.00
H578   H     0.00403   0.94313   0.02111   0.00000  Uiso   1.00
H579   H     0.08316   0.00865   0.79848   0.00000  Uiso   1.00
H580   H     0.13239   0.23172   0.12472   0.00000  Uiso   1.00
H581   H     0.95729   0.83801   0.10985   0.00000  Uiso   1.00
H582   H     0.12415   0.97618   0.64040   0.00000  Uiso   1.00
H583   H     0.19455   0.90426   0.04299   0.00000  Uiso   1.00
H584   H     0.22718   0.00360   0.12440   0.00000  Uiso   1.00
H585   H     0.14413   0.81688   0.11736   0.00000  Uiso   1.00
H586   H     0.22326   0.88241   0.89474   0.00000  Uiso   1.00
H587   H     0.24610   0.12926   0.20284   0.00000  Uiso   1.00
H588   H     0.07100   0.73554   0.18797   0.00000  Uiso   1.00
H589   H     0.23786   0.87372   0.71853   0.00000  Uiso   1.00
O590   O     0.20830   0.24799   0.21571   0.00000  Uiso   1.00
O591   O     0.97858   0.73145   0.19618   0.00000  Uiso   1.00
O592   O     0.19749   0.91274   0.58029   0.00000  Uiso   1.00
N593   N     0.15468   0.19398   0.13192   0.00000  Uiso   1.00
N594   N     0.99097   0.82588   0.11803   0.00000  Uiso   1.00
N595   N     0.14696   0.95505   0.67914   0.00000  Uiso   1.00
N596   N     0.21587   0.13884   0.17395   0.00000  Uiso   1.00
N597   N     0.05216   0.77075   0.16006   0.00000  Uiso   1.00
N598   N     0.20815   0.89992   0.72117   0.00000  Uiso   1.00
C599   C     0.91759   0.88664   0.52347   0.00000  Uiso   1.00
C600   C     0.88618   0.92417   0.46429   0.00000  Uiso   1.00
C601   C     0.89261   0.98864   0.43880   0.00000  Uiso   1.00
C602   C     0.86001   0.01406   0.38442   0.00000  Uiso   1.00
C603   C     0.81698   0.07806   0.29673   0.00000  Uiso   1.00
C604   C     0.93299   0.82482   0.47801   0.00000  Uiso   1.00
C605   C     0.97877   0.80575   0.46407   0.00000  Uiso   1.00
C606   C     0.98558   0.74753   0.42124   0.00000  Uiso   1.00
C607   C     0.01522   0.65727   0.35491   0.00000  Uiso   1.00
C608   C     0.88611   0.86330   0.59298   0.00000  Uiso   1.00
C609   C     0.89248   0.87658   0.67571   0.00000  Uiso   1.00
C610   C     0.85982   0.85075   0.72969   0.00000  Uiso   1.00
C611   C     0.81667   0.82024   0.84186   0.00000  Uiso   1.00
C612   C     0.84828   0.81714   0.47222   0.00000  Uiso   1.00
C613   C     0.84854   0.88642   0.43645   0.00000  Uiso   1.00
C614   C     0.81592   0.91175   0.38210   0.00000  Uiso   1.00
C615   C     0.82230   0.97625   0.35653   0.00000  Uiso   1.00
C616   C     0.89534   0.78707   0.45017   0.00000  Uiso   1.00
C617   C     0.90209   0.72886   0.40737   0.00000  Uiso   1.00
C618   C     0.94786   0.70971   0.39336   0.00000  Uiso   1.00
C619   C     0.84846   0.82556   0.56515   0.00000  Uiso   1.00
C620   C     0.81579   0.79970   0.61901   0.00000  Uiso   1.00
C621   C     0.82211   0.81293   0.70180   0.00000  Uiso   1.00
H622   H     0.94690   0.91602   0.54514   0.00000  Uiso   1.00
H623   H     0.92175   0.01783   0.46035   0.00000  Uiso   1.00
H624   H     0.00790   0.83496   0.48563   0.00000  Uiso   1.00
H625   H     0.92161   0.90579   0.69723   0.00000  Uiso   1.00
H626   H     0.87726   0.11405   0.35405   0.00000  Uiso   1.00
H627   H     0.05892   0.72846   0.40736   0.00000  Uiso   1.00
H628   H     0.87697   0.87780   0.85358   0.00000  Uiso   1.00
H629   H     0.81897   0.78776   0.45055   0.00000  Uiso   1.00
H630   H     0.78679   0.88253   0.36056   0.00000  Uiso   1.00
H631   H     0.87294   0.69967   0.38584   0.00000  Uiso   1.00
H632   H     0.78666   0.77049   0.59744   0.00000  Uiso   1.00
H633   H     0.76773   0.00424   0.27305   0.00000  Uiso   1.00
H634   H     0.94938   0.61864   0.32637   0.00000  Uiso   1.00
H635   H     0.76744   0.76799   0.77258   0.00000  Uiso   1.00
O636   O     0.80365   0.12379   0.25604   0.00000  Uiso   1.00
O637   O     0.04197   0.61791   0.32600   0.00000  Uiso   1.00
O638   O     0.80326   0.81385   0.91142   0.00000  Uiso   1.00
N639   N     0.85590   0.07520   0.34735   0.00000  Uiso   1.00
N640   N     0.02573   0.71470   0.39718   0.00000  Uiso   1.00
N641   N     0.85564   0.85431   0.81436   0.00000  Uiso   1.00
N642   N     0.79696   0.01611   0.30376   0.00000  Uiso   1.00
N643   N     0.96679   0.65561   0.35360   0.00000  Uiso   1.00
N644   N     0.79670   0.79523   0.77078   0.00000  Uiso   1.00
C645   C     0.09217   0.49652   0.47265   0.00000  Uiso   1.00
C646   C     0.12435   0.53747   0.52680   0.00000  Uiso   1.00
C647   C     0.11733   0.60261   0.54893   0.00000  Uiso   1.00
C648   C     0.15081   0.63132   0.59893   0.00000  Uiso   1.00
C649   C     0.19482   0.70025   0.67897   0.00000  Uiso   1.00
C650   C     0.07923   0.43602   0.52299   0.00000  Uiso   1.00
C651   C     0.03427   0.41586   0.54190   0.00000  Uiso   1.00
C652   C     0.02977   0.35917   0.58867   0.00000  Uiso   1.00
C653   C     0.00373   0.27058   0.66274   0.00000  Uiso   1.00
C654   C     0.12223   0.47163   0.40203   0.00000  Uiso   1.00
C655   C     0.11341   0.48140   0.31924   0.00000  Uiso   1.00
C656   C     0.14510   0.45467   0.26417   0.00000  Uiso   1.00
C657   C     0.18583   0.42137   0.15044   0.00000  Uiso   1.00
C658   C     0.16412   0.43168   0.52208   0.00000  Uiso   1.00
C659   C     0.16343   0.50225   0.55366   0.00000  Uiso   1.00
C660   C     0.19694   0.53087   0.60363   0.00000  Uiso   1.00
C661   C     0.18996   0.59604   0.62582   0.00000  Uiso   1.00
C662   C     0.11831   0.40080   0.54984   0.00000  Uiso   1.00
C663   C     0.11388   0.34413   0.59659   0.00000  Uiso   1.00
C664   C     0.06892   0.32389   0.61557   0.00000  Uiso   1.00
C665   C     0.16131   0.43641   0.42888   0.00000  Uiso   1.00
C666   C     0.19302   0.40966   0.37394   0.00000  Uiso   1.00
C667   C     0.18426   0.41939   0.29107   0.00000  Uiso   1.00
H668   H     0.06174   0.52394   0.45175   0.00000  Uiso   1.00
H669   H     0.08707   0.62984   0.52815   0.00000  Uiso   1.00
H670   H     0.00403   0.44313   0.52111   0.00000  Uiso   1.00
H671   H     0.08316   0.50865   0.29848   0.00000  Uiso   1.00
H672   H     0.13239   0.73172   0.62472   0.00000  Uiso   1.00
H673   H     0.95729   0.33801   0.60985   0.00000  Uiso   1.00
H674   H     0.12415   0.47618   0.14040   0.00000  Uiso   1.00
H675   H     0.19455   0.40426   0.54299   0.00000  Uiso   1.00
H676   H     0.22718   0.50360   0.62440   0.00000  Uiso   1.00
H677   H     0.14413   0.31688   0.61736   0.00000  Uiso   1.00
H678   H     0.22326   0.38241   0.39474   0.00000  Uiso   1.00
H679   H     0.24610   0.62926   0.70284   0.00000  Uiso   1.00
H680   H     0.07100   0.23554   0.68797   0.00000  Uiso   1.00
H681   H     0.23786   0.37372   0.21853   0.00000  Uiso   1.00
O682   O     0.20830   0.74799   0.71571   0.00000  Uiso   1.00
O683   O     0.97858   0.23145   0.69618   0.00000  Uiso   1.00
O684   O     0.19749   0.41274   0.08029   0.00000  Uiso   1.00
N685   N     0.15468   0.69398   0.63192   0.00000  Uiso   1.00
N686   N     0.99097   0.32588   0.61803   0.00000  Uiso   1.00
N687   N     0.14696   0.45505   0.17914   0.00000  Uiso   1.00
N688   N     0.21587   0.63884   0.67395   0.00000  Uiso   1.00
N689   N     0.05216   0.27075   0.66006   0.00000  Uiso   1.00
N690   N     0.20815   0.39992   0.22117   0.00000  Uiso   1.00
C691   C     0.91759   0.38664   0.02347   0.00000  Uiso   1.00
C692   C     0.88618   0.42417   0.96429   0.00000  Uiso   1.00
C693   C     0.89261   0.48864   0.93880   0.00000  Uiso   1.00
C694   C     0.86001   0.51406   0.88442   0.00000  Uiso   1.00
C695   C     0.81698   0.57806   0.79673   0.00000  Uiso   1.00
C696   C     0.93299   0.32482   0.97801   0.00000  Uiso   1.00
C697   C     0.97877   0.30575   0.96407   0.00000  Uiso   1.00
C698   C     0.98558   0.24753   0.92124   0.00000  Uiso   1.00
C699   C     0.01522   0.15727   0.85491   0.00000  Uiso   1.00
C700   C     0.88611   0.36330   0.09298   0.00000  Uiso   1.00
C701   C     0.89248   0.37658   0.17571   0.00000  Uiso   1.00
C702   C     0.85982   0.35075   0.22969   0.00000  Uiso   1.00
C703   C     0.81667   0.32024   0.34186   0.00000  Uiso   1.00
C704   C     0.84828   0.31714   0.97222   0.00000  Uiso   1.00
C705   C     0.84854   0.38642   0.93645   0.00000  Uiso   1.00
C706   C     0.81592   0.41175   0.88210   0.00000  Uiso   1.00
C707   C     0.82230   0.47625   0.85653   0.00000  Uiso   1.00
C708   C     0.89534   0.28707   0.95017   0.00000  Uiso   1.00
C709   C     0.90209   0.22886   0.90737   0.00000  Uiso   1.00
C710   C     0.94786   0.20971   0.89336   0.00000  Uiso   1.00
C711   C     0.84846   0.32556   0.06515   0.00000  Uiso   1.00
C712   C     0.81579   0.29970   0.11901   0.00000  Uiso   1.00
C713   C     0.82211   0.31293   0.20180   0.00000  Uiso   1.00
H714   H     0.94690   0.41602   0.04514   0.00000  Uiso   1.00
H715   H     0.92175   0.51783   0.96035   0.00000  Uiso   1.00
H716   H     0.00790   0.33496   0.98563   0.00000  Uiso   1.00
H717   H     0.92161   0.40579   0.19723   0.00000  Uiso   1.00
H718   H     0.87726   0.61405   0.85405   0.00000  Uiso   1.00
H719   H     0.05892   0.22846   0.90736   0.00000  Uiso   1.00
H720   H     0.87697   0.37780   0.35358   0.00000  Uiso   1.00
H721   H     0.81897   0.28776   0.95055   0.00000  Uiso   1.00
H722   H     0.78679   0.38253   0.86056   0.00000  Uiso   1.00
H723   H     0.87294   0.19967   0.88584   0.00000  Uiso   1.00
H724   H     0.78666   0.27049   0.09744   0.00000  Uiso   1.00
H725   H     0.76773   0.50424   0.77305   0.00000  Uiso   1.00
H726   H     0.94938   0.11864   0.82637   0.00000  Uiso   1.00
H727   H     0.76744   0.26799   0.27258   0.00000  Uiso   1.00
O728   O     0.80365   0.62379   0.75604   0.00000  Uiso   1.00
O729   O     0.04197   0.11791   0.82600   0.00000  Uiso   1.00
O730   O     0.80326   0.31385   0.41142   0.00000  Uiso   1.00
N731   N     0.85590   0.57520   0.84735   0.00000  Uiso   1.00
N732   N     0.02573   0.21470   0.89718   0.00000  Uiso   1.00
N733   N     0.85564   0.35431   0.31436   0.00000  Uiso   1.00
N734   N     0.79696   0.51611   0.80376   0.00000  Uiso   1.00
N735   N     0.96679   0.15561   0.85360   0.00000  Uiso   1.00
N736   N     0.79670   0.29523   0.27078   0.00000  Uiso   1.00
