data_job_02605
_audit_creation_date              2018-12-19
_audit_creation_method            'Materials Studio'
_symmetry_space_group_name_H-M    'P1'
_symmetry_Int_Tables_number       1
_symmetry_cell_setting            triclinic
loop_
_symmetry_equiv_pos_as_xyz
  x,y,z
_cell_length_a                    19.9662
_cell_length_b                    19.9662
_cell_length_c                    28.6997
_cell_angle_alpha                 90.0000
_cell_angle_beta                  90.0000
_cell_angle_gamma                 90.0000
loop_
_atom_site_label
_atom_site_type_symbol
_atom_site_fract_x
_atom_site_fract_y
_atom_site_fract_z
_atom_site_U_iso_or_equiv
_atom_site_adp_type
_atom_site_occupancy
C1     C     0.23913   0.57269   0.44733   0.00000  Uiso   1.00
C2     C     0.17275   0.59882   0.46631   0.00000  Uiso   1.00
C3     C     0.11008   0.57164   0.45740   0.00000  Uiso   1.00
C4     C     0.05548   0.60286   0.47803   0.00000  Uiso   1.00
C5     C     0.95121   0.63488   0.50315   0.00000  Uiso   1.00
C6     C     0.27152   0.63143   0.42192   0.00000  Uiso   1.00
C7     C     0.29189   0.63166   0.37569   0.00000  Uiso   1.00
C8     C     0.32044   0.69033   0.35896   0.00000  Uiso   1.00
C9     C     0.36955   0.77296   0.31517   0.00000  Uiso   1.00
C10    C     0.28305   0.55894   0.48973   0.00000  Uiso   1.00
C11    C     0.31314   0.49823   0.50051   0.00000  Uiso   1.00
C12    C     0.35142   0.49587   0.54087   0.00000  Uiso   1.00
C13    C     0.41844   0.46595   0.60236   0.00000  Uiso   1.00
C14    C     0.25362   0.67647   0.49983   0.00000  Uiso   1.00
C15    C     0.18063   0.65519   0.49483   0.00000  Uiso   1.00
C16    C     0.12611   0.68646   0.51548   0.00000  Uiso   1.00
C17    C     0.06337   0.65933   0.50660   0.00000  Uiso   1.00
C18    C     0.27939   0.68780   0.45044   0.00000  Uiso   1.00
C19    C     0.30792   0.74648   0.43378   0.00000  Uiso   1.00
C20    C     0.32833   0.74681   0.38753   0.00000  Uiso   1.00
C21    C     0.29092   0.61531   0.51825   0.00000  Uiso   1.00
C22    C     0.32917   0.61305   0.55860   0.00000  Uiso   1.00
C23    C     0.35931   0.55235   0.56943   0.00000  Uiso   1.00
H24    H     0.23301   0.52881   0.42513   0.00000  Uiso   1.00
H25    H     0.10401   0.52802   0.43532   0.00000  Uiso   1.00
H26    H     0.28580   0.58803   0.35363   0.00000  Uiso   1.00
H27    H     0.30704   0.45462   0.47843   0.00000  Uiso   1.00
H28    H     0.96446   0.55202   0.45919   0.00000  Uiso   1.00
H29    H     0.34779   0.67855   0.28694   0.00000  Uiso   1.00
H30    H     0.39259   0.39722   0.55011   0.00000  Uiso   1.00
H31    H     0.25975   0.72036   0.52203   0.00000  Uiso   1.00
H32    H     0.13222   0.73008   0.53755   0.00000  Uiso   1.00
H33    H     0.31401   0.79009   0.45585   0.00000  Uiso   1.00
H34    H     0.33525   0.65668   0.58066   0.00000  Uiso   1.00
H35    H     0.98735   0.71602   0.54216   0.00000  Uiso   1.00
H36    H     0.37069   0.84255   0.36991   0.00000  Uiso   1.00
H37    H     0.41549   0.56123   0.63308   0.00000  Uiso   1.00
O38    O     0.89153   0.63697   0.50912   0.00000  Uiso   1.00
O39    O     0.39446   0.80297   0.28314   0.00000  Uiso   1.00
O40    O     0.45323   0.43388   0.62841   0.00000  Uiso   1.00
N41    N     0.98735   0.58927   0.47659   0.00000  Uiso   1.00
N42    N     0.34574   0.70758   0.31555   0.00000  Uiso   1.00
N43    N     0.38763   0.44456   0.56158   0.00000  Uiso   1.00
N44    N     0.99967   0.67752   0.52124   0.00000  Uiso   1.00
N45    N     0.35805   0.79583   0.36019   0.00000  Uiso   1.00
N46    N     0.39995   0.53281   0.60623   0.00000  Uiso   1.00
C47    C     0.73913   0.07269   0.94733   0.00000  Uiso   1.00
C48    C     0.67275   0.09882   0.96631   0.00000  Uiso   1.00
C49    C     0.61008   0.07164   0.95740   0.00000  Uiso   1.00
C50    C     0.55548   0.10286   0.97803   0.00000  Uiso   1.00
C51    C     0.45121   0.13488   0.00315   0.00000  Uiso   1.00
C52    C     0.77152   0.13143   0.92192   0.00000  Uiso   1.00
C53    C     0.79189   0.13166   0.87569   0.00000  Uiso   1.00
C54    C     0.82044   0.19033   0.85896   0.00000  Uiso   1.00
C55    C     0.86955   0.27296   0.81517   0.00000  Uiso   1.00
C56    C     0.78305   0.05894   0.98973   0.00000  Uiso   1.00
C57    C     0.81314   0.99823   0.00051   0.00000  Uiso   1.00
C58    C     0.85142   0.99587   0.04087   0.00000  Uiso   1.00
C59    C     0.91844   0.96595   0.10236   0.00000  Uiso   1.00
C60    C     0.75362   0.17647   0.99983   0.00000  Uiso   1.00
C61    C     0.68063   0.15519   0.99483   0.00000  Uiso   1.00
C62    C     0.62611   0.18646   0.01548   0.00000  Uiso   1.00
C63    C     0.56337   0.15933   0.00660   0.00000  Uiso   1.00
C64    C     0.77939   0.18780   0.95044   0.00000  Uiso   1.00
C65    C     0.80792   0.24648   0.93378   0.00000  Uiso   1.00
C66    C     0.82833   0.24681   0.88753   0.00000  Uiso   1.00
C67    C     0.79092   0.11531   0.01825   0.00000  Uiso   1.00
C68    C     0.82917   0.11305   0.05860   0.00000  Uiso   1.00
C69    C     0.85931   0.05235   0.06943   0.00000  Uiso   1.00
H70    H     0.73301   0.02881   0.92513   0.00000  Uiso   1.00
H71    H     0.60401   0.02802   0.93532   0.00000  Uiso   1.00
H72    H     0.78580   0.08803   0.85363   0.00000  Uiso   1.00
H73    H     0.80704   0.95462   0.97843   0.00000  Uiso   1.00
H74    H     0.46446   0.05202   0.95919   0.00000  Uiso   1.00
H75    H     0.84779   0.17855   0.78694   0.00000  Uiso   1.00
H76    H     0.89259   0.89722   0.05011   0.00000  Uiso   1.00
H77    H     0.75975   0.22036   0.02203   0.00000  Uiso   1.00
H78    H     0.63222   0.23008   0.03755   0.00000  Uiso   1.00
H79    H     0.81401   0.29009   0.95585   0.00000  Uiso   1.00
H80    H     0.83525   0.15668   0.08066   0.00000  Uiso   1.00
H81    H     0.48735   0.21602   0.04216   0.00000  Uiso   1.00
H82    H     0.87069   0.34255   0.86991   0.00000  Uiso   1.00
H83    H     0.91549   0.06123   0.13308   0.00000  Uiso   1.00
O84    O     0.39153   0.13697   0.00912   0.00000  Uiso   1.00
O85    O     0.89446   0.30297   0.78314   0.00000  Uiso   1.00
O86    O     0.95323   0.93388   0.12841   0.00000  Uiso   1.00
N87    N     0.48735   0.08927   0.97659   0.00000  Uiso   1.00
N88    N     0.84574   0.20758   0.81555   0.00000  Uiso   1.00
N89    N     0.88763   0.94456   0.06158   0.00000  Uiso   1.00
N90    N     0.49967   0.17752   0.02124   0.00000  Uiso   1.00
N91    N     0.85805   0.29583   0.86019   0.00000  Uiso   1.00
N92    N     0.89995   0.03281   0.10623   0.00000  Uiso   1.00
C93    C     0.26087   0.92731   0.94733   0.00000  Uiso   1.00
C94    C     0.32725   0.90118   0.96631   0.00000  Uiso   1.00
C95    C     0.38992   0.92836   0.95740   0.00000  Uiso   1.00
C96    C     0.44452   0.89714   0.97803   0.00000  Uiso   1.00
C97    C     0.54879   0.86512   0.00315   0.00000  Uiso   1.00
C98    C     0.22848   0.86857   0.92192   0.00000  Uiso   1.00
C99    C     0.20811   0.86834   0.87569   0.00000  Uiso   1.00
C100   C     0.17956   0.80967   0.85896   0.00000  Uiso   1.00
C101   C     0.13045   0.72704   0.81517   0.00000  Uiso   1.00
C102   C     0.21695   0.94106   0.98973   0.00000  Uiso   1.00
C103   C     0.18686   0.00177   0.00051   0.00000  Uiso   1.00
C104   C     0.14858   0.00413   0.04087   0.00000  Uiso   1.00
C105   C     0.08156   0.03405   0.10236   0.00000  Uiso   1.00
C106   C     0.24638   0.82353   0.99983   0.00000  Uiso   1.00
C107   C     0.31937   0.84481   0.99483   0.00000  Uiso   1.00
C108   C     0.37389   0.81354   0.01548   0.00000  Uiso   1.00
C109   C     0.43663   0.84067   0.00660   0.00000  Uiso   1.00
C110   C     0.22061   0.81220   0.95044   0.00000  Uiso   1.00
C111   C     0.19208   0.75352   0.93378   0.00000  Uiso   1.00
C112   C     0.17167   0.75319   0.88753   0.00000  Uiso   1.00
C113   C     0.20908   0.88469   0.01825   0.00000  Uiso   1.00
C114   C     0.17083   0.88695   0.05860   0.00000  Uiso   1.00
C115   C     0.14069   0.94765   0.06943   0.00000  Uiso   1.00
H116   H     0.26699   0.97119   0.92513   0.00000  Uiso   1.00
H117   H     0.39599   0.97198   0.93532   0.00000  Uiso   1.00
H118   H     0.21420   0.91197   0.85363   0.00000  Uiso   1.00
H119   H     0.19296   0.04538   0.97843   0.00000  Uiso   1.00
H120   H     0.53554   0.94798   0.95919   0.00000  Uiso   1.00
H121   H     0.15221   0.82145   0.78694   0.00000  Uiso   1.00
H122   H     0.10741   0.10278   0.05011   0.00000  Uiso   1.00
H123   H     0.24025   0.77964   0.02203   0.00000  Uiso   1.00
H124   H     0.36778   0.76992   0.03755   0.00000  Uiso   1.00
H125   H     0.18599   0.70991   0.95585   0.00000  Uiso   1.00
H126   H     0.16475   0.84332   0.08066   0.00000  Uiso   1.00
H127   H     0.51265   0.78398   0.04216   0.00000  Uiso   1.00
H128   H     0.12931   0.65745   0.86991   0.00000  Uiso   1.00
H129   H     0.08451   0.93877   0.13308   0.00000  Uiso   1.00
O130   O     0.60847   0.86303   0.00912   0.00000  Uiso   1.00
O131   O     0.10554   0.69703   0.78314   0.00000  Uiso   1.00
O132   O     0.04677   0.06612   0.12841   0.00000  Uiso   1.00
N133   N     0.51265   0.91073   0.97659   0.00000  Uiso   1.00
N134   N     0.15426   0.79242   0.81555   0.00000  Uiso   1.00
N135   N     0.11237   0.05544   0.06158   0.00000  Uiso   1.00
N136   N     0.50033   0.82248   0.02124   0.00000  Uiso   1.00
N137   N     0.14195   0.70417   0.86019   0.00000  Uiso   1.00
N138   N     0.10005   0.96719   0.10623   0.00000  Uiso   1.00
C139   C     0.76087   0.42731   0.44733   0.00000  Uiso   1.00
C140   C     0.82725   0.40118   0.46631   0.00000  Uiso   1.00
C141   C     0.88992   0.42836   0.45740   0.00000  Uiso   1.00
C142   C     0.94452   0.39714   0.47803   0.00000  Uiso   1.00
C143   C     0.04879   0.36512   0.50315   0.00000  Uiso   1.00
C144   C     0.72848   0.36857   0.42192   0.00000  Uiso   1.00
C145   C     0.70811   0.36834   0.37569   0.00000  Uiso   1.00
C146   C     0.67956   0.30967   0.35896   0.00000  Uiso   1.00
C147   C     0.63045   0.22704   0.31517   0.00000  Uiso   1.00
C148   C     0.71695   0.44106   0.48973   0.00000  Uiso   1.00
C149   C     0.68686   0.50177   0.50051   0.00000  Uiso   1.00
C150   C     0.64858   0.50413   0.54087   0.00000  Uiso   1.00
C151   C     0.58156   0.53405   0.60236   0.00000  Uiso   1.00
C152   C     0.74638   0.32353   0.49983   0.00000  Uiso   1.00
C153   C     0.81937   0.34481   0.49483   0.00000  Uiso   1.00
C154   C     0.87389   0.31354   0.51548   0.00000  Uiso   1.00
C155   C     0.93663   0.34067   0.50660   0.00000  Uiso   1.00
C156   C     0.72061   0.31220   0.45044   0.00000  Uiso   1.00
C157   C     0.69208   0.25352   0.43378   0.00000  Uiso   1.00
C158   C     0.67167   0.25319   0.38753   0.00000  Uiso   1.00
C159   C     0.70908   0.38469   0.51825   0.00000  Uiso   1.00
C160   C     0.67083   0.38695   0.55860   0.00000  Uiso   1.00
C161   C     0.64069   0.44765   0.56943   0.00000  Uiso   1.00
H162   H     0.76699   0.47119   0.42513   0.00000  Uiso   1.00
H163   H     0.89599   0.47198   0.43532   0.00000  Uiso   1.00
H164   H     0.71420   0.41197   0.35363   0.00000  Uiso   1.00
H165   H     0.69296   0.54538   0.47843   0.00000  Uiso   1.00
H166   H     0.03554   0.44798   0.45919   0.00000  Uiso   1.00
H167   H     0.65221   0.32145   0.28694   0.00000  Uiso   1.00
H168   H     0.60741   0.60278   0.55011   0.00000  Uiso   1.00
H169   H     0.74025   0.27964   0.52203   0.00000  Uiso   1.00
H170   H     0.86778   0.26992   0.53755   0.00000  Uiso   1.00
H171   H     0.68599   0.20991   0.45585   0.00000  Uiso   1.00
H172   H     0.66475   0.34332   0.58066   0.00000  Uiso   1.00
H173   H     0.01265   0.28398   0.54216   0.00000  Uiso   1.00
H174   H     0.62931   0.15745   0.36991   0.00000  Uiso   1.00
H175   H     0.58451   0.43877   0.63308   0.00000  Uiso   1.00
O176   O     0.10847   0.36303   0.50912   0.00000  Uiso   1.00
O177   O     0.60554   0.19703   0.28314   0.00000  Uiso   1.00
O178   O     0.54677   0.56612   0.62841   0.00000  Uiso   1.00
N179   N     0.01265   0.41073   0.47659   0.00000  Uiso   1.00
N180   N     0.65426   0.29242   0.31555   0.00000  Uiso   1.00
N181   N     0.61237   0.55544   0.56158   0.00000  Uiso   1.00
N182   N     0.00033   0.32248   0.52124   0.00000  Uiso   1.00
N183   N     0.64195   0.20417   0.36019   0.00000  Uiso   1.00
N184   N     0.60005   0.46719   0.60623   0.00000  Uiso   1.00
C185   C     0.42731   0.73913   0.69733   0.00000  Uiso   1.00
C186   C     0.40118   0.67275   0.71631   0.00000  Uiso   1.00
C187   C     0.42836   0.61008   0.70740   0.00000  Uiso   1.00
C188   C     0.39714   0.55548   0.72803   0.00000  Uiso   1.00
C189   C     0.36512   0.45121   0.75315   0.00000  Uiso   1.00
C190   C     0.36857   0.77152   0.67192   0.00000  Uiso   1.00
C191   C     0.36834   0.79189   0.62569   0.00000  Uiso   1.00
C192   C     0.30967   0.82044   0.60896   0.00000  Uiso   1.00
C193   C     0.22704   0.86955   0.56517   0.00000  Uiso   1.00
C194   C     0.44106   0.78305   0.73973   0.00000  Uiso   1.00
C195   C     0.50177   0.81314   0.75051   0.00000  Uiso   1.00
C196   C     0.50413   0.85142   0.79087   0.00000  Uiso   1.00
C197   C     0.53405   0.91844   0.85236   0.00000  Uiso   1.00
C198   C     0.32353   0.75362   0.74983   0.00000  Uiso   1.00
C199   C     0.34481   0.68063   0.74483   0.00000  Uiso   1.00
C200   C     0.31354   0.62611   0.76548   0.00000  Uiso   1.00
C201   C     0.34067   0.56337   0.75660   0.00000  Uiso   1.00
C202   C     0.31220   0.77939   0.70044   0.00000  Uiso   1.00
C203   C     0.25352   0.80792   0.68378   0.00000  Uiso   1.00
C204   C     0.25319   0.82833   0.63753   0.00000  Uiso   1.00
C205   C     0.38469   0.79092   0.76825   0.00000  Uiso   1.00
C206   C     0.38695   0.82917   0.80860   0.00000  Uiso   1.00
C207   C     0.44765   0.85931   0.81943   0.00000  Uiso   1.00
H208   H     0.47119   0.73301   0.67513   0.00000  Uiso   1.00
H209   H     0.47198   0.60401   0.68532   0.00000  Uiso   1.00
H210   H     0.41197   0.78580   0.60363   0.00000  Uiso   1.00
H211   H     0.54538   0.80704   0.72843   0.00000  Uiso   1.00
H212   H     0.44798   0.46446   0.70919   0.00000  Uiso   1.00
H213   H     0.32145   0.84779   0.53694   0.00000  Uiso   1.00
H214   H     0.60278   0.89259   0.80011   0.00000  Uiso   1.00
H215   H     0.27964   0.75975   0.77203   0.00000  Uiso   1.00
H216   H     0.26992   0.63222   0.78755   0.00000  Uiso   1.00
H217   H     0.20991   0.81401   0.70585   0.00000  Uiso   1.00
H218   H     0.34332   0.83525   0.83066   0.00000  Uiso   1.00
H219   H     0.28398   0.48735   0.79216   0.00000  Uiso   1.00
H220   H     0.15745   0.87069   0.61991   0.00000  Uiso   1.00
H221   H     0.43877   0.91549   0.88308   0.00000  Uiso   1.00
O222   O     0.36303   0.39153   0.75912   0.00000  Uiso   1.00
O223   O     0.19703   0.89446   0.53314   0.00000  Uiso   1.00
O224   O     0.56612   0.95323   0.87841   0.00000  Uiso   1.00
N225   N     0.41073   0.48735   0.72659   0.00000  Uiso   1.00
N226   N     0.29242   0.84574   0.56555   0.00000  Uiso   1.00
N227   N     0.55544   0.88763   0.81158   0.00000  Uiso   1.00
N228   N     0.32248   0.49967   0.77124   0.00000  Uiso   1.00
N229   N     0.20417   0.85805   0.61019   0.00000  Uiso   1.00
N230   N     0.46719   0.89995   0.85623   0.00000  Uiso   1.00
C231   C     0.92731   0.23913   0.19733   0.00000  Uiso   1.00
C232   C     0.90118   0.17275   0.21631   0.00000  Uiso   1.00
C233   C     0.92836   0.11008   0.20740   0.00000  Uiso   1.00
C234   C     0.89714   0.05548   0.22803   0.00000  Uiso   1.00
C235   C     0.86512   0.95121   0.25315   0.00000  Uiso   1.00
C236   C     0.86857   0.27152   0.17192   0.00000  Uiso   1.00
C237   C     0.86834   0.29189   0.12569   0.00000  Uiso   1.00
C238   C     0.80967   0.32044   0.10896   0.00000  Uiso   1.00
C239   C     0.72704   0.36955   0.06517   0.00000  Uiso   1.00
C240   C     0.94106   0.28305   0.23973   0.00000  Uiso   1.00
C241   C     0.00177   0.31314   0.25051   0.00000  Uiso   1.00
C242   C     0.00413   0.35142   0.29087   0.00000  Uiso   1.00
C243   C     0.03405   0.41844   0.35236   0.00000  Uiso   1.00
C244   C     0.82353   0.25362   0.24983   0.00000  Uiso   1.00
C245   C     0.84481   0.18063   0.24483   0.00000  Uiso   1.00
C246   C     0.81354   0.12611   0.26548   0.00000  Uiso   1.00
C247   C     0.84067   0.06337   0.25660   0.00000  Uiso   1.00
C248   C     0.81220   0.27939   0.20044   0.00000  Uiso   1.00
C249   C     0.75352   0.30792   0.18378   0.00000  Uiso   1.00
C250   C     0.75319   0.32833   0.13753   0.00000  Uiso   1.00
C251   C     0.88469   0.29092   0.26825   0.00000  Uiso   1.00
C252   C     0.88695   0.32917   0.30860   0.00000  Uiso   1.00
C253   C     0.94765   0.35931   0.31943   0.00000  Uiso   1.00
H254   H     0.97119   0.23301   0.17513   0.00000  Uiso   1.00
H255   H     0.97198   0.10401   0.18532   0.00000  Uiso   1.00
H256   H     0.91197   0.28580   0.10363   0.00000  Uiso   1.00
H257   H     0.04538   0.30704   0.22843   0.00000  Uiso   1.00
H258   H     0.94798   0.96446   0.20919   0.00000  Uiso   1.00
H259   H     0.82145   0.34779   0.03694   0.00000  Uiso   1.00
H260   H     0.10278   0.39259   0.30011   0.00000  Uiso   1.00
H261   H     0.77964   0.25975   0.27203   0.00000  Uiso   1.00
H262   H     0.76992   0.13222   0.28755   0.00000  Uiso   1.00
H263   H     0.70991   0.31401   0.20585   0.00000  Uiso   1.00
H264   H     0.84332   0.33525   0.33066   0.00000  Uiso   1.00
H265   H     0.78398   0.98735   0.29216   0.00000  Uiso   1.00
H266   H     0.65745   0.37069   0.11991   0.00000  Uiso   1.00
H267   H     0.93877   0.41549   0.38308   0.00000  Uiso   1.00
O268   O     0.86303   0.89153   0.25912   0.00000  Uiso   1.00
O269   O     0.69703   0.39446   0.03314   0.00000  Uiso   1.00
O270   O     0.06612   0.45323   0.37841   0.00000  Uiso   1.00
N271   N     0.91073   0.98735   0.22659   0.00000  Uiso   1.00
N272   N     0.79242   0.34574   0.06555   0.00000  Uiso   1.00
N273   N     0.05544   0.38763   0.31158   0.00000  Uiso   1.00
N274   N     0.82248   0.99967   0.27124   0.00000  Uiso   1.00
N275   N     0.70417   0.35805   0.11019   0.00000  Uiso   1.00
N276   N     0.96719   0.39995   0.35623   0.00000  Uiso   1.00
C277   C     0.07269   0.76087   0.19733   0.00000  Uiso   1.00
C278   C     0.09882   0.82725   0.21631   0.00000  Uiso   1.00
C279   C     0.07164   0.88992   0.20740   0.00000  Uiso   1.00
C280   C     0.10286   0.94452   0.22803   0.00000  Uiso   1.00
C281   C     0.13488   0.04879   0.25315   0.00000  Uiso   1.00
C282   C     0.13143   0.72848   0.17192   0.00000  Uiso   1.00
C283   C     0.13166   0.70811   0.12569   0.00000  Uiso   1.00
C284   C     0.19033   0.67956   0.10896   0.00000  Uiso   1.00
C285   C     0.27296   0.63045   0.06517   0.00000  Uiso   1.00
C286   C     0.05894   0.71695   0.23973   0.00000  Uiso   1.00
C287   C     0.99823   0.68686   0.25051   0.00000  Uiso   1.00
C288   C     0.99587   0.64858   0.29087   0.00000  Uiso   1.00
C289   C     0.96595   0.58156   0.35236   0.00000  Uiso   1.00
C290   C     0.17647   0.74638   0.24983   0.00000  Uiso   1.00
C291   C     0.15519   0.81937   0.24483   0.00000  Uiso   1.00
C292   C     0.18646   0.87389   0.26548   0.00000  Uiso   1.00
C293   C     0.15933   0.93663   0.25660   0.00000  Uiso   1.00
C294   C     0.18780   0.72061   0.20044   0.00000  Uiso   1.00
C295   C     0.24648   0.69208   0.18378   0.00000  Uiso   1.00
C296   C     0.24681   0.67167   0.13753   0.00000  Uiso   1.00
C297   C     0.11531   0.70908   0.26825   0.00000  Uiso   1.00
C298   C     0.11305   0.67083   0.30860   0.00000  Uiso   1.00
C299   C     0.05235   0.64069   0.31943   0.00000  Uiso   1.00
H300   H     0.02881   0.76699   0.17513   0.00000  Uiso   1.00
H301   H     0.02802   0.89599   0.18532   0.00000  Uiso   1.00
H302   H     0.08803   0.71420   0.10363   0.00000  Uiso   1.00
H303   H     0.95462   0.69296   0.22843   0.00000  Uiso   1.00
H304   H     0.05202   0.03554   0.20919   0.00000  Uiso   1.00
H305   H     0.17855   0.65221   0.03694   0.00000  Uiso   1.00
H306   H     0.89722   0.60741   0.30011   0.00000  Uiso   1.00
H307   H     0.22036   0.74025   0.27203   0.00000  Uiso   1.00
H308   H     0.23008   0.86778   0.28755   0.00000  Uiso   1.00
H309   H     0.29009   0.68599   0.20585   0.00000  Uiso   1.00
H310   H     0.15668   0.66475   0.33066   0.00000  Uiso   1.00
H311   H     0.21602   0.01265   0.29216   0.00000  Uiso   1.00
H312   H     0.34255   0.62931   0.11991   0.00000  Uiso   1.00
H313   H     0.06123   0.58451   0.38308   0.00000  Uiso   1.00
O314   O     0.13697   0.10847   0.25912   0.00000  Uiso   1.00
O315   O     0.30297   0.60554   0.03314   0.00000  Uiso   1.00
O316   O     0.93388   0.54677   0.37841   0.00000  Uiso   1.00
N317   N     0.08927   0.01265   0.22659   0.00000  Uiso   1.00
N318   N     0.20758   0.65426   0.06555   0.00000  Uiso   1.00
N319   N     0.94456   0.61237   0.31158   0.00000  Uiso   1.00
N320   N     0.17752   0.00033   0.27124   0.00000  Uiso   1.00
N321   N     0.29583   0.64195   0.11019   0.00000  Uiso   1.00
N322   N     0.03281   0.60005   0.35623   0.00000  Uiso   1.00
C323   C     0.57269   0.26087   0.69733   0.00000  Uiso   1.00
C324   C     0.59882   0.32725   0.71631   0.00000  Uiso   1.00
C325   C     0.57164   0.38992   0.70740   0.00000  Uiso   1.00
C326   C     0.60286   0.44452   0.72803   0.00000  Uiso   1.00
C327   C     0.63488   0.54879   0.75315   0.00000  Uiso   1.00
C328   C     0.63143   0.22848   0.67192   0.00000  Uiso   1.00
C329   C     0.63166   0.20811   0.62569   0.00000  Uiso   1.00
C330   C     0.69033   0.17956   0.60896   0.00000  Uiso   1.00
C331   C     0.77296   0.13045   0.56517   0.00000  Uiso   1.00
C332   C     0.55894   0.21695   0.73973   0.00000  Uiso   1.00
C333   C     0.49823   0.18686   0.75051   0.00000  Uiso   1.00
C334   C     0.49587   0.14858   0.79087   0.00000  Uiso   1.00
C335   C     0.46595   0.08156   0.85236   0.00000  Uiso   1.00
C336   C     0.67647   0.24638   0.74983   0.00000  Uiso   1.00
C337   C     0.65519   0.31937   0.74483   0.00000  Uiso   1.00
C338   C     0.68646   0.37389   0.76548   0.00000  Uiso   1.00
C339   C     0.65933   0.43663   0.75660   0.00000  Uiso   1.00
C340   C     0.68780   0.22061   0.70044   0.00000  Uiso   1.00
C341   C     0.74648   0.19208   0.68378   0.00000  Uiso   1.00
C342   C     0.74681   0.17167   0.63753   0.00000  Uiso   1.00
C343   C     0.61531   0.20908   0.76825   0.00000  Uiso   1.00
C344   C     0.61305   0.17083   0.80860   0.00000  Uiso   1.00
C345   C     0.55235   0.14069   0.81943   0.00000  Uiso   1.00
H346   H     0.52881   0.26699   0.67513   0.00000  Uiso   1.00
H347   H     0.52802   0.39599   0.68532   0.00000  Uiso   1.00
H348   H     0.58803   0.21420   0.60363   0.00000  Uiso   1.00
H349   H     0.45462   0.19296   0.72843   0.00000  Uiso   1.00
H350   H     0.55202   0.53554   0.70919   0.00000  Uiso   1.00
H351   H     0.67855   0.15221   0.53694   0.00000  Uiso   1.00
H352   H     0.39722   0.10741   0.80011   0.00000  Uiso   1.00
H353   H     0.72036   0.24025   0.77203   0.00000  Uiso   1.00
H354   H     0.73008   0.36778   0.78755   0.00000  Uiso   1.00
H355   H     0.79009   0.18599   0.70585   0.00000  Uiso   1.00
H356   H     0.65668   0.16475   0.83066   0.00000  Uiso   1.00
H357   H     0.71602   0.51265   0.79216   0.00000  Uiso   1.00
H358   H     0.84255   0.12931   0.61991   0.00000  Uiso   1.00
H359   H     0.56123   0.08451   0.88308   0.00000  Uiso   1.00
O360   O     0.63697   0.60847   0.75912   0.00000  Uiso   1.00
O361   O     0.80297   0.10554   0.53314   0.00000  Uiso   1.00
O362   O     0.43388   0.04677   0.87841   0.00000  Uiso   1.00
N363   N     0.58927   0.51265   0.72659   0.00000  Uiso   1.00
N364   N     0.70758   0.15426   0.56555   0.00000  Uiso   1.00
N365   N     0.44456   0.11237   0.81158   0.00000  Uiso   1.00
N366   N     0.67752   0.50033   0.77124   0.00000  Uiso   1.00
N367   N     0.79583   0.14195   0.61019   0.00000  Uiso   1.00
N368   N     0.53281   0.10005   0.85623   0.00000  Uiso   1.00
C369   C     0.76087   0.92731   0.80267   0.00000  Uiso   1.00
C370   C     0.82725   0.90118   0.78369   0.00000  Uiso   1.00
C371   C     0.88992   0.92836   0.79260   0.00000  Uiso   1.00
C372   C     0.94452   0.89714   0.77197   0.00000  Uiso   1.00
C373   C     0.04879   0.86512   0.74685   0.00000  Uiso   1.00
C374   C     0.72848   0.86857   0.82808   0.00000  Uiso   1.00
C375   C     0.70811   0.86834   0.87431   0.00000  Uiso   1.00
C376   C     0.67956   0.80967   0.89104   0.00000  Uiso   1.00
C377   C     0.63045   0.72704   0.93483   0.00000  Uiso   1.00
C378   C     0.71695   0.94106   0.76027   0.00000  Uiso   1.00
C379   C     0.68686   0.00177   0.74949   0.00000  Uiso   1.00
C380   C     0.64858   0.00413   0.70913   0.00000  Uiso   1.00
C381   C     0.58156   0.03405   0.64764   0.00000  Uiso   1.00
C382   C     0.74638   0.82353   0.75017   0.00000  Uiso   1.00
C383   C     0.81937   0.84481   0.75517   0.00000  Uiso   1.00
C384   C     0.87389   0.81354   0.73452   0.00000  Uiso   1.00
C385   C     0.93663   0.84067   0.74340   0.00000  Uiso   1.00
C386   C     0.72061   0.81220   0.79956   0.00000  Uiso   1.00
C387   C     0.69208   0.75352   0.81622   0.00000  Uiso   1.00
C388   C     0.67167   0.75319   0.86247   0.00000  Uiso   1.00
C389   C     0.70908   0.88469   0.73175   0.00000  Uiso   1.00
C390   C     0.67083   0.88695   0.69140   0.00000  Uiso   1.00
C391   C     0.64069   0.94765   0.68057   0.00000  Uiso   1.00
H392   H     0.76699   0.97119   0.82487   0.00000  Uiso   1.00
H393   H     0.89599   0.97198   0.81468   0.00000  Uiso   1.00
H394   H     0.71420   0.91197   0.89637   0.00000  Uiso   1.00
H395   H     0.69296   0.04538   0.77157   0.00000  Uiso   1.00
H396   H     0.03554   0.94798   0.79081   0.00000  Uiso   1.00
H397   H     0.65221   0.82145   0.96306   0.00000  Uiso   1.00
H398   H     0.60741   0.10278   0.69989   0.00000  Uiso   1.00
H399   H     0.74025   0.77964   0.72797   0.00000  Uiso   1.00
H400   H     0.86778   0.76992   0.71245   0.00000  Uiso   1.00
H401   H     0.68599   0.70991   0.79415   0.00000  Uiso   1.00
H402   H     0.66475   0.84332   0.66934   0.00000  Uiso   1.00
H403   H     0.01265   0.78398   0.70784   0.00000  Uiso   1.00
H404   H     0.62931   0.65745   0.88009   0.00000  Uiso   1.00
H405   H     0.58451   0.93877   0.61692   0.00000  Uiso   1.00
O406   O     0.10847   0.86303   0.74088   0.00000  Uiso   1.00
O407   O     0.60554   0.69703   0.96686   0.00000  Uiso   1.00
O408   O     0.54677   0.06612   0.62159   0.00000  Uiso   1.00
N409   N     0.01265   0.91073   0.77341   0.00000  Uiso   1.00
N410   N     0.65426   0.79242   0.93445   0.00000  Uiso   1.00
N411   N     0.61237   0.05544   0.68842   0.00000  Uiso   1.00
N412   N     0.00033   0.82248   0.72876   0.00000  Uiso   1.00
N413   N     0.64195   0.70417   0.88981   0.00000  Uiso   1.00
N414   N     0.60005   0.96719   0.64377   0.00000  Uiso   1.00
C415   C     0.26087   0.42731   0.30267   0.00000  Uiso   1.00
C416   C     0.32725   0.40118   0.28369   0.00000  Uiso   1.00
C417   C     0.38992   0.42836   0.29260   0.00000  Uiso   1.00
C418   C     0.44452   0.39714   0.27197   0.00000  Uiso   1.00
C419   C     0.54879   0.36512   0.24685   0.00000  Uiso   1.00
C420   C     0.22848   0.36857   0.32808   0.00000  Uiso   1.00
C421   C     0.20811   0.36834   0.37431   0.00000  Uiso   1.00
C422   C     0.17956   0.30967   0.39104   0.00000  Uiso   1.00
C423   C     0.13045   0.22704   0.43483   0.00000  Uiso   1.00
C424   C     0.21695   0.44106   0.26027   0.00000  Uiso   1.00
C425   C     0.18686   0.50177   0.24949   0.00000  Uiso   1.00
C426   C     0.14858   0.50413   0.20913   0.00000  Uiso   1.00
C427   C     0.08156   0.53405   0.14764   0.00000  Uiso   1.00
C428   C     0.24638   0.32353   0.25017   0.00000  Uiso   1.00
C429   C     0.31937   0.34481   0.25517   0.00000  Uiso   1.00
C430   C     0.37389   0.31354   0.23452   0.00000  Uiso   1.00
C431   C     0.43663   0.34067   0.24340   0.00000  Uiso   1.00
C432   C     0.22061   0.31220   0.29956   0.00000  Uiso   1.00
C433   C     0.19208   0.25352   0.31622   0.00000  Uiso   1.00
C434   C     0.17167   0.25319   0.36247   0.00000  Uiso   1.00
C435   C     0.20908   0.38469   0.23175   0.00000  Uiso   1.00
C436   C     0.17083   0.38695   0.19140   0.00000  Uiso   1.00
C437   C     0.14069   0.44765   0.18057   0.00000  Uiso   1.00
H438   H     0.26699   0.47119   0.32487   0.00000  Uiso   1.00
H439   H     0.39599   0.47198   0.31468   0.00000  Uiso   1.00
H440   H     0.21420   0.41197   0.39637   0.00000  Uiso   1.00
H441   H     0.19296   0.54538   0.27157   0.00000  Uiso   1.00
H442   H     0.53554   0.44798   0.29081   0.00000  Uiso   1.00
H443   H     0.15221   0.32145   0.46306   0.00000  Uiso   1.00
H444   H     0.10741   0.60278   0.19989   0.00000  Uiso   1.00
H445   H     0.24025   0.27964   0.22797   0.00000  Uiso   1.00
H446   H     0.36778   0.26992   0.21245   0.00000  Uiso   1.00
H447   H     0.18599   0.20991   0.29415   0.00000  Uiso   1.00
H448   H     0.16475   0.34332   0.16934   0.00000  Uiso   1.00
H449   H     0.51265   0.28398   0.20784   0.00000  Uiso   1.00
H450   H     0.12931   0.15745   0.38009   0.00000  Uiso   1.00
H451   H     0.08451   0.43877   0.11692   0.00000  Uiso   1.00
O452   O     0.60847   0.36303   0.24088   0.00000  Uiso   1.00
O453   O     0.10554   0.19703   0.46686   0.00000  Uiso   1.00
O454   O     0.04677   0.56612   0.12159   0.00000  Uiso   1.00
N455   N     0.51265   0.41073   0.27341   0.00000  Uiso   1.00
N456   N     0.15426   0.29242   0.43445   0.00000  Uiso   1.00
N457   N     0.11237   0.55544   0.18842   0.00000  Uiso   1.00
N458   N     0.50033   0.32248   0.22876   0.00000  Uiso   1.00
N459   N     0.14195   0.20417   0.38981   0.00000  Uiso   1.00
N460   N     0.10005   0.46719   0.14377   0.00000  Uiso   1.00
C461   C     0.73913   0.57269   0.30267   0.00000  Uiso   1.00
C462   C     0.67275   0.59882   0.28369   0.00000  Uiso   1.00
C463   C     0.61008   0.57164   0.29260   0.00000  Uiso   1.00
C464   C     0.55548   0.60286   0.27197   0.00000  Uiso   1.00
C465   C     0.45121   0.63488   0.24685   0.00000  Uiso   1.00
C466   C     0.77152   0.63143   0.32808   0.00000  Uiso   1.00
C467   C     0.79189   0.63166   0.37431   0.00000  Uiso   1.00
C468   C     0.82044   0.69033   0.39104   0.00000  Uiso   1.00
C469   C     0.86955   0.77296   0.43483   0.00000  Uiso   1.00
C470   C     0.78305   0.55894   0.26027   0.00000  Uiso   1.00
C471   C     0.81314   0.49823   0.24949   0.00000  Uiso   1.00
C472   C     0.85142   0.49587   0.20913   0.00000  Uiso   1.00
C473   C     0.91844   0.46595   0.14764   0.00000  Uiso   1.00
C474   C     0.75362   0.67647   0.25017   0.00000  Uiso   1.00
C475   C     0.68063   0.65519   0.25517   0.00000  Uiso   1.00
C476   C     0.62611   0.68646   0.23452   0.00000  Uiso   1.00
C477   C     0.56337   0.65933   0.24340   0.00000  Uiso   1.00
C478   C     0.77939   0.68780   0.29956   0.00000  Uiso   1.00
C479   C     0.80792   0.74648   0.31622   0.00000  Uiso   1.00
C480   C     0.82833   0.74681   0.36247   0.00000  Uiso   1.00
C481   C     0.79092   0.61531   0.23175   0.00000  Uiso   1.00
C482   C     0.82917   0.61305   0.19140   0.00000  Uiso   1.00
C483   C     0.85931   0.55235   0.18057   0.00000  Uiso   1.00
H484   H     0.73301   0.52881   0.32487   0.00000  Uiso   1.00
H485   H     0.60401   0.52802   0.31468   0.00000  Uiso   1.00
H486   H     0.78580   0.58803   0.39637   0.00000  Uiso   1.00
H487   H     0.80704   0.45462   0.27157   0.00000  Uiso   1.00
H488   H     0.46446   0.55202   0.29081   0.00000  Uiso   1.00
H489   H     0.84779   0.67855   0.46306   0.00000  Uiso   1.00
H490   H     0.89259   0.39722   0.19989   0.00000  Uiso   1.00
H491   H     0.75975   0.72036   0.22797   0.00000  Uiso   1.00
H492   H     0.63222   0.73008   0.21245   0.00000  Uiso   1.00
H493   H     0.81401   0.79009   0.29415   0.00000  Uiso   1.00
H494   H     0.83525   0.65668   0.16934   0.00000  Uiso   1.00
H495   H     0.48735   0.71602   0.20784   0.00000  Uiso   1.00
H496   H     0.87069   0.84255   0.38009   0.00000  Uiso   1.00
H497   H     0.91549   0.56123   0.11692   0.00000  Uiso   1.00
O498   O     0.39153   0.63697   0.24088   0.00000  Uiso   1.00
O499   O     0.89446   0.80297   0.46686   0.00000  Uiso   1.00
O500   O     0.95323   0.43388   0.12159   0.00000  Uiso   1.00
N501   N     0.48735   0.58927   0.27341   0.00000  Uiso   1.00
N502   N     0.84574   0.70758   0.43445   0.00000  Uiso   1.00
N503   N     0.88763   0.44456   0.18842   0.00000  Uiso   1.00
N504   N     0.49967   0.67752   0.22876   0.00000  Uiso   1.00
N505   N     0.85805   0.79583   0.38981   0.00000  Uiso   1.00
N506   N     0.89995   0.53281   0.14377   0.00000  Uiso   1.00
C507   C     0.23913   0.07269   0.80267   0.00000  Uiso   1.00
C508   C     0.17275   0.09882   0.78369   0.00000  Uiso   1.00
C509   C     0.11008   0.07164   0.79260   0.00000  Uiso   1.00
C510   C     0.05548   0.10286   0.77197   0.00000  Uiso   1.00
C511   C     0.95121   0.13488   0.74685   0.00000  Uiso   1.00
C512   C     0.27152   0.13143   0.82808   0.00000  Uiso   1.00
C513   C     0.29189   0.13166   0.87431   0.00000  Uiso   1.00
C514   C     0.32044   0.19033   0.89104   0.00000  Uiso   1.00
C515   C     0.36955   0.27296   0.93483   0.00000  Uiso   1.00
C516   C     0.28305   0.05894   0.76027   0.00000  Uiso   1.00
C517   C     0.31314   0.99823   0.74949   0.00000  Uiso   1.00
C518   C     0.35142   0.99587   0.70913   0.00000  Uiso   1.00
C519   C     0.41844   0.96595   0.64764   0.00000  Uiso   1.00
C520   C     0.25362   0.17647   0.75017   0.00000  Uiso   1.00
C521   C     0.18063   0.15519   0.75517   0.00000  Uiso   1.00
C522   C     0.12611   0.18646   0.73452   0.00000  Uiso   1.00
C523   C     0.06337   0.15933   0.74340   0.00000  Uiso   1.00
C524   C     0.27939   0.18780   0.79956   0.00000  Uiso   1.00
C525   C     0.30792   0.24648   0.81622   0.00000  Uiso   1.00
C526   C     0.32833   0.24681   0.86247   0.00000  Uiso   1.00
C527   C     0.29092   0.11531   0.73175   0.00000  Uiso   1.00
C528   C     0.32917   0.11305   0.69140   0.00000  Uiso   1.00
C529   C     0.35931   0.05235   0.68057   0.00000  Uiso   1.00
H530   H     0.23301   0.02881   0.82487   0.00000  Uiso   1.00
H531   H     0.10401   0.02802   0.81468   0.00000  Uiso   1.00
H532   H     0.28580   0.08803   0.89637   0.00000  Uiso   1.00
H533   H     0.30704   0.95462   0.77157   0.00000  Uiso   1.00
H534   H     0.96446   0.05202   0.79081   0.00000  Uiso   1.00
H535   H     0.34779   0.17855   0.96306   0.00000  Uiso   1.00
H536   H     0.39259   0.89722   0.69989   0.00000  Uiso   1.00
H537   H     0.25975   0.22036   0.72797   0.00000  Uiso   1.00
H538   H     0.13222   0.23008   0.71245   0.00000  Uiso   1.00
H539   H     0.31401   0.29009   0.79415   0.00000  Uiso   1.00
H540   H     0.33525   0.15668   0.66934   0.00000  Uiso   1.00
H541   H     0.98735   0.21602   0.70784   0.00000  Uiso   1.00
H542   H     0.37069   0.34255   0.88009   0.00000  Uiso   1.00
H543   H     0.41549   0.06123   0.61692   0.00000  Uiso   1.00
O544   O     0.89153   0.13697   0.74088   0.00000  Uiso   1.00
O545   O     0.39446   0.30297   0.96686   0.00000  Uiso   1.00
O546   O     0.45323   0.93388   0.62159   0.00000  Uiso   1.00
N547   N     0.98735   0.08927   0.77341   0.00000  Uiso   1.00
N548   N     0.34574   0.20758   0.93445   0.00000  Uiso   1.00
N549   N     0.38763   0.94456   0.68842   0.00000  Uiso   1.00
N550   N     0.99967   0.17752   0.72876   0.00000  Uiso   1.00
N551   N     0.35805   0.29583   0.88981   0.00000  Uiso   1.00
N552   N     0.39995   0.03281   0.64377   0.00000  Uiso   1.00
C553   C     0.57269   0.76087   0.55267   0.00000  Uiso   1.00
C554   C     0.59882   0.82725   0.53369   0.00000  Uiso   1.00
C555   C     0.57164   0.88992   0.54260   0.00000  Uiso   1.00
C556   C     0.60286   0.94452   0.52197   0.00000  Uiso   1.00
C557   C     0.63488   0.04879   0.49685   0.00000  Uiso   1.00
C558   C     0.63143   0.72848   0.57808   0.00000  Uiso   1.00
C559   C     0.63166   0.70811   0.62431   0.00000  Uiso   1.00
C560   C     0.69033   0.67956   0.64104   0.00000  Uiso   1.00
C561   C     0.77296   0.63045   0.68483   0.00000  Uiso   1.00
C562   C     0.55894   0.71695   0.51027   0.00000  Uiso   1.00
C563   C     0.49823   0.68686   0.49949   0.00000  Uiso   1.00
C564   C     0.49587   0.64858   0.45913   0.00000  Uiso   1.00
C565   C     0.46595   0.58156   0.39764   0.00000  Uiso   1.00
C566   C     0.67647   0.74638   0.50017   0.00000  Uiso   1.00
C567   C     0.65519   0.81937   0.50517   0.00000  Uiso   1.00
C568   C     0.68646   0.87389   0.48452   0.00000  Uiso   1.00
C569   C     0.65933   0.93663   0.49340   0.00000  Uiso   1.00
C570   C     0.68780   0.72061   0.54956   0.00000  Uiso   1.00
C571   C     0.74648   0.69208   0.56622   0.00000  Uiso   1.00
C572   C     0.74681   0.67167   0.61247   0.00000  Uiso   1.00
C573   C     0.61531   0.70908   0.48175   0.00000  Uiso   1.00
C574   C     0.61305   0.67083   0.44140   0.00000  Uiso   1.00
C575   C     0.55235   0.64069   0.43057   0.00000  Uiso   1.00
H576   H     0.52881   0.76699   0.57487   0.00000  Uiso   1.00
H577   H     0.52802   0.89599   0.56468   0.00000  Uiso   1.00
H578   H     0.58803   0.71420   0.64637   0.00000  Uiso   1.00
H579   H     0.45462   0.69296   0.52157   0.00000  Uiso   1.00
H580   H     0.55202   0.03554   0.54081   0.00000  Uiso   1.00
H581   H     0.67855   0.65221   0.71306   0.00000  Uiso   1.00
H582   H     0.39722   0.60741   0.44989   0.00000  Uiso   1.00
H583   H     0.72036   0.74025   0.47797   0.00000  Uiso   1.00
H584   H     0.73008   0.86778   0.46245   0.00000  Uiso   1.00
H585   H     0.79009   0.68599   0.54415   0.00000  Uiso   1.00
H586   H     0.65668   0.66475   0.41934   0.00000  Uiso   1.00
H587   H     0.71602   0.01265   0.45784   0.00000  Uiso   1.00
H588   H     0.84255   0.62931   0.63009   0.00000  Uiso   1.00
H589   H     0.56123   0.58451   0.36692   0.00000  Uiso   1.00
O590   O     0.63697   0.10847   0.49088   0.00000  Uiso   1.00
O591   O     0.80297   0.60554   0.71686   0.00000  Uiso   1.00
O592   O     0.43388   0.54677   0.37159   0.00000  Uiso   1.00
N593   N     0.58927   0.01265   0.52341   0.00000  Uiso   1.00
N594   N     0.70758   0.65426   0.68445   0.00000  Uiso   1.00
N595   N     0.44456   0.61237   0.43842   0.00000  Uiso   1.00
N596   N     0.67752   0.00033   0.47876   0.00000  Uiso   1.00
N597   N     0.79583   0.64195   0.63981   0.00000  Uiso   1.00
N598   N     0.53281   0.60005   0.39377   0.00000  Uiso   1.00
C599   C     0.07269   0.26087   0.05267   0.00000  Uiso   1.00
C600   C     0.09882   0.32725   0.03369   0.00000  Uiso   1.00
C601   C     0.07164   0.38992   0.04260   0.00000  Uiso   1.00
C602   C     0.10286   0.44452   0.02197   0.00000  Uiso   1.00
C603   C     0.13488   0.54879   0.99685   0.00000  Uiso   1.00
C604   C     0.13143   0.22848   0.07808   0.00000  Uiso   1.00
C605   C     0.13166   0.20811   0.12431   0.00000  Uiso   1.00
C606   C     0.19033   0.17956   0.14104   0.00000  Uiso   1.00
C607   C     0.27296   0.13045   0.18483   0.00000  Uiso   1.00
C608   C     0.05894   0.21695   0.01027   0.00000  Uiso   1.00
C609   C     0.99823   0.18686   0.99949   0.00000  Uiso   1.00
C610   C     0.99587   0.14858   0.95913   0.00000  Uiso   1.00
C611   C     0.96595   0.08156   0.89764   0.00000  Uiso   1.00
C612   C     0.17647   0.24638   0.00017   0.00000  Uiso   1.00
C613   C     0.15519   0.31937   0.00517   0.00000  Uiso   1.00
C614   C     0.18646   0.37389   0.98452   0.00000  Uiso   1.00
C615   C     0.15933   0.43663   0.99340   0.00000  Uiso   1.00
C616   C     0.18780   0.22061   0.04956   0.00000  Uiso   1.00
C617   C     0.24648   0.19208   0.06622   0.00000  Uiso   1.00
C618   C     0.24681   0.17167   0.11247   0.00000  Uiso   1.00
C619   C     0.11531   0.20908   0.98175   0.00000  Uiso   1.00
C620   C     0.11305   0.17083   0.94140   0.00000  Uiso   1.00
C621   C     0.05235   0.14069   0.93057   0.00000  Uiso   1.00
H622   H     0.02881   0.26699   0.07487   0.00000  Uiso   1.00
H623   H     0.02802   0.39599   0.06468   0.00000  Uiso   1.00
H624   H     0.08803   0.21420   0.14637   0.00000  Uiso   1.00
H625   H     0.95462   0.19296   0.02157   0.00000  Uiso   1.00
H626   H     0.05202   0.53554   0.04081   0.00000  Uiso   1.00
H627   H     0.17855   0.15221   0.21306   0.00000  Uiso   1.00
H628   H     0.89722   0.10741   0.94989   0.00000  Uiso   1.00
H629   H     0.22036   0.24025   0.97797   0.00000  Uiso   1.00
H630   H     0.23008   0.36778   0.96245   0.00000  Uiso   1.00
H631   H     0.29009   0.18599   0.04415   0.00000  Uiso   1.00
H632   H     0.15668   0.16475   0.91934   0.00000  Uiso   1.00
H633   H     0.21602   0.51265   0.95784   0.00000  Uiso   1.00
H634   H     0.34255   0.12931   0.13009   0.00000  Uiso   1.00
H635   H     0.06123   0.08451   0.86692   0.00000  Uiso   1.00
O636   O     0.13697   0.60847   0.99088   0.00000  Uiso   1.00
O637   O     0.30297   0.10554   0.21686   0.00000  Uiso   1.00
O638   O     0.93388   0.04677   0.87159   0.00000  Uiso   1.00
N639   N     0.08927   0.51265   0.02341   0.00000  Uiso   1.00
N640   N     0.20758   0.15426   0.18445   0.00000  Uiso   1.00
N641   N     0.94456   0.11237   0.93842   0.00000  Uiso   1.00
N642   N     0.17752   0.50033   0.97876   0.00000  Uiso   1.00
N643   N     0.29583   0.14195   0.13981   0.00000  Uiso   1.00
N644   N     0.03281   0.10005   0.89377   0.00000  Uiso   1.00
C645   C     0.92731   0.73913   0.05267   0.00000  Uiso   1.00
C646   C     0.90118   0.67275   0.03369   0.00000  Uiso   1.00
C647   C     0.92836   0.61008   0.04260   0.00000  Uiso   1.00
C648   C     0.89714   0.55548   0.02197   0.00000  Uiso   1.00
C649   C     0.86512   0.45121   0.99685   0.00000  Uiso   1.00
C650   C     0.86857   0.77152   0.07808   0.00000  Uiso   1.00
C651   C     0.86834   0.79189   0.12431   0.00000  Uiso   1.00
C652   C     0.80967   0.82044   0.14104   0.00000  Uiso   1.00
C653   C     0.72704   0.86955   0.18483   0.00000  Uiso   1.00
C654   C     0.94106   0.78305   0.01027   0.00000  Uiso   1.00
C655   C     0.00177   0.81314   0.99949   0.00000  Uiso   1.00
C656   C     0.00413   0.85142   0.95913   0.00000  Uiso   1.00
C657   C     0.03405   0.91844   0.89764   0.00000  Uiso   1.00
C658   C     0.82353   0.75362   0.00017   0.00000  Uiso   1.00
C659   C     0.84481   0.68063   0.00517   0.00000  Uiso   1.00
C660   C     0.81354   0.62611   0.98452   0.00000  Uiso   1.00
C661   C     0.84067   0.56337   0.99340   0.00000  Uiso   1.00
C662   C     0.81220   0.77939   0.04956   0.00000  Uiso   1.00
C663   C     0.75352   0.80792   0.06622   0.00000  Uiso   1.00
C664   C     0.75319   0.82833   0.11247   0.00000  Uiso   1.00
C665   C     0.88469   0.79092   0.98175   0.00000  Uiso   1.00
C666   C     0.88695   0.82917   0.94140   0.00000  Uiso   1.00
C667   C     0.94765   0.85931   0.93057   0.00000  Uiso   1.00
H668   H     0.97119   0.73301   0.07487   0.00000  Uiso   1.00
H669   H     0.97198   0.60401   0.06468   0.00000  Uiso   1.00
H670   H     0.91197   0.78580   0.14637   0.00000  Uiso   1.00
H671   H     0.04538   0.80704   0.02157   0.00000  Uiso   1.00
H672   H     0.94798   0.46446   0.04081   0.00000  Uiso   1.00
H673   H     0.82145   0.84779   0.21306   0.00000  Uiso   1.00
H674   H     0.10278   0.89259   0.94989   0.00000  Uiso   1.00
H675   H     0.77964   0.75975   0.97797   0.00000  Uiso   1.00
H676   H     0.76992   0.63222   0.96245   0.00000  Uiso   1.00
H677   H     0.70991   0.81401   0.04415   0.00000  Uiso   1.00
H678   H     0.84332   0.83525   0.91934   0.00000  Uiso   1.00
H679   H     0.78398   0.48735   0.95784   0.00000  Uiso   1.00
H680   H     0.65745   0.87069   0.13009   0.00000  Uiso   1.00
H681   H     0.93877   0.91549   0.86692   0.00000  Uiso   1.00
O682   O     0.86303   0.39153   0.99088   0.00000  Uiso   1.00
O683   O     0.69703   0.89446   0.21686   0.00000  Uiso   1.00
O684   O     0.06612   0.95323   0.87159   0.00000  Uiso   1.00
N685   N     0.91073   0.48735   0.02341   0.00000  Uiso   1.00
N686   N     0.79242   0.84574   0.18445   0.00000  Uiso   1.00
N687   N     0.05544   0.88763   0.93842   0.00000  Uiso   1.00
N688   N     0.82248   0.49967   0.97876   0.00000  Uiso   1.00
N689   N     0.70417   0.85805   0.13981   0.00000  Uiso   1.00
N690   N     0.96719   0.89995   0.89377   0.00000  Uiso   1.00
C691   C     0.42731   0.23913   0.55267   0.00000  Uiso   1.00
C692   C     0.40118   0.17275   0.53369   0.00000  Uiso   1.00
C693   C     0.42836   0.11008   0.54260   0.00000  Uiso   1.00
C694   C     0.39714   0.05548   0.52197   0.00000  Uiso   1.00
C695   C     0.36512   0.95121   0.49685   0.00000  Uiso   1.00
C696   C     0.36857   0.27152   0.57808   0.00000  Uiso   1.00
C697   C     0.36834   0.29189   0.62431   0.00000  Uiso   1.00
C698   C     0.30967   0.32044   0.64104   0.00000  Uiso   1.00
C699   C     0.22704   0.36955   0.68483   0.00000  Uiso   1.00
C700   C     0.44106   0.28305   0.51027   0.00000  Uiso   1.00
C701   C     0.50177   0.31314   0.49949   0.00000  Uiso   1.00
C702   C     0.50413   0.35142   0.45913   0.00000  Uiso   1.00
C703   C     0.53405   0.41844   0.39764   0.00000  Uiso   1.00
C704   C     0.32353   0.25362   0.50017   0.00000  Uiso   1.00
C705   C     0.34481   0.18063   0.50517   0.00000  Uiso   1.00
C706   C     0.31354   0.12611   0.48452   0.00000  Uiso   1.00
C707   C     0.34067   0.06337   0.49340   0.00000  Uiso   1.00
C708   C     0.31220   0.27939   0.54956   0.00000  Uiso   1.00
C709   C     0.25352   0.30792   0.56622   0.00000  Uiso   1.00
C710   C     0.25319   0.32833   0.61247   0.00000  Uiso   1.00
C711   C     0.38469   0.29092   0.48175   0.00000  Uiso   1.00
C712   C     0.38695   0.32917   0.44140   0.00000  Uiso   1.00
C713   C     0.44765   0.35931   0.43057   0.00000  Uiso   1.00
H714   H     0.47119   0.23301   0.57487   0.00000  Uiso   1.00
H715   H     0.47198   0.10401   0.56468   0.00000  Uiso   1.00
H716   H     0.41197   0.28580   0.64637   0.00000  Uiso   1.00
H717   H     0.54538   0.30704   0.52157   0.00000  Uiso   1.00
H718   H     0.44798   0.96446   0.54081   0.00000  Uiso   1.00
H719   H     0.32145   0.34779   0.71306   0.00000  Uiso   1.00
H720   H     0.60278   0.39259   0.44989   0.00000  Uiso   1.00
H721   H     0.27964   0.25975   0.47797   0.00000  Uiso   1.00
H722   H     0.26992   0.13222   0.46245   0.00000  Uiso   1.00
H723   H     0.20991   0.31401   0.54415   0.00000  Uiso   1.00
H724   H     0.34332   0.33525   0.41934   0.00000  Uiso   1.00
H725   H     0.28398   0.98735   0.45784   0.00000  Uiso   1.00
H726   H     0.15745   0.37069   0.63009   0.00000  Uiso   1.00
H727   H     0.43877   0.41549   0.36692   0.00000  Uiso   1.00
O728   O     0.36303   0.89153   0.49088   0.00000  Uiso   1.00
O729   O     0.19703   0.39446   0.71686   0.00000  Uiso   1.00
O730   O     0.56612   0.45323   0.37159   0.00000  Uiso   1.00
N731   N     0.41073   0.98735   0.52341   0.00000  Uiso   1.00
N732   N     0.29242   0.34574   0.68445   0.00000  Uiso   1.00
N733   N     0.55544   0.38763   0.43842   0.00000  Uiso   1.00
N734   N     0.32248   0.99967   0.47876   0.00000  Uiso   1.00
N735   N     0.20417   0.35805   0.63981   0.00000  Uiso   1.00
N736   N     0.46719   0.39995   0.39377   0.00000  Uiso   1.00
