data_job_05048
_audit_creation_date              2018-12-19
_audit_creation_method            'Materials Studio'
_symmetry_space_group_name_H-M    'P1'
_symmetry_Int_Tables_number       1
_symmetry_cell_setting            triclinic
loop_
_symmetry_equiv_pos_as_xyz
  x,y,z
_cell_length_a                    18.8443
_cell_length_b                    30.7370
_cell_length_c                    15.3859
_cell_angle_alpha                 90.0000
_cell_angle_beta                  90.0000
_cell_angle_gamma                 90.0000
loop_
_atom_site_label
_atom_site_type_symbol
_atom_site_fract_x
_atom_site_fract_y
_atom_site_fract_z
_atom_site_U_iso_or_equiv
_atom_site_adp_type
_atom_site_occupancy
C1     C     0.77958   0.50403   0.59386   0.00000  Uiso   1.00
C2     C     0.84967   0.47930   0.59027   0.00000  Uiso   1.00
C3     C     0.88522   0.46701   0.51519   0.00000  Uiso   1.00
C4     C     0.94861   0.44459   0.52567   0.00000  Uiso   1.00
C5     C     0.05334   0.40766   0.50751   0.00000  Uiso   1.00
C6     C     0.72919   0.47589   0.64729   0.00000  Uiso   1.00
C7     C     0.66344   0.46075   0.62015   0.00000  Uiso   1.00
C8     C     0.62539   0.43546   0.67863   0.00000  Uiso   1.00
C9     C     0.54306   0.39326   0.74903   0.00000  Uiso   1.00
C10    C     0.79369   0.54458   0.64829   0.00000  Uiso   1.00
C11    C     0.78215   0.58719   0.62200   0.00000  Uiso   1.00
C12    C     0.79840   0.61973   0.68134   0.00000  Uiso   1.00
C13    C     0.81622   0.68418   0.75328   0.00000  Uiso   1.00
C14    C     0.82892   0.48606   0.74598   0.00000  Uiso   1.00
C15    C     0.87646   0.46954   0.67289   0.00000  Uiso   1.00
C16    C     0.93981   0.44713   0.68349   0.00000  Uiso   1.00
C17    C     0.97546   0.43481   0.60844   0.00000  Uiso   1.00
C18    C     0.75598   0.46613   0.72991   0.00000  Uiso   1.00
C19    C     0.71803   0.44086   0.78845   0.00000  Uiso   1.00
C20    C     0.65224   0.42568   0.76141   0.00000  Uiso   1.00
C21    C     0.82049   0.53482   0.73091   0.00000  Uiso   1.00
C22    C     0.83675   0.56730   0.79030   0.00000  Uiso   1.00
C23    C     0.82525   0.60995   0.76412   0.00000  Uiso   1.00
H24    H     0.75871   0.51163   0.52954   0.00000  Uiso   1.00
H25    H     0.86446   0.47457   0.45125   0.00000  Uiso   1.00
H26    H     0.64271   0.46831   0.55621   0.00000  Uiso   1.00
H27    H     0.76142   0.59473   0.55806   0.00000  Uiso   1.00
H28    H     0.99351   0.42917   0.40090   0.00000  Uiso   1.00
H29    H     0.52592   0.41597   0.62221   0.00000  Uiso   1.00
H30    H     0.77624   0.68256   0.62611   0.00000  Uiso   1.00
H31    H     0.84978   0.47846   0.81032   0.00000  Uiso   1.00
H32    H     0.96054   0.43958   0.74744   0.00000  Uiso   1.00
H33    H     0.73878   0.43331   0.85239   0.00000  Uiso   1.00
H34    H     0.85749   0.55974   0.85424   0.00000  Uiso   1.00
H35    H     0.07149   0.40076   0.64130   0.00000  Uiso   1.00
H36    H     0.60390   0.38757   0.86260   0.00000  Uiso   1.00
H37    H     0.85421   0.65416   0.86651   0.00000  Uiso   1.00
O38    O     0.10371   0.38998   0.47467   0.00000  Uiso   1.00
O39    O     0.49024   0.37268   0.76502   0.00000  Uiso   1.00
O40    O     0.81865   0.72243   0.77014   0.00000  Uiso   1.00
N41    N     0.99667   0.42782   0.46611   0.00000  Uiso   1.00
N42    N     0.55951   0.41548   0.67301   0.00000  Uiso   1.00
N43    N     0.79351   0.66472   0.67667   0.00000  Uiso   1.00
N44    N     0.03863   0.41254   0.59546   0.00000  Uiso   1.00
N45    N     0.60147   0.40020   0.80236   0.00000  Uiso   1.00
N46    N     0.83547   0.64944   0.80602   0.00000  Uiso   1.00
C47    C     0.77958   0.00403   0.09386   0.00000  Uiso   1.00
C48    C     0.84967   0.97930   0.09027   0.00000  Uiso   1.00
C49    C     0.88522   0.96701   0.01519   0.00000  Uiso   1.00
C50    C     0.94861   0.94459   0.02567   0.00000  Uiso   1.00
C51    C     0.05334   0.90766   0.00751   0.00000  Uiso   1.00
C52    C     0.72919   0.97589   0.14729   0.00000  Uiso   1.00
C53    C     0.66344   0.96075   0.12015   0.00000  Uiso   1.00
C54    C     0.62539   0.93546   0.17863   0.00000  Uiso   1.00
C55    C     0.54306   0.89326   0.24903   0.00000  Uiso   1.00
C56    C     0.79369   0.04458   0.14829   0.00000  Uiso   1.00
C57    C     0.78215   0.08719   0.12200   0.00000  Uiso   1.00
C58    C     0.79840   0.11973   0.18134   0.00000  Uiso   1.00
C59    C     0.81622   0.18418   0.25328   0.00000  Uiso   1.00
C60    C     0.82892   0.98606   0.24598   0.00000  Uiso   1.00
C61    C     0.87646   0.96954   0.17289   0.00000  Uiso   1.00
C62    C     0.93981   0.94713   0.18349   0.00000  Uiso   1.00
C63    C     0.97546   0.93481   0.10844   0.00000  Uiso   1.00
C64    C     0.75598   0.96613   0.22991   0.00000  Uiso   1.00
C65    C     0.71803   0.94086   0.28845   0.00000  Uiso   1.00
C66    C     0.65224   0.92568   0.26141   0.00000  Uiso   1.00
C67    C     0.82049   0.03482   0.23091   0.00000  Uiso   1.00
C68    C     0.83675   0.06730   0.29030   0.00000  Uiso   1.00
C69    C     0.82525   0.10995   0.26412   0.00000  Uiso   1.00
H70    H     0.75871   0.01163   0.02954   0.00000  Uiso   1.00
H71    H     0.86446   0.97457   0.95125   0.00000  Uiso   1.00
H72    H     0.64271   0.96831   0.05621   0.00000  Uiso   1.00
H73    H     0.76142   0.09473   0.05806   0.00000  Uiso   1.00
H74    H     0.99351   0.92917   0.90090   0.00000  Uiso   1.00
H75    H     0.52592   0.91597   0.12221   0.00000  Uiso   1.00
H76    H     0.77624   0.18256   0.12611   0.00000  Uiso   1.00
H77    H     0.84978   0.97846   0.31032   0.00000  Uiso   1.00
H78    H     0.96054   0.93958   0.24744   0.00000  Uiso   1.00
H79    H     0.73878   0.93331   0.35239   0.00000  Uiso   1.00
H80    H     0.85749   0.05974   0.35424   0.00000  Uiso   1.00
H81    H     0.07149   0.90076   0.14130   0.00000  Uiso   1.00
H82    H     0.60390   0.88757   0.36260   0.00000  Uiso   1.00
H83    H     0.85421   0.15416   0.36651   0.00000  Uiso   1.00
O84    O     0.10371   0.88998   0.97467   0.00000  Uiso   1.00
O85    O     0.49024   0.87268   0.26502   0.00000  Uiso   1.00
O86    O     0.81865   0.22243   0.27014   0.00000  Uiso   1.00
N87    N     0.99667   0.92782   0.96611   0.00000  Uiso   1.00
N88    N     0.55951   0.91548   0.17301   0.00000  Uiso   1.00
N89    N     0.79351   0.16472   0.17667   0.00000  Uiso   1.00
N90    N     0.03863   0.91254   0.09546   0.00000  Uiso   1.00
N91    N     0.60147   0.90020   0.30236   0.00000  Uiso   1.00
N92    N     0.83547   0.14944   0.30602   0.00000  Uiso   1.00
C93    C     0.27958   0.50403   0.09386   0.00000  Uiso   1.00
C94    C     0.34967   0.47930   0.09027   0.00000  Uiso   1.00
C95    C     0.38522   0.46701   0.01519   0.00000  Uiso   1.00
C96    C     0.44861   0.44459   0.02567   0.00000  Uiso   1.00
C97    C     0.55334   0.40766   0.00751   0.00000  Uiso   1.00
C98    C     0.22919   0.47589   0.14729   0.00000  Uiso   1.00
C99    C     0.16344   0.46075   0.12015   0.00000  Uiso   1.00
C100   C     0.12539   0.43546   0.17863   0.00000  Uiso   1.00
C101   C     0.04306   0.39326   0.24903   0.00000  Uiso   1.00
C102   C     0.29369   0.54458   0.14829   0.00000  Uiso   1.00
C103   C     0.28215   0.58719   0.12200   0.00000  Uiso   1.00
C104   C     0.29840   0.61973   0.18134   0.00000  Uiso   1.00
C105   C     0.31622   0.68418   0.25328   0.00000  Uiso   1.00
C106   C     0.32892   0.48606   0.24598   0.00000  Uiso   1.00
C107   C     0.37646   0.46954   0.17289   0.00000  Uiso   1.00
C108   C     0.43981   0.44713   0.18349   0.00000  Uiso   1.00
C109   C     0.47546   0.43481   0.10844   0.00000  Uiso   1.00
C110   C     0.25598   0.46613   0.22991   0.00000  Uiso   1.00
C111   C     0.21803   0.44086   0.28845   0.00000  Uiso   1.00
C112   C     0.15224   0.42568   0.26141   0.00000  Uiso   1.00
C113   C     0.32049   0.53482   0.23091   0.00000  Uiso   1.00
C114   C     0.33675   0.56730   0.29030   0.00000  Uiso   1.00
C115   C     0.32525   0.60995   0.26412   0.00000  Uiso   1.00
H116   H     0.25871   0.51163   0.02954   0.00000  Uiso   1.00
H117   H     0.36446   0.47457   0.95125   0.00000  Uiso   1.00
H118   H     0.14271   0.46831   0.05621   0.00000  Uiso   1.00
H119   H     0.26142   0.59473   0.05806   0.00000  Uiso   1.00
H120   H     0.49351   0.42917   0.90090   0.00000  Uiso   1.00
H121   H     0.02592   0.41597   0.12221   0.00000  Uiso   1.00
H122   H     0.27624   0.68256   0.12611   0.00000  Uiso   1.00
H123   H     0.34978   0.47846   0.31032   0.00000  Uiso   1.00
H124   H     0.46054   0.43958   0.24744   0.00000  Uiso   1.00
H125   H     0.23878   0.43331   0.35239   0.00000  Uiso   1.00
H126   H     0.35749   0.55974   0.35424   0.00000  Uiso   1.00
H127   H     0.57149   0.40076   0.14130   0.00000  Uiso   1.00
H128   H     0.10390   0.38757   0.36260   0.00000  Uiso   1.00
H129   H     0.35421   0.65416   0.36651   0.00000  Uiso   1.00
O130   O     0.60371   0.38998   0.97467   0.00000  Uiso   1.00
O131   O     0.99024   0.37268   0.26502   0.00000  Uiso   1.00
O132   O     0.31865   0.72243   0.27014   0.00000  Uiso   1.00
N133   N     0.49667   0.42782   0.96611   0.00000  Uiso   1.00
N134   N     0.05951   0.41548   0.17301   0.00000  Uiso   1.00
N135   N     0.29351   0.66472   0.17667   0.00000  Uiso   1.00
N136   N     0.53863   0.41254   0.09546   0.00000  Uiso   1.00
N137   N     0.10147   0.40020   0.30236   0.00000  Uiso   1.00
N138   N     0.33547   0.64944   0.30602   0.00000  Uiso   1.00
C139   C     0.27958   0.00403   0.59386   0.00000  Uiso   1.00
C140   C     0.34967   0.97930   0.59027   0.00000  Uiso   1.00
C141   C     0.38522   0.96701   0.51519   0.00000  Uiso   1.00
C142   C     0.44861   0.94459   0.52567   0.00000  Uiso   1.00
C143   C     0.55334   0.90766   0.50751   0.00000  Uiso   1.00
C144   C     0.22919   0.97589   0.64729   0.00000  Uiso   1.00
C145   C     0.16344   0.96075   0.62015   0.00000  Uiso   1.00
C146   C     0.12539   0.93546   0.67863   0.00000  Uiso   1.00
C147   C     0.04306   0.89326   0.74903   0.00000  Uiso   1.00
C148   C     0.29369   0.04458   0.64829   0.00000  Uiso   1.00
C149   C     0.28215   0.08719   0.62200   0.00000  Uiso   1.00
C150   C     0.29840   0.11973   0.68134   0.00000  Uiso   1.00
C151   C     0.31622   0.18418   0.75328   0.00000  Uiso   1.00
C152   C     0.32892   0.98606   0.74598   0.00000  Uiso   1.00
C153   C     0.37646   0.96954   0.67289   0.00000  Uiso   1.00
C154   C     0.43981   0.94713   0.68349   0.00000  Uiso   1.00
C155   C     0.47546   0.93481   0.60844   0.00000  Uiso   1.00
C156   C     0.25598   0.96613   0.72991   0.00000  Uiso   1.00
C157   C     0.21803   0.94086   0.78845   0.00000  Uiso   1.00
C158   C     0.15224   0.92568   0.76141   0.00000  Uiso   1.00
C159   C     0.32049   0.03482   0.73091   0.00000  Uiso   1.00
C160   C     0.33675   0.06730   0.79030   0.00000  Uiso   1.00
C161   C     0.32525   0.10995   0.76412   0.00000  Uiso   1.00
H162   H     0.25871   0.01163   0.52954   0.00000  Uiso   1.00
H163   H     0.36446   0.97457   0.45125   0.00000  Uiso   1.00
H164   H     0.14271   0.96831   0.55621   0.00000  Uiso   1.00
H165   H     0.26142   0.09473   0.55806   0.00000  Uiso   1.00
H166   H     0.49351   0.92917   0.40090   0.00000  Uiso   1.00
H167   H     0.02592   0.91597   0.62221   0.00000  Uiso   1.00
H168   H     0.27624   0.18256   0.62611   0.00000  Uiso   1.00
H169   H     0.34978   0.97846   0.81032   0.00000  Uiso   1.00
H170   H     0.46054   0.93958   0.74744   0.00000  Uiso   1.00
H171   H     0.23878   0.93331   0.85239   0.00000  Uiso   1.00
H172   H     0.35749   0.05974   0.85424   0.00000  Uiso   1.00
H173   H     0.57149   0.90076   0.64130   0.00000  Uiso   1.00
H174   H     0.10390   0.88757   0.86260   0.00000  Uiso   1.00
H175   H     0.35421   0.15416   0.86651   0.00000  Uiso   1.00
O176   O     0.60371   0.88998   0.47467   0.00000  Uiso   1.00
O177   O     0.99024   0.87268   0.76502   0.00000  Uiso   1.00
O178   O     0.31865   0.22243   0.77014   0.00000  Uiso   1.00
N179   N     0.49667   0.92782   0.46611   0.00000  Uiso   1.00
N180   N     0.05951   0.91548   0.67301   0.00000  Uiso   1.00
N181   N     0.29351   0.16472   0.67667   0.00000  Uiso   1.00
N182   N     0.53863   0.91254   0.59546   0.00000  Uiso   1.00
N183   N     0.10147   0.90020   0.80236   0.00000  Uiso   1.00
N184   N     0.33547   0.14944   0.80602   0.00000  Uiso   1.00
C185   C     0.22042   0.49597   0.59386   0.00000  Uiso   1.00
C186   C     0.15033   0.52070   0.59027   0.00000  Uiso   1.00
C187   C     0.11478   0.53299   0.51519   0.00000  Uiso   1.00
C188   C     0.05139   0.55541   0.52567   0.00000  Uiso   1.00
C189   C     0.94666   0.59234   0.50751   0.00000  Uiso   1.00
C190   C     0.27081   0.52411   0.64729   0.00000  Uiso   1.00
C191   C     0.33656   0.53925   0.62015   0.00000  Uiso   1.00
C192   C     0.37461   0.56454   0.67863   0.00000  Uiso   1.00
C193   C     0.45694   0.60674   0.74903   0.00000  Uiso   1.00
C194   C     0.20631   0.45542   0.64829   0.00000  Uiso   1.00
C195   C     0.21785   0.41281   0.62200   0.00000  Uiso   1.00
C196   C     0.20160   0.38027   0.68134   0.00000  Uiso   1.00
C197   C     0.18378   0.31582   0.75328   0.00000  Uiso   1.00
C198   C     0.17108   0.51394   0.74598   0.00000  Uiso   1.00
C199   C     0.12354   0.53046   0.67289   0.00000  Uiso   1.00
C200   C     0.06019   0.55287   0.68349   0.00000  Uiso   1.00
C201   C     0.02454   0.56519   0.60844   0.00000  Uiso   1.00
C202   C     0.24402   0.53387   0.72991   0.00000  Uiso   1.00
C203   C     0.28197   0.55914   0.78845   0.00000  Uiso   1.00
C204   C     0.34776   0.57432   0.76141   0.00000  Uiso   1.00
C205   C     0.17951   0.46518   0.73091   0.00000  Uiso   1.00
C206   C     0.16325   0.43270   0.79030   0.00000  Uiso   1.00
C207   C     0.17475   0.39005   0.76412   0.00000  Uiso   1.00
H208   H     0.24129   0.48837   0.52954   0.00000  Uiso   1.00
H209   H     0.13554   0.52543   0.45125   0.00000  Uiso   1.00
H210   H     0.35729   0.53169   0.55621   0.00000  Uiso   1.00
H211   H     0.23858   0.40527   0.55806   0.00000  Uiso   1.00
H212   H     0.00649   0.57083   0.40090   0.00000  Uiso   1.00
H213   H     0.47408   0.58403   0.62221   0.00000  Uiso   1.00
H214   H     0.22376   0.31744   0.62611   0.00000  Uiso   1.00
H215   H     0.15022   0.52154   0.81032   0.00000  Uiso   1.00
H216   H     0.03946   0.56042   0.74744   0.00000  Uiso   1.00
H217   H     0.26122   0.56669   0.85239   0.00000  Uiso   1.00
H218   H     0.14251   0.44026   0.85424   0.00000  Uiso   1.00
H219   H     0.92851   0.59924   0.64130   0.00000  Uiso   1.00
H220   H     0.39610   0.61243   0.86260   0.00000  Uiso   1.00
H221   H     0.14579   0.34584   0.86651   0.00000  Uiso   1.00
O222   O     0.89629   0.61002   0.47467   0.00000  Uiso   1.00
O223   O     0.50976   0.62732   0.76502   0.00000  Uiso   1.00
O224   O     0.18135   0.27757   0.77014   0.00000  Uiso   1.00
N225   N     0.00333   0.57218   0.46611   0.00000  Uiso   1.00
N226   N     0.44049   0.58452   0.67301   0.00000  Uiso   1.00
N227   N     0.20649   0.33528   0.67667   0.00000  Uiso   1.00
N228   N     0.96137   0.58746   0.59546   0.00000  Uiso   1.00
N229   N     0.39853   0.59980   0.80236   0.00000  Uiso   1.00
N230   N     0.16453   0.35056   0.80602   0.00000  Uiso   1.00
C231   C     0.22042   0.99597   0.09386   0.00000  Uiso   1.00
C232   C     0.15033   0.02070   0.09027   0.00000  Uiso   1.00
C233   C     0.11478   0.03299   0.01519   0.00000  Uiso   1.00
C234   C     0.05139   0.05541   0.02567   0.00000  Uiso   1.00
C235   C     0.94666   0.09234   0.00751   0.00000  Uiso   1.00
C236   C     0.27081   0.02411   0.14729   0.00000  Uiso   1.00
C237   C     0.33656   0.03925   0.12015   0.00000  Uiso   1.00
C238   C     0.37461   0.06454   0.17863   0.00000  Uiso   1.00
C239   C     0.45694   0.10674   0.24903   0.00000  Uiso   1.00
C240   C     0.20631   0.95542   0.14829   0.00000  Uiso   1.00
C241   C     0.21785   0.91281   0.12200   0.00000  Uiso   1.00
C242   C     0.20160   0.88027   0.18134   0.00000  Uiso   1.00
C243   C     0.18378   0.81582   0.25328   0.00000  Uiso   1.00
C244   C     0.17108   0.01394   0.24598   0.00000  Uiso   1.00
C245   C     0.12354   0.03046   0.17289   0.00000  Uiso   1.00
C246   C     0.06019   0.05287   0.18349   0.00000  Uiso   1.00
C247   C     0.02454   0.06519   0.10844   0.00000  Uiso   1.00
C248   C     0.24402   0.03387   0.22991   0.00000  Uiso   1.00
C249   C     0.28197   0.05914   0.28845   0.00000  Uiso   1.00
C250   C     0.34776   0.07432   0.26141   0.00000  Uiso   1.00
C251   C     0.17951   0.96518   0.23091   0.00000  Uiso   1.00
C252   C     0.16325   0.93270   0.29030   0.00000  Uiso   1.00
C253   C     0.17475   0.89005   0.26412   0.00000  Uiso   1.00
H254   H     0.24129   0.98837   0.02954   0.00000  Uiso   1.00
H255   H     0.13554   0.02543   0.95125   0.00000  Uiso   1.00
H256   H     0.35729   0.03169   0.05621   0.00000  Uiso   1.00
H257   H     0.23858   0.90527   0.05806   0.00000  Uiso   1.00
H258   H     0.00649   0.07083   0.90090   0.00000  Uiso   1.00
H259   H     0.47408   0.08403   0.12221   0.00000  Uiso   1.00
H260   H     0.22376   0.81744   0.12611   0.00000  Uiso   1.00
H261   H     0.15022   0.02154   0.31032   0.00000  Uiso   1.00
H262   H     0.03946   0.06042   0.24744   0.00000  Uiso   1.00
H263   H     0.26122   0.06669   0.35239   0.00000  Uiso   1.00
H264   H     0.14251   0.94026   0.35424   0.00000  Uiso   1.00
H265   H     0.92851   0.09924   0.14130   0.00000  Uiso   1.00
H266   H     0.39610   0.11243   0.36260   0.00000  Uiso   1.00
H267   H     0.14579   0.84584   0.36651   0.00000  Uiso   1.00
O268   O     0.89629   0.11002   0.97467   0.00000  Uiso   1.00
O269   O     0.50976   0.12732   0.26502   0.00000  Uiso   1.00
O270   O     0.18135   0.77757   0.27014   0.00000  Uiso   1.00
N271   N     0.00333   0.07218   0.96611   0.00000  Uiso   1.00
N272   N     0.44049   0.08452   0.17301   0.00000  Uiso   1.00
N273   N     0.20649   0.83528   0.17667   0.00000  Uiso   1.00
N274   N     0.96137   0.08746   0.09546   0.00000  Uiso   1.00
N275   N     0.39853   0.09980   0.30236   0.00000  Uiso   1.00
N276   N     0.16453   0.85056   0.30602   0.00000  Uiso   1.00
C277   C     0.72042   0.49597   0.09386   0.00000  Uiso   1.00
C278   C     0.65033   0.52070   0.09027   0.00000  Uiso   1.00
C279   C     0.61478   0.53299   0.01519   0.00000  Uiso   1.00
C280   C     0.55139   0.55541   0.02567   0.00000  Uiso   1.00
C281   C     0.44666   0.59234   0.00751   0.00000  Uiso   1.00
C282   C     0.77081   0.52411   0.14729   0.00000  Uiso   1.00
C283   C     0.83656   0.53925   0.12015   0.00000  Uiso   1.00
C284   C     0.87461   0.56454   0.17863   0.00000  Uiso   1.00
C285   C     0.95694   0.60674   0.24903   0.00000  Uiso   1.00
C286   C     0.70631   0.45542   0.14829   0.00000  Uiso   1.00
C287   C     0.71785   0.41281   0.12200   0.00000  Uiso   1.00
C288   C     0.70160   0.38027   0.18134   0.00000  Uiso   1.00
C289   C     0.68378   0.31582   0.25328   0.00000  Uiso   1.00
C290   C     0.67108   0.51394   0.24598   0.00000  Uiso   1.00
C291   C     0.62354   0.53046   0.17289   0.00000  Uiso   1.00
C292   C     0.56019   0.55287   0.18349   0.00000  Uiso   1.00
C293   C     0.52454   0.56519   0.10844   0.00000  Uiso   1.00
C294   C     0.74402   0.53387   0.22991   0.00000  Uiso   1.00
C295   C     0.78197   0.55914   0.28845   0.00000  Uiso   1.00
C296   C     0.84776   0.57432   0.26141   0.00000  Uiso   1.00
C297   C     0.67951   0.46518   0.23091   0.00000  Uiso   1.00
C298   C     0.66325   0.43270   0.29030   0.00000  Uiso   1.00
C299   C     0.67475   0.39005   0.26412   0.00000  Uiso   1.00
H300   H     0.74129   0.48837   0.02954   0.00000  Uiso   1.00
H301   H     0.63554   0.52543   0.95125   0.00000  Uiso   1.00
H302   H     0.85729   0.53169   0.05621   0.00000  Uiso   1.00
H303   H     0.73858   0.40527   0.05806   0.00000  Uiso   1.00
H304   H     0.50649   0.57083   0.90090   0.00000  Uiso   1.00
H305   H     0.97408   0.58403   0.12221   0.00000  Uiso   1.00
H306   H     0.72376   0.31744   0.12611   0.00000  Uiso   1.00
H307   H     0.65022   0.52154   0.31032   0.00000  Uiso   1.00
H308   H     0.53946   0.56042   0.24744   0.00000  Uiso   1.00
H309   H     0.76122   0.56669   0.35239   0.00000  Uiso   1.00
H310   H     0.64251   0.44026   0.35424   0.00000  Uiso   1.00
H311   H     0.42851   0.59924   0.14130   0.00000  Uiso   1.00
H312   H     0.89610   0.61243   0.36260   0.00000  Uiso   1.00
H313   H     0.64579   0.34584   0.36651   0.00000  Uiso   1.00
O314   O     0.39629   0.61002   0.97467   0.00000  Uiso   1.00
O315   O     0.00976   0.62732   0.26502   0.00000  Uiso   1.00
O316   O     0.68135   0.27757   0.27014   0.00000  Uiso   1.00
N317   N     0.50333   0.57218   0.96611   0.00000  Uiso   1.00
N318   N     0.94049   0.58452   0.17301   0.00000  Uiso   1.00
N319   N     0.70649   0.33528   0.17667   0.00000  Uiso   1.00
N320   N     0.46137   0.58746   0.09546   0.00000  Uiso   1.00
N321   N     0.89853   0.59980   0.30236   0.00000  Uiso   1.00
N322   N     0.66453   0.35056   0.30602   0.00000  Uiso   1.00
C323   C     0.72042   0.99597   0.59386   0.00000  Uiso   1.00
C324   C     0.65033   0.02070   0.59027   0.00000  Uiso   1.00
C325   C     0.61478   0.03299   0.51519   0.00000  Uiso   1.00
C326   C     0.55139   0.05541   0.52567   0.00000  Uiso   1.00
C327   C     0.44666   0.09234   0.50751   0.00000  Uiso   1.00
C328   C     0.77081   0.02411   0.64729   0.00000  Uiso   1.00
C329   C     0.83656   0.03925   0.62015   0.00000  Uiso   1.00
C330   C     0.87461   0.06454   0.67863   0.00000  Uiso   1.00
C331   C     0.95694   0.10674   0.74903   0.00000  Uiso   1.00
C332   C     0.70631   0.95542   0.64829   0.00000  Uiso   1.00
C333   C     0.71785   0.91281   0.62200   0.00000  Uiso   1.00
C334   C     0.70160   0.88027   0.68134   0.00000  Uiso   1.00
C335   C     0.68378   0.81582   0.75328   0.00000  Uiso   1.00
C336   C     0.67108   0.01394   0.74598   0.00000  Uiso   1.00
C337   C     0.62354   0.03046   0.67289   0.00000  Uiso   1.00
C338   C     0.56019   0.05287   0.68349   0.00000  Uiso   1.00
C339   C     0.52454   0.06519   0.60844   0.00000  Uiso   1.00
C340   C     0.74402   0.03387   0.72991   0.00000  Uiso   1.00
C341   C     0.78197   0.05914   0.78845   0.00000  Uiso   1.00
C342   C     0.84776   0.07432   0.76141   0.00000  Uiso   1.00
C343   C     0.67951   0.96518   0.73091   0.00000  Uiso   1.00
C344   C     0.66325   0.93270   0.79030   0.00000  Uiso   1.00
C345   C     0.67475   0.89005   0.76412   0.00000  Uiso   1.00
H346   H     0.74129   0.98837   0.52954   0.00000  Uiso   1.00
H347   H     0.63554   0.02543   0.45125   0.00000  Uiso   1.00
H348   H     0.85729   0.03169   0.55621   0.00000  Uiso   1.00
H349   H     0.73858   0.90527   0.55806   0.00000  Uiso   1.00
H350   H     0.50649   0.07083   0.40090   0.00000  Uiso   1.00
H351   H     0.97408   0.08403   0.62221   0.00000  Uiso   1.00
H352   H     0.72376   0.81744   0.62611   0.00000  Uiso   1.00
H353   H     0.65022   0.02154   0.81032   0.00000  Uiso   1.00
H354   H     0.53946   0.06042   0.74744   0.00000  Uiso   1.00
H355   H     0.76122   0.06669   0.85239   0.00000  Uiso   1.00
H356   H     0.64251   0.94026   0.85424   0.00000  Uiso   1.00
H357   H     0.42851   0.09924   0.64130   0.00000  Uiso   1.00
H358   H     0.89610   0.11243   0.86260   0.00000  Uiso   1.00
H359   H     0.64579   0.84584   0.86651   0.00000  Uiso   1.00
O360   O     0.39629   0.11002   0.47467   0.00000  Uiso   1.00
O361   O     0.00976   0.12732   0.76502   0.00000  Uiso   1.00
O362   O     0.68135   0.77757   0.77014   0.00000  Uiso   1.00
N363   N     0.50333   0.07218   0.46611   0.00000  Uiso   1.00
N364   N     0.94049   0.08452   0.67301   0.00000  Uiso   1.00
N365   N     0.70649   0.83528   0.67667   0.00000  Uiso   1.00
N366   N     0.46137   0.08746   0.59546   0.00000  Uiso   1.00
N367   N     0.89853   0.09980   0.80236   0.00000  Uiso   1.00
N368   N     0.66453   0.85056   0.80602   0.00000  Uiso   1.00
C369   C     0.02958   0.74597   0.84386   0.00000  Uiso   1.00
C370   C     0.09967   0.77070   0.84027   0.00000  Uiso   1.00
C371   C     0.13522   0.78299   0.76519   0.00000  Uiso   1.00
C372   C     0.19861   0.80541   0.77567   0.00000  Uiso   1.00
C373   C     0.30334   0.84234   0.75751   0.00000  Uiso   1.00
C374   C     0.97919   0.77411   0.89729   0.00000  Uiso   1.00
C375   C     0.91344   0.78925   0.87015   0.00000  Uiso   1.00
C376   C     0.87539   0.81454   0.92863   0.00000  Uiso   1.00
C377   C     0.79306   0.85674   0.99903   0.00000  Uiso   1.00
C378   C     0.04369   0.70542   0.89829   0.00000  Uiso   1.00
C379   C     0.03215   0.66281   0.87200   0.00000  Uiso   1.00
C380   C     0.04840   0.63027   0.93134   0.00000  Uiso   1.00
C381   C     0.06622   0.56582   0.00328   0.00000  Uiso   1.00
C382   C     0.07892   0.76394   0.99598   0.00000  Uiso   1.00
C383   C     0.12646   0.78046   0.92289   0.00000  Uiso   1.00
C384   C     0.18981   0.80287   0.93349   0.00000  Uiso   1.00
C385   C     0.22546   0.81519   0.85844   0.00000  Uiso   1.00
C386   C     0.00598   0.78387   0.97991   0.00000  Uiso   1.00
C387   C     0.96803   0.80914   0.03845   0.00000  Uiso   1.00
C388   C     0.90224   0.82432   0.01141   0.00000  Uiso   1.00
C389   C     0.07049   0.71518   0.98091   0.00000  Uiso   1.00
C390   C     0.08675   0.68270   0.04030   0.00000  Uiso   1.00
C391   C     0.07525   0.64005   0.01412   0.00000  Uiso   1.00
H392   H     0.00871   0.73837   0.77954   0.00000  Uiso   1.00
H393   H     0.11446   0.77543   0.70125   0.00000  Uiso   1.00
H394   H     0.89271   0.78169   0.80621   0.00000  Uiso   1.00
H395   H     0.01142   0.65527   0.80806   0.00000  Uiso   1.00
H396   H     0.24351   0.82083   0.65090   0.00000  Uiso   1.00
H397   H     0.77592   0.83403   0.87221   0.00000  Uiso   1.00
H398   H     0.02624   0.56744   0.87611   0.00000  Uiso   1.00
H399   H     0.09978   0.77154   0.06032   0.00000  Uiso   1.00
H400   H     0.21054   0.81042   0.99744   0.00000  Uiso   1.00
H401   H     0.98878   0.81669   0.10239   0.00000  Uiso   1.00
H402   H     0.10749   0.69026   0.10424   0.00000  Uiso   1.00
H403   H     0.32149   0.84924   0.89130   0.00000  Uiso   1.00
H404   H     0.85390   0.86243   0.11260   0.00000  Uiso   1.00
H405   H     0.10421   0.59584   0.11651   0.00000  Uiso   1.00
O406   O     0.35371   0.86002   0.72467   0.00000  Uiso   1.00
O407   O     0.74024   0.87732   0.01502   0.00000  Uiso   1.00
O408   O     0.06865   0.52757   0.02014   0.00000  Uiso   1.00
N409   N     0.24667   0.82218   0.71611   0.00000  Uiso   1.00
N410   N     0.80951   0.83452   0.92301   0.00000  Uiso   1.00
N411   N     0.04351   0.58528   0.92667   0.00000  Uiso   1.00
N412   N     0.28863   0.83746   0.84546   0.00000  Uiso   1.00
N413   N     0.85147   0.84980   0.05236   0.00000  Uiso   1.00
N414   N     0.08547   0.60056   0.05602   0.00000  Uiso   1.00
C415   C     0.02958   0.24597   0.34386   0.00000  Uiso   1.00
C416   C     0.09967   0.27070   0.34027   0.00000  Uiso   1.00
C417   C     0.13522   0.28299   0.26519   0.00000  Uiso   1.00
C418   C     0.19861   0.30541   0.27567   0.00000  Uiso   1.00
C419   C     0.30334   0.34234   0.25751   0.00000  Uiso   1.00
C420   C     0.97919   0.27411   0.39729   0.00000  Uiso   1.00
C421   C     0.91344   0.28925   0.37015   0.00000  Uiso   1.00
C422   C     0.87539   0.31454   0.42863   0.00000  Uiso   1.00
C423   C     0.79306   0.35674   0.49903   0.00000  Uiso   1.00
C424   C     0.04369   0.20542   0.39829   0.00000  Uiso   1.00
C425   C     0.03215   0.16281   0.37200   0.00000  Uiso   1.00
C426   C     0.04840   0.13027   0.43134   0.00000  Uiso   1.00
C427   C     0.06622   0.06582   0.50328   0.00000  Uiso   1.00
C428   C     0.07892   0.26394   0.49598   0.00000  Uiso   1.00
C429   C     0.12646   0.28046   0.42289   0.00000  Uiso   1.00
C430   C     0.18981   0.30287   0.43349   0.00000  Uiso   1.00
C431   C     0.22546   0.31519   0.35844   0.00000  Uiso   1.00
C432   C     0.00598   0.28387   0.47991   0.00000  Uiso   1.00
C433   C     0.96803   0.30914   0.53845   0.00000  Uiso   1.00
C434   C     0.90224   0.32432   0.51141   0.00000  Uiso   1.00
C435   C     0.07049   0.21518   0.48091   0.00000  Uiso   1.00
C436   C     0.08675   0.18270   0.54030   0.00000  Uiso   1.00
C437   C     0.07525   0.14005   0.51412   0.00000  Uiso   1.00
H438   H     0.00871   0.23837   0.27954   0.00000  Uiso   1.00
H439   H     0.11446   0.27543   0.20125   0.00000  Uiso   1.00
H440   H     0.89271   0.28169   0.30621   0.00000  Uiso   1.00
H441   H     0.01142   0.15527   0.30806   0.00000  Uiso   1.00
H442   H     0.24351   0.32083   0.15090   0.00000  Uiso   1.00
H443   H     0.77592   0.33403   0.37221   0.00000  Uiso   1.00
H444   H     0.02624   0.06744   0.37611   0.00000  Uiso   1.00
H445   H     0.09978   0.27154   0.56032   0.00000  Uiso   1.00
H446   H     0.21054   0.31042   0.49744   0.00000  Uiso   1.00
H447   H     0.98878   0.31669   0.60239   0.00000  Uiso   1.00
H448   H     0.10749   0.19026   0.60424   0.00000  Uiso   1.00
H449   H     0.32149   0.34924   0.39130   0.00000  Uiso   1.00
H450   H     0.85390   0.36243   0.61260   0.00000  Uiso   1.00
H451   H     0.10421   0.09584   0.61651   0.00000  Uiso   1.00
O452   O     0.35371   0.36002   0.22467   0.00000  Uiso   1.00
O453   O     0.74024   0.37732   0.51502   0.00000  Uiso   1.00
O454   O     0.06865   0.02757   0.52014   0.00000  Uiso   1.00
N455   N     0.24667   0.32218   0.21611   0.00000  Uiso   1.00
N456   N     0.80951   0.33452   0.42301   0.00000  Uiso   1.00
N457   N     0.04351   0.08528   0.42667   0.00000  Uiso   1.00
N458   N     0.28863   0.33746   0.34546   0.00000  Uiso   1.00
N459   N     0.85147   0.34980   0.55236   0.00000  Uiso   1.00
N460   N     0.08547   0.10056   0.55602   0.00000  Uiso   1.00
C461   C     0.52958   0.74597   0.34386   0.00000  Uiso   1.00
C462   C     0.59967   0.77070   0.34027   0.00000  Uiso   1.00
C463   C     0.63522   0.78299   0.26519   0.00000  Uiso   1.00
C464   C     0.69861   0.80541   0.27567   0.00000  Uiso   1.00
C465   C     0.80334   0.84234   0.25751   0.00000  Uiso   1.00
C466   C     0.47919   0.77411   0.39729   0.00000  Uiso   1.00
C467   C     0.41344   0.78925   0.37015   0.00000  Uiso   1.00
C468   C     0.37539   0.81454   0.42863   0.00000  Uiso   1.00
C469   C     0.29306   0.85674   0.49903   0.00000  Uiso   1.00
C470   C     0.54369   0.70542   0.39829   0.00000  Uiso   1.00
C471   C     0.53215   0.66281   0.37200   0.00000  Uiso   1.00
C472   C     0.54840   0.63027   0.43134   0.00000  Uiso   1.00
C473   C     0.56622   0.56582   0.50328   0.00000  Uiso   1.00
C474   C     0.57892   0.76394   0.49598   0.00000  Uiso   1.00
C475   C     0.62646   0.78046   0.42289   0.00000  Uiso   1.00
C476   C     0.68981   0.80287   0.43349   0.00000  Uiso   1.00
C477   C     0.72546   0.81519   0.35844   0.00000  Uiso   1.00
C478   C     0.50598   0.78387   0.47991   0.00000  Uiso   1.00
C479   C     0.46803   0.80914   0.53845   0.00000  Uiso   1.00
C480   C     0.40224   0.82432   0.51141   0.00000  Uiso   1.00
C481   C     0.57049   0.71518   0.48091   0.00000  Uiso   1.00
C482   C     0.58675   0.68270   0.54030   0.00000  Uiso   1.00
C483   C     0.57525   0.64005   0.51412   0.00000  Uiso   1.00
H484   H     0.50871   0.73837   0.27954   0.00000  Uiso   1.00
H485   H     0.61446   0.77543   0.20125   0.00000  Uiso   1.00
H486   H     0.39271   0.78169   0.30621   0.00000  Uiso   1.00
H487   H     0.51142   0.65527   0.30806   0.00000  Uiso   1.00
H488   H     0.74351   0.82083   0.15090   0.00000  Uiso   1.00
H489   H     0.27592   0.83403   0.37221   0.00000  Uiso   1.00
H490   H     0.52624   0.56744   0.37611   0.00000  Uiso   1.00
H491   H     0.59978   0.77154   0.56032   0.00000  Uiso   1.00
H492   H     0.71054   0.81042   0.49744   0.00000  Uiso   1.00
H493   H     0.48878   0.81669   0.60239   0.00000  Uiso   1.00
H494   H     0.60749   0.69026   0.60424   0.00000  Uiso   1.00
H495   H     0.82149   0.84924   0.39130   0.00000  Uiso   1.00
H496   H     0.35390   0.86243   0.61260   0.00000  Uiso   1.00
H497   H     0.60421   0.59584   0.61651   0.00000  Uiso   1.00
O498   O     0.85371   0.86002   0.22467   0.00000  Uiso   1.00
O499   O     0.24024   0.87732   0.51502   0.00000  Uiso   1.00
O500   O     0.56865   0.52757   0.52014   0.00000  Uiso   1.00
N501   N     0.74667   0.82218   0.21611   0.00000  Uiso   1.00
N502   N     0.30951   0.83452   0.42301   0.00000  Uiso   1.00
N503   N     0.54351   0.58528   0.42667   0.00000  Uiso   1.00
N504   N     0.78863   0.83746   0.34546   0.00000  Uiso   1.00
N505   N     0.35147   0.84980   0.55236   0.00000  Uiso   1.00
N506   N     0.58547   0.60056   0.55602   0.00000  Uiso   1.00
C507   C     0.52958   0.24597   0.84386   0.00000  Uiso   1.00
C508   C     0.59967   0.27070   0.84027   0.00000  Uiso   1.00
C509   C     0.63522   0.28299   0.76519   0.00000  Uiso   1.00
C510   C     0.69861   0.30541   0.77567   0.00000  Uiso   1.00
C511   C     0.80334   0.34234   0.75751   0.00000  Uiso   1.00
C512   C     0.47919   0.27411   0.89729   0.00000  Uiso   1.00
C513   C     0.41344   0.28925   0.87015   0.00000  Uiso   1.00
C514   C     0.37539   0.31454   0.92863   0.00000  Uiso   1.00
C515   C     0.29306   0.35674   0.99903   0.00000  Uiso   1.00
C516   C     0.54369   0.20542   0.89829   0.00000  Uiso   1.00
C517   C     0.53215   0.16281   0.87200   0.00000  Uiso   1.00
C518   C     0.54840   0.13027   0.93134   0.00000  Uiso   1.00
C519   C     0.56622   0.06582   0.00328   0.00000  Uiso   1.00
C520   C     0.57892   0.26394   0.99598   0.00000  Uiso   1.00
C521   C     0.62646   0.28046   0.92289   0.00000  Uiso   1.00
C522   C     0.68981   0.30287   0.93349   0.00000  Uiso   1.00
C523   C     0.72546   0.31519   0.85844   0.00000  Uiso   1.00
C524   C     0.50598   0.28387   0.97991   0.00000  Uiso   1.00
C525   C     0.46803   0.30914   0.03845   0.00000  Uiso   1.00
C526   C     0.40224   0.32432   0.01141   0.00000  Uiso   1.00
C527   C     0.57049   0.21518   0.98091   0.00000  Uiso   1.00
C528   C     0.58675   0.18270   0.04030   0.00000  Uiso   1.00
C529   C     0.57525   0.14005   0.01412   0.00000  Uiso   1.00
H530   H     0.50871   0.23837   0.77954   0.00000  Uiso   1.00
H531   H     0.61446   0.27543   0.70125   0.00000  Uiso   1.00
H532   H     0.39271   0.28169   0.80621   0.00000  Uiso   1.00
H533   H     0.51142   0.15527   0.80806   0.00000  Uiso   1.00
H534   H     0.74351   0.32083   0.65090   0.00000  Uiso   1.00
H535   H     0.27592   0.33403   0.87221   0.00000  Uiso   1.00
H536   H     0.52624   0.06744   0.87611   0.00000  Uiso   1.00
H537   H     0.59978   0.27154   0.06032   0.00000  Uiso   1.00
H538   H     0.71054   0.31042   0.99744   0.00000  Uiso   1.00
H539   H     0.48878   0.31669   0.10239   0.00000  Uiso   1.00
H540   H     0.60749   0.19026   0.10424   0.00000  Uiso   1.00
H541   H     0.82149   0.34924   0.89130   0.00000  Uiso   1.00
H542   H     0.35390   0.36243   0.11260   0.00000  Uiso   1.00
H543   H     0.60421   0.09584   0.11651   0.00000  Uiso   1.00
O544   O     0.85371   0.36002   0.72467   0.00000  Uiso   1.00
O545   O     0.24024   0.37732   0.01502   0.00000  Uiso   1.00
O546   O     0.56865   0.02757   0.02014   0.00000  Uiso   1.00
N547   N     0.74667   0.32218   0.71611   0.00000  Uiso   1.00
N548   N     0.30951   0.33452   0.92301   0.00000  Uiso   1.00
N549   N     0.54351   0.08528   0.92667   0.00000  Uiso   1.00
N550   N     0.78863   0.33746   0.84546   0.00000  Uiso   1.00
N551   N     0.35147   0.34980   0.05236   0.00000  Uiso   1.00
N552   N     0.58547   0.10056   0.05602   0.00000  Uiso   1.00
C553   C     0.47042   0.75403   0.84386   0.00000  Uiso   1.00
C554   C     0.40033   0.72930   0.84027   0.00000  Uiso   1.00
C555   C     0.36478   0.71701   0.76519   0.00000  Uiso   1.00
C556   C     0.30139   0.69459   0.77567   0.00000  Uiso   1.00
C557   C     0.19666   0.65766   0.75751   0.00000  Uiso   1.00
C558   C     0.52081   0.72589   0.89729   0.00000  Uiso   1.00
C559   C     0.58656   0.71075   0.87015   0.00000  Uiso   1.00
C560   C     0.62461   0.68546   0.92863   0.00000  Uiso   1.00
C561   C     0.70694   0.64326   0.99903   0.00000  Uiso   1.00
C562   C     0.45631   0.79458   0.89829   0.00000  Uiso   1.00
C563   C     0.46785   0.83719   0.87200   0.00000  Uiso   1.00
C564   C     0.45160   0.86973   0.93134   0.00000  Uiso   1.00
C565   C     0.43378   0.93418   0.00328   0.00000  Uiso   1.00
C566   C     0.42108   0.73606   0.99598   0.00000  Uiso   1.00
C567   C     0.37354   0.71954   0.92289   0.00000  Uiso   1.00
C568   C     0.31019   0.69713   0.93349   0.00000  Uiso   1.00
C569   C     0.27454   0.68481   0.85844   0.00000  Uiso   1.00
C570   C     0.49402   0.71613   0.97991   0.00000  Uiso   1.00
C571   C     0.53197   0.69086   0.03845   0.00000  Uiso   1.00
C572   C     0.59776   0.67568   0.01141   0.00000  Uiso   1.00
C573   C     0.42951   0.78482   0.98091   0.00000  Uiso   1.00
C574   C     0.41325   0.81730   0.04030   0.00000  Uiso   1.00
C575   C     0.42475   0.85995   0.01412   0.00000  Uiso   1.00
H576   H     0.49129   0.76163   0.77954   0.00000  Uiso   1.00
H577   H     0.38554   0.72457   0.70125   0.00000  Uiso   1.00
H578   H     0.60729   0.71831   0.80621   0.00000  Uiso   1.00
H579   H     0.48858   0.84473   0.80806   0.00000  Uiso   1.00
H580   H     0.25649   0.67917   0.65090   0.00000  Uiso   1.00
H581   H     0.72408   0.66597   0.87221   0.00000  Uiso   1.00
H582   H     0.47376   0.93256   0.87611   0.00000  Uiso   1.00
H583   H     0.40022   0.72846   0.06032   0.00000  Uiso   1.00
H584   H     0.28946   0.68958   0.99744   0.00000  Uiso   1.00
H585   H     0.51122   0.68331   0.10239   0.00000  Uiso   1.00
H586   H     0.39251   0.80974   0.10424   0.00000  Uiso   1.00
H587   H     0.17851   0.65076   0.89130   0.00000  Uiso   1.00
H588   H     0.64610   0.63757   0.11260   0.00000  Uiso   1.00
H589   H     0.39579   0.90416   0.11651   0.00000  Uiso   1.00
O590   O     0.14629   0.63998   0.72467   0.00000  Uiso   1.00
O591   O     0.75976   0.62268   0.01502   0.00000  Uiso   1.00
O592   O     0.43135   0.97243   0.02014   0.00000  Uiso   1.00
N593   N     0.25333   0.67782   0.71611   0.00000  Uiso   1.00
N594   N     0.69049   0.66548   0.92301   0.00000  Uiso   1.00
N595   N     0.45649   0.91472   0.92667   0.00000  Uiso   1.00
N596   N     0.21137   0.66254   0.84546   0.00000  Uiso   1.00
N597   N     0.64853   0.65020   0.05236   0.00000  Uiso   1.00
N598   N     0.41453   0.89944   0.05602   0.00000  Uiso   1.00
C599   C     0.47042   0.25403   0.34386   0.00000  Uiso   1.00
C600   C     0.40033   0.22930   0.34027   0.00000  Uiso   1.00
C601   C     0.36478   0.21701   0.26519   0.00000  Uiso   1.00
C602   C     0.30139   0.19459   0.27567   0.00000  Uiso   1.00
C603   C     0.19666   0.15766   0.25751   0.00000  Uiso   1.00
C604   C     0.52081   0.22589   0.39729   0.00000  Uiso   1.00
C605   C     0.58656   0.21075   0.37015   0.00000  Uiso   1.00
C606   C     0.62461   0.18546   0.42863   0.00000  Uiso   1.00
C607   C     0.70694   0.14326   0.49903   0.00000  Uiso   1.00
C608   C     0.45631   0.29458   0.39829   0.00000  Uiso   1.00
C609   C     0.46785   0.33719   0.37200   0.00000  Uiso   1.00
C610   C     0.45160   0.36973   0.43134   0.00000  Uiso   1.00
C611   C     0.43378   0.43418   0.50328   0.00000  Uiso   1.00
C612   C     0.42108   0.23606   0.49598   0.00000  Uiso   1.00
C613   C     0.37354   0.21954   0.42289   0.00000  Uiso   1.00
C614   C     0.31019   0.19713   0.43349   0.00000  Uiso   1.00
C615   C     0.27454   0.18481   0.35844   0.00000  Uiso   1.00
C616   C     0.49402   0.21613   0.47991   0.00000  Uiso   1.00
C617   C     0.53197   0.19086   0.53845   0.00000  Uiso   1.00
C618   C     0.59776   0.17568   0.51141   0.00000  Uiso   1.00
C619   C     0.42951   0.28482   0.48091   0.00000  Uiso   1.00
C620   C     0.41325   0.31730   0.54030   0.00000  Uiso   1.00
C621   C     0.42475   0.35995   0.51412   0.00000  Uiso   1.00
H622   H     0.49129   0.26163   0.27954   0.00000  Uiso   1.00
H623   H     0.38554   0.22457   0.20125   0.00000  Uiso   1.00
H624   H     0.60729   0.21831   0.30621   0.00000  Uiso   1.00
H625   H     0.48858   0.34473   0.30806   0.00000  Uiso   1.00
H626   H     0.25649   0.17917   0.15090   0.00000  Uiso   1.00
H627   H     0.72408   0.16597   0.37221   0.00000  Uiso   1.00
H628   H     0.47376   0.43256   0.37611   0.00000  Uiso   1.00
H629   H     0.40022   0.22846   0.56032   0.00000  Uiso   1.00
H630   H     0.28946   0.18958   0.49744   0.00000  Uiso   1.00
H631   H     0.51122   0.18331   0.60239   0.00000  Uiso   1.00
H632   H     0.39251   0.30974   0.60424   0.00000  Uiso   1.00
H633   H     0.17851   0.15076   0.39130   0.00000  Uiso   1.00
H634   H     0.64610   0.13757   0.61260   0.00000  Uiso   1.00
H635   H     0.39579   0.40416   0.61651   0.00000  Uiso   1.00
O636   O     0.14629   0.13998   0.22467   0.00000  Uiso   1.00
O637   O     0.75976   0.12268   0.51502   0.00000  Uiso   1.00
O638   O     0.43135   0.47243   0.52014   0.00000  Uiso   1.00
N639   N     0.25333   0.17782   0.21611   0.00000  Uiso   1.00
N640   N     0.69049   0.16548   0.42301   0.00000  Uiso   1.00
N641   N     0.45649   0.41472   0.42667   0.00000  Uiso   1.00
N642   N     0.21137   0.16254   0.34546   0.00000  Uiso   1.00
N643   N     0.64853   0.15020   0.55236   0.00000  Uiso   1.00
N644   N     0.41453   0.39944   0.55602   0.00000  Uiso   1.00
C645   C     0.97042   0.75403   0.34386   0.00000  Uiso   1.00
C646   C     0.90033   0.72930   0.34027   0.00000  Uiso   1.00
C647   C     0.86478   0.71701   0.26519   0.00000  Uiso   1.00
C648   C     0.80139   0.69459   0.27567   0.00000  Uiso   1.00
C649   C     0.69666   0.65766   0.25751   0.00000  Uiso   1.00
C650   C     0.02081   0.72589   0.39729   0.00000  Uiso   1.00
C651   C     0.08656   0.71075   0.37015   0.00000  Uiso   1.00
C652   C     0.12461   0.68546   0.42863   0.00000  Uiso   1.00
C653   C     0.20694   0.64326   0.49903   0.00000  Uiso   1.00
C654   C     0.95631   0.79458   0.39829   0.00000  Uiso   1.00
C655   C     0.96785   0.83719   0.37200   0.00000  Uiso   1.00
C656   C     0.95160   0.86973   0.43134   0.00000  Uiso   1.00
C657   C     0.93378   0.93418   0.50328   0.00000  Uiso   1.00
C658   C     0.92108   0.73606   0.49598   0.00000  Uiso   1.00
C659   C     0.87354   0.71954   0.42289   0.00000  Uiso   1.00
C660   C     0.81019   0.69713   0.43349   0.00000  Uiso   1.00
C661   C     0.77454   0.68481   0.35844   0.00000  Uiso   1.00
C662   C     0.99402   0.71613   0.47991   0.00000  Uiso   1.00
C663   C     0.03197   0.69086   0.53845   0.00000  Uiso   1.00
C664   C     0.09776   0.67568   0.51141   0.00000  Uiso   1.00
C665   C     0.92951   0.78482   0.48091   0.00000  Uiso   1.00
C666   C     0.91325   0.81730   0.54030   0.00000  Uiso   1.00
C667   C     0.92475   0.85995   0.51412   0.00000  Uiso   1.00
H668   H     0.99129   0.76163   0.27954   0.00000  Uiso   1.00
H669   H     0.88554   0.72457   0.20125   0.00000  Uiso   1.00
H670   H     0.10729   0.71831   0.30621   0.00000  Uiso   1.00
H671   H     0.98858   0.84473   0.30806   0.00000  Uiso   1.00
H672   H     0.75649   0.67917   0.15090   0.00000  Uiso   1.00
H673   H     0.22408   0.66597   0.37221   0.00000  Uiso   1.00
H674   H     0.97376   0.93256   0.37611   0.00000  Uiso   1.00
H675   H     0.90022   0.72846   0.56032   0.00000  Uiso   1.00
H676   H     0.78946   0.68958   0.49744   0.00000  Uiso   1.00
H677   H     0.01122   0.68331   0.60239   0.00000  Uiso   1.00
H678   H     0.89251   0.80974   0.60424   0.00000  Uiso   1.00
H679   H     0.67851   0.65076   0.39130   0.00000  Uiso   1.00
H680   H     0.14610   0.63757   0.61260   0.00000  Uiso   1.00
H681   H     0.89579   0.90416   0.61651   0.00000  Uiso   1.00
O682   O     0.64629   0.63998   0.22467   0.00000  Uiso   1.00
O683   O     0.25976   0.62268   0.51502   0.00000  Uiso   1.00
O684   O     0.93135   0.97243   0.52014   0.00000  Uiso   1.00
N685   N     0.75333   0.67782   0.21611   0.00000  Uiso   1.00
N686   N     0.19049   0.66548   0.42301   0.00000  Uiso   1.00
N687   N     0.95649   0.91472   0.42667   0.00000  Uiso   1.00
N688   N     0.71137   0.66254   0.34546   0.00000  Uiso   1.00
N689   N     0.14853   0.65020   0.55236   0.00000  Uiso   1.00
N690   N     0.91453   0.89944   0.55602   0.00000  Uiso   1.00
C691   C     0.97042   0.25403   0.84386   0.00000  Uiso   1.00
C692   C     0.90033   0.22930   0.84027   0.00000  Uiso   1.00
C693   C     0.86478   0.21701   0.76519   0.00000  Uiso   1.00
C694   C     0.80139   0.19459   0.77567   0.00000  Uiso   1.00
C695   C     0.69666   0.15766   0.75751   0.00000  Uiso   1.00
C696   C     0.02081   0.22589   0.89729   0.00000  Uiso   1.00
C697   C     0.08656   0.21075   0.87015   0.00000  Uiso   1.00
C698   C     0.12461   0.18546   0.92863   0.00000  Uiso   1.00
C699   C     0.20694   0.14326   0.99903   0.00000  Uiso   1.00
C700   C     0.95631   0.29458   0.89829   0.00000  Uiso   1.00
C701   C     0.96785   0.33719   0.87200   0.00000  Uiso   1.00
C702   C     0.95160   0.36973   0.93134   0.00000  Uiso   1.00
C703   C     0.93378   0.43418   0.00328   0.00000  Uiso   1.00
C704   C     0.92108   0.23606   0.99598   0.00000  Uiso   1.00
C705   C     0.87354   0.21954   0.92289   0.00000  Uiso   1.00
C706   C     0.81019   0.19713   0.93349   0.00000  Uiso   1.00
C707   C     0.77454   0.18481   0.85844   0.00000  Uiso   1.00
C708   C     0.99402   0.21613   0.97991   0.00000  Uiso   1.00
C709   C     0.03197   0.19086   0.03845   0.00000  Uiso   1.00
C710   C     0.09776   0.17568   0.01141   0.00000  Uiso   1.00
C711   C     0.92951   0.28482   0.98091   0.00000  Uiso   1.00
C712   C     0.91325   0.31730   0.04030   0.00000  Uiso   1.00
C713   C     0.92475   0.35995   0.01412   0.00000  Uiso   1.00
H714   H     0.99129   0.26163   0.77954   0.00000  Uiso   1.00
H715   H     0.88554   0.22457   0.70125   0.00000  Uiso   1.00
H716   H     0.10729   0.21831   0.80621   0.00000  Uiso   1.00
H717   H     0.98858   0.34473   0.80806   0.00000  Uiso   1.00
H718   H     0.75649   0.17917   0.65090   0.00000  Uiso   1.00
H719   H     0.22408   0.16597   0.87221   0.00000  Uiso   1.00
H720   H     0.97376   0.43256   0.87611   0.00000  Uiso   1.00
H721   H     0.90022   0.22846   0.06032   0.00000  Uiso   1.00
H722   H     0.78946   0.18958   0.99744   0.00000  Uiso   1.00
H723   H     0.01122   0.18331   0.10239   0.00000  Uiso   1.00
H724   H     0.89251   0.30974   0.10424   0.00000  Uiso   1.00
H725   H     0.67851   0.15076   0.89130   0.00000  Uiso   1.00
H726   H     0.14610   0.13757   0.11260   0.00000  Uiso   1.00
H727   H     0.89579   0.40416   0.11651   0.00000  Uiso   1.00
O728   O     0.64629   0.13998   0.72467   0.00000  Uiso   1.00
O729   O     0.25976   0.12268   0.01502   0.00000  Uiso   1.00
O730   O     0.93135   0.47243   0.02014   0.00000  Uiso   1.00
N731   N     0.75333   0.17782   0.71611   0.00000  Uiso   1.00
N732   N     0.19049   0.16548   0.92301   0.00000  Uiso   1.00
N733   N     0.95649   0.41472   0.92667   0.00000  Uiso   1.00
N734   N     0.71137   0.16254   0.84546   0.00000  Uiso   1.00
N735   N     0.14853   0.15020   0.05236   0.00000  Uiso   1.00
N736   N     0.91453   0.39944   0.05602   0.00000  Uiso   1.00
