data_job_02761
_audit_creation_date              2018-12-19
_audit_creation_method            'Materials Studio'
_symmetry_space_group_name_H-M    'P1'
_symmetry_Int_Tables_number       1
_symmetry_cell_setting            triclinic
loop_
_symmetry_equiv_pos_as_xyz
  x,y,z
_cell_length_a                    17.7786
_cell_length_b                    17.7786
_cell_length_c                    40.9366
_cell_angle_alpha                 90.0000
_cell_angle_beta                  90.0000
_cell_angle_gamma                 90.0000
loop_
_atom_site_label
_atom_site_type_symbol
_atom_site_fract_x
_atom_site_fract_y
_atom_site_fract_z
_atom_site_U_iso_or_equiv
_atom_site_adp_type
_atom_site_occupancy
C1     C     0.56938   0.79042   0.37941   0.00000  Uiso   1.00
C2     C     0.63246   0.78380   0.40449   0.00000  Uiso   1.00
C3     C     0.68302   0.72461   0.40696   0.00000  Uiso   1.00
C4     C     0.73657   0.72908   0.43157   0.00000  Uiso   1.00
C5     C     0.83406   0.70944   0.46728   0.00000  Uiso   1.00
C6     C     0.49701   0.80023   0.39894   0.00000  Uiso   1.00
C7     C     0.43369   0.75486   0.39675   0.00000  Uiso   1.00
C8     C     0.37323   0.77318   0.41669   0.00000  Uiso   1.00
C9     C     0.26041   0.77907   0.44377   0.00000  Uiso   1.00
C10    C     0.58224   0.86481   0.36172   0.00000  Uiso   1.00
C11    C     0.59056   0.87373   0.32824   0.00000  Uiso   1.00
C12    C     0.60183   0.94642   0.31684   0.00000  Uiso   1.00
C13    C     0.62134   0.05257   0.28613   0.00000  Uiso   1.00
C14    C     0.57458   0.90364   0.41870   0.00000  Uiso   1.00
C15    C     0.63528   0.84530   0.42583   0.00000  Uiso   1.00
C16    C     0.68877   0.84987   0.45044   0.00000  Uiso   1.00
C17    C     0.73941   0.79069   0.45295   0.00000  Uiso   1.00
C18    C     0.49984   0.86173   0.42028   0.00000  Uiso   1.00
C19    C     0.43945   0.88012   0.44023   0.00000  Uiso   1.00
C20    C     0.37605   0.83478   0.43807   0.00000  Uiso   1.00
C21    C     0.58507   0.92630   0.38307   0.00000  Uiso   1.00
C22    C     0.59632   0.99899   0.37171   0.00000  Uiso   1.00
C23    C     0.60465   0.00802   0.33822   0.00000  Uiso   1.00
H24    H     0.56718   0.74255   0.36279   0.00000  Uiso   1.00
H25    H     0.68081   0.67703   0.39044   0.00000  Uiso   1.00
H26    H     0.43152   0.70728   0.38023   0.00000  Uiso   1.00
H27    H     0.58837   0.82613   0.31173   0.00000  Uiso   1.00
H28    H     0.80802   0.63149   0.43052   0.00000  Uiso   1.00
H29    H     0.28237   0.69530   0.40898   0.00000  Uiso   1.00
H30    H     0.61311   0.94592   0.26453   0.00000  Uiso   1.00
H31    H     0.57678   0.95151   0.43532   0.00000  Uiso   1.00
H32    H     0.69095   0.89746   0.46695   0.00000  Uiso   1.00
H33    H     0.44165   0.92771   0.45674   0.00000  Uiso   1.00
H34    H     0.59850   0.04656   0.38824   0.00000  Uiso   1.00
H35    H     0.81624   0.81040   0.49262   0.00000  Uiso   1.00
H36    H     0.29059   0.87421   0.47108   0.00000  Uiso   1.00
H37    H     0.62133   0.12483   0.32663   0.00000  Uiso   1.00
O38    O     0.88704   0.68161   0.48108   0.00000  Uiso   1.00
O39    O     0.19741   0.76532   0.45281   0.00000  Uiso   1.00
O40    O     0.63133   0.09413   0.26329   0.00000  Uiso   1.00
N41    N     0.79430   0.68102   0.44079   0.00000  Uiso   1.00
N42    N     0.30285   0.74067   0.42065   0.00000  Uiso   1.00
N43    N     0.61204   0.97498   0.28560   0.00000  Uiso   1.00
N44    N     0.79872   0.77730   0.47421   0.00000  Uiso   1.00
N45    N     0.30728   0.83694   0.45407   0.00000  Uiso   1.00
N46    N     0.61647   0.07125   0.31902   0.00000  Uiso   1.00
C47    C     0.06938   0.29042   0.87941   0.00000  Uiso   1.00
C48    C     0.13246   0.28380   0.90449   0.00000  Uiso   1.00
C49    C     0.18302   0.22461   0.90696   0.00000  Uiso   1.00
C50    C     0.23657   0.22908   0.93157   0.00000  Uiso   1.00
C51    C     0.33406   0.20944   0.96728   0.00000  Uiso   1.00
C52    C     0.99701   0.30023   0.89894   0.00000  Uiso   1.00
C53    C     0.93369   0.25486   0.89675   0.00000  Uiso   1.00
C54    C     0.87323   0.27318   0.91669   0.00000  Uiso   1.00
C55    C     0.76041   0.27907   0.94377   0.00000  Uiso   1.00
C56    C     0.08224   0.36481   0.86172   0.00000  Uiso   1.00
C57    C     0.09056   0.37373   0.82824   0.00000  Uiso   1.00
C58    C     0.10183   0.44642   0.81684   0.00000  Uiso   1.00
C59    C     0.12134   0.55257   0.78613   0.00000  Uiso   1.00
C60    C     0.07458   0.40364   0.91870   0.00000  Uiso   1.00
C61    C     0.13528   0.34530   0.92583   0.00000  Uiso   1.00
C62    C     0.18877   0.34987   0.95044   0.00000  Uiso   1.00
C63    C     0.23941   0.29069   0.95295   0.00000  Uiso   1.00
C64    C     0.99984   0.36173   0.92028   0.00000  Uiso   1.00
C65    C     0.93945   0.38012   0.94023   0.00000  Uiso   1.00
C66    C     0.87605   0.33478   0.93807   0.00000  Uiso   1.00
C67    C     0.08507   0.42630   0.88307   0.00000  Uiso   1.00
C68    C     0.09632   0.49899   0.87171   0.00000  Uiso   1.00
C69    C     0.10465   0.50802   0.83822   0.00000  Uiso   1.00
H70    H     0.06718   0.24255   0.86279   0.00000  Uiso   1.00
H71    H     0.18081   0.17703   0.89044   0.00000  Uiso   1.00
H72    H     0.93152   0.20728   0.88023   0.00000  Uiso   1.00
H73    H     0.08837   0.32613   0.81173   0.00000  Uiso   1.00
H74    H     0.30802   0.13149   0.93052   0.00000  Uiso   1.00
H75    H     0.78237   0.19530   0.90898   0.00000  Uiso   1.00
H76    H     0.11311   0.44592   0.76453   0.00000  Uiso   1.00
H77    H     0.07678   0.45151   0.93532   0.00000  Uiso   1.00
H78    H     0.19095   0.39746   0.96695   0.00000  Uiso   1.00
H79    H     0.94165   0.42771   0.95674   0.00000  Uiso   1.00
H80    H     0.09850   0.54656   0.88824   0.00000  Uiso   1.00
H81    H     0.31624   0.31040   0.99262   0.00000  Uiso   1.00
H82    H     0.79059   0.37421   0.97108   0.00000  Uiso   1.00
H83    H     0.12133   0.62483   0.82663   0.00000  Uiso   1.00
O84    O     0.38704   0.18161   0.98108   0.00000  Uiso   1.00
O85    O     0.69741   0.26532   0.95281   0.00000  Uiso   1.00
O86    O     0.13133   0.59413   0.76329   0.00000  Uiso   1.00
N87    N     0.29430   0.18102   0.94079   0.00000  Uiso   1.00
N88    N     0.80285   0.24067   0.92065   0.00000  Uiso   1.00
N89    N     0.11204   0.47498   0.78560   0.00000  Uiso   1.00
N90    N     0.29872   0.27730   0.97421   0.00000  Uiso   1.00
N91    N     0.80728   0.33694   0.95407   0.00000  Uiso   1.00
N92    N     0.11647   0.57125   0.81902   0.00000  Uiso   1.00
C93    C     0.43062   0.20958   0.37941   0.00000  Uiso   1.00
C94    C     0.36754   0.21620   0.40449   0.00000  Uiso   1.00
C95    C     0.31698   0.27539   0.40696   0.00000  Uiso   1.00
C96    C     0.26343   0.27092   0.43157   0.00000  Uiso   1.00
C97    C     0.16594   0.29056   0.46728   0.00000  Uiso   1.00
C98    C     0.50299   0.19977   0.39894   0.00000  Uiso   1.00
C99    C     0.56631   0.24514   0.39675   0.00000  Uiso   1.00
C100   C     0.62677   0.22682   0.41669   0.00000  Uiso   1.00
C101   C     0.73959   0.22093   0.44377   0.00000  Uiso   1.00
C102   C     0.41776   0.13519   0.36172   0.00000  Uiso   1.00
C103   C     0.40944   0.12627   0.32824   0.00000  Uiso   1.00
C104   C     0.39817   0.05358   0.31684   0.00000  Uiso   1.00
C105   C     0.37866   0.94743   0.28613   0.00000  Uiso   1.00
C106   C     0.42542   0.09636   0.41870   0.00000  Uiso   1.00
C107   C     0.36472   0.15470   0.42583   0.00000  Uiso   1.00
C108   C     0.31123   0.15013   0.45044   0.00000  Uiso   1.00
C109   C     0.26059   0.20931   0.45295   0.00000  Uiso   1.00
C110   C     0.50016   0.13827   0.42028   0.00000  Uiso   1.00
C111   C     0.56055   0.11988   0.44023   0.00000  Uiso   1.00
C112   C     0.62395   0.16522   0.43807   0.00000  Uiso   1.00
C113   C     0.41493   0.07370   0.38307   0.00000  Uiso   1.00
C114   C     0.40368   0.00101   0.37171   0.00000  Uiso   1.00
C115   C     0.39535   0.99198   0.33822   0.00000  Uiso   1.00
H116   H     0.43282   0.25745   0.36279   0.00000  Uiso   1.00
H117   H     0.31919   0.32297   0.39044   0.00000  Uiso   1.00
H118   H     0.56848   0.29272   0.38023   0.00000  Uiso   1.00
H119   H     0.41163   0.17387   0.31173   0.00000  Uiso   1.00
H120   H     0.19198   0.36851   0.43052   0.00000  Uiso   1.00
H121   H     0.71763   0.30470   0.40898   0.00000  Uiso   1.00
H122   H     0.38689   0.05408   0.26453   0.00000  Uiso   1.00
H123   H     0.42322   0.04849   0.43532   0.00000  Uiso   1.00
H124   H     0.30905   0.10254   0.46695   0.00000  Uiso   1.00
H125   H     0.55835   0.07229   0.45674   0.00000  Uiso   1.00
H126   H     0.40150   0.95344   0.38824   0.00000  Uiso   1.00
H127   H     0.18376   0.18960   0.49262   0.00000  Uiso   1.00
H128   H     0.70941   0.12579   0.47108   0.00000  Uiso   1.00
H129   H     0.37867   0.87517   0.32663   0.00000  Uiso   1.00
O130   O     0.11296   0.31839   0.48108   0.00000  Uiso   1.00
O131   O     0.80259   0.23468   0.45281   0.00000  Uiso   1.00
O132   O     0.36867   0.90587   0.26329   0.00000  Uiso   1.00
N133   N     0.20570   0.31898   0.44079   0.00000  Uiso   1.00
N134   N     0.69715   0.25933   0.42065   0.00000  Uiso   1.00
N135   N     0.38796   0.02502   0.28560   0.00000  Uiso   1.00
N136   N     0.20128   0.22270   0.47421   0.00000  Uiso   1.00
N137   N     0.69272   0.16306   0.45407   0.00000  Uiso   1.00
N138   N     0.38353   0.92875   0.31902   0.00000  Uiso   1.00
C139   C     0.93062   0.70958   0.87941   0.00000  Uiso   1.00
C140   C     0.86754   0.71620   0.90449   0.00000  Uiso   1.00
C141   C     0.81698   0.77539   0.90696   0.00000  Uiso   1.00
C142   C     0.76343   0.77092   0.93157   0.00000  Uiso   1.00
C143   C     0.66594   0.79056   0.96728   0.00000  Uiso   1.00
C144   C     0.00299   0.69977   0.89894   0.00000  Uiso   1.00
C145   C     0.06631   0.74514   0.89675   0.00000  Uiso   1.00
C146   C     0.12677   0.72682   0.91669   0.00000  Uiso   1.00
C147   C     0.23959   0.72093   0.94377   0.00000  Uiso   1.00
C148   C     0.91776   0.63519   0.86172   0.00000  Uiso   1.00
C149   C     0.90944   0.62627   0.82824   0.00000  Uiso   1.00
C150   C     0.89817   0.55358   0.81684   0.00000  Uiso   1.00
C151   C     0.87866   0.44743   0.78613   0.00000  Uiso   1.00
C152   C     0.92542   0.59636   0.91870   0.00000  Uiso   1.00
C153   C     0.86472   0.65470   0.92583   0.00000  Uiso   1.00
C154   C     0.81123   0.65013   0.95044   0.00000  Uiso   1.00
C155   C     0.76059   0.70931   0.95295   0.00000  Uiso   1.00
C156   C     0.00016   0.63827   0.92028   0.00000  Uiso   1.00
C157   C     0.06055   0.61988   0.94023   0.00000  Uiso   1.00
C158   C     0.12395   0.66522   0.93807   0.00000  Uiso   1.00
C159   C     0.91493   0.57370   0.88307   0.00000  Uiso   1.00
C160   C     0.90368   0.50101   0.87171   0.00000  Uiso   1.00
C161   C     0.89535   0.49198   0.83822   0.00000  Uiso   1.00
H162   H     0.93282   0.75745   0.86279   0.00000  Uiso   1.00
H163   H     0.81919   0.82297   0.89044   0.00000  Uiso   1.00
H164   H     0.06848   0.79272   0.88023   0.00000  Uiso   1.00
H165   H     0.91163   0.67387   0.81173   0.00000  Uiso   1.00
H166   H     0.69198   0.86851   0.93052   0.00000  Uiso   1.00
H167   H     0.21763   0.80470   0.90898   0.00000  Uiso   1.00
H168   H     0.88689   0.55408   0.76453   0.00000  Uiso   1.00
H169   H     0.92322   0.54849   0.93532   0.00000  Uiso   1.00
H170   H     0.80905   0.60254   0.96695   0.00000  Uiso   1.00
H171   H     0.05835   0.57229   0.95674   0.00000  Uiso   1.00
H172   H     0.90150   0.45344   0.88824   0.00000  Uiso   1.00
H173   H     0.68376   0.68960   0.99262   0.00000  Uiso   1.00
H174   H     0.20941   0.62579   0.97108   0.00000  Uiso   1.00
H175   H     0.87867   0.37517   0.82663   0.00000  Uiso   1.00
O176   O     0.61296   0.81839   0.98108   0.00000  Uiso   1.00
O177   O     0.30259   0.73468   0.95281   0.00000  Uiso   1.00
O178   O     0.86867   0.40587   0.76329   0.00000  Uiso   1.00
N179   N     0.70570   0.81898   0.94079   0.00000  Uiso   1.00
N180   N     0.19715   0.75933   0.92065   0.00000  Uiso   1.00
N181   N     0.88796   0.52502   0.78560   0.00000  Uiso   1.00
N182   N     0.70128   0.72270   0.97421   0.00000  Uiso   1.00
N183   N     0.19272   0.66306   0.95407   0.00000  Uiso   1.00
N184   N     0.88353   0.42875   0.81902   0.00000  Uiso   1.00
C185   C     0.79042   0.43062   0.62059   0.00000  Uiso   1.00
C186   C     0.78380   0.36754   0.59551   0.00000  Uiso   1.00
C187   C     0.72461   0.31698   0.59304   0.00000  Uiso   1.00
C188   C     0.72908   0.26343   0.56843   0.00000  Uiso   1.00
C189   C     0.70944   0.16594   0.53272   0.00000  Uiso   1.00
C190   C     0.80023   0.50299   0.60106   0.00000  Uiso   1.00
C191   C     0.75486   0.56631   0.60325   0.00000  Uiso   1.00
C192   C     0.77318   0.62677   0.58331   0.00000  Uiso   1.00
C193   C     0.77907   0.73959   0.55623   0.00000  Uiso   1.00
C194   C     0.86481   0.41776   0.63828   0.00000  Uiso   1.00
C195   C     0.87373   0.40944   0.67176   0.00000  Uiso   1.00
C196   C     0.94642   0.39817   0.68316   0.00000  Uiso   1.00
C197   C     0.05257   0.37866   0.71387   0.00000  Uiso   1.00
C198   C     0.90364   0.42542   0.58130   0.00000  Uiso   1.00
C199   C     0.84530   0.36472   0.57417   0.00000  Uiso   1.00
C200   C     0.84987   0.31123   0.54956   0.00000  Uiso   1.00
C201   C     0.79069   0.26059   0.54705   0.00000  Uiso   1.00
C202   C     0.86173   0.50016   0.57972   0.00000  Uiso   1.00
C203   C     0.88012   0.56055   0.55977   0.00000  Uiso   1.00
C204   C     0.83478   0.62395   0.56193   0.00000  Uiso   1.00
C205   C     0.92630   0.41493   0.61693   0.00000  Uiso   1.00
C206   C     0.99899   0.40368   0.62829   0.00000  Uiso   1.00
C207   C     0.00802   0.39535   0.66178   0.00000  Uiso   1.00
H208   H     0.74255   0.43282   0.63721   0.00000  Uiso   1.00
H209   H     0.67703   0.31919   0.60956   0.00000  Uiso   1.00
H210   H     0.70728   0.56848   0.61977   0.00000  Uiso   1.00
H211   H     0.82613   0.41163   0.68827   0.00000  Uiso   1.00
H212   H     0.63149   0.19198   0.56948   0.00000  Uiso   1.00
H213   H     0.69530   0.71763   0.59102   0.00000  Uiso   1.00
H214   H     0.94592   0.38689   0.73547   0.00000  Uiso   1.00
H215   H     0.95151   0.42322   0.56468   0.00000  Uiso   1.00
H216   H     0.89746   0.30905   0.53305   0.00000  Uiso   1.00
H217   H     0.92771   0.55835   0.54326   0.00000  Uiso   1.00
H218   H     0.04656   0.40150   0.61176   0.00000  Uiso   1.00
H219   H     0.81040   0.18376   0.50738   0.00000  Uiso   1.00
H220   H     0.87421   0.70941   0.52892   0.00000  Uiso   1.00
H221   H     0.12483   0.37867   0.67337   0.00000  Uiso   1.00
O222   O     0.68161   0.11296   0.51892   0.00000  Uiso   1.00
O223   O     0.76532   0.80259   0.54719   0.00000  Uiso   1.00
O224   O     0.09413   0.36867   0.73671   0.00000  Uiso   1.00
N225   N     0.68102   0.20570   0.55921   0.00000  Uiso   1.00
N226   N     0.74067   0.69715   0.57935   0.00000  Uiso   1.00
N227   N     0.97498   0.38796   0.71440   0.00000  Uiso   1.00
N228   N     0.77730   0.20128   0.52579   0.00000  Uiso   1.00
N229   N     0.83694   0.69272   0.54593   0.00000  Uiso   1.00
N230   N     0.07125   0.38353   0.68098   0.00000  Uiso   1.00
C231   C     0.29042   0.93062   0.12059   0.00000  Uiso   1.00
C232   C     0.28380   0.86754   0.09551   0.00000  Uiso   1.00
C233   C     0.22461   0.81698   0.09304   0.00000  Uiso   1.00
C234   C     0.22908   0.76343   0.06843   0.00000  Uiso   1.00
C235   C     0.20944   0.66594   0.03272   0.00000  Uiso   1.00
C236   C     0.30023   0.00299   0.10106   0.00000  Uiso   1.00
C237   C     0.25486   0.06631   0.10325   0.00000  Uiso   1.00
C238   C     0.27318   0.12677   0.08331   0.00000  Uiso   1.00
C239   C     0.27907   0.23959   0.05623   0.00000  Uiso   1.00
C240   C     0.36481   0.91776   0.13828   0.00000  Uiso   1.00
C241   C     0.37373   0.90944   0.17176   0.00000  Uiso   1.00
C242   C     0.44642   0.89817   0.18316   0.00000  Uiso   1.00
C243   C     0.55257   0.87866   0.21387   0.00000  Uiso   1.00
C244   C     0.40364   0.92542   0.08130   0.00000  Uiso   1.00
C245   C     0.34530   0.86472   0.07417   0.00000  Uiso   1.00
C246   C     0.34987   0.81123   0.04956   0.00000  Uiso   1.00
C247   C     0.29069   0.76059   0.04705   0.00000  Uiso   1.00
C248   C     0.36173   0.00016   0.07972   0.00000  Uiso   1.00
C249   C     0.38012   0.06055   0.05977   0.00000  Uiso   1.00
C250   C     0.33478   0.12395   0.06193   0.00000  Uiso   1.00
C251   C     0.42630   0.91493   0.11693   0.00000  Uiso   1.00
C252   C     0.49899   0.90368   0.12829   0.00000  Uiso   1.00
C253   C     0.50802   0.89535   0.16178   0.00000  Uiso   1.00
H254   H     0.24255   0.93282   0.13721   0.00000  Uiso   1.00
H255   H     0.17703   0.81919   0.10956   0.00000  Uiso   1.00
H256   H     0.20728   0.06848   0.11977   0.00000  Uiso   1.00
H257   H     0.32613   0.91163   0.18827   0.00000  Uiso   1.00
H258   H     0.13149   0.69198   0.06948   0.00000  Uiso   1.00
H259   H     0.19530   0.21763   0.09102   0.00000  Uiso   1.00
H260   H     0.44592   0.88689   0.23547   0.00000  Uiso   1.00
H261   H     0.45151   0.92322   0.06468   0.00000  Uiso   1.00
H262   H     0.39746   0.80905   0.03305   0.00000  Uiso   1.00
H263   H     0.42771   0.05835   0.04326   0.00000  Uiso   1.00
H264   H     0.54656   0.90150   0.11176   0.00000  Uiso   1.00
H265   H     0.31040   0.68376   0.00738   0.00000  Uiso   1.00
H266   H     0.37421   0.20941   0.02892   0.00000  Uiso   1.00
H267   H     0.62483   0.87867   0.17337   0.00000  Uiso   1.00
O268   O     0.18161   0.61296   0.01892   0.00000  Uiso   1.00
O269   O     0.26532   0.30259   0.04719   0.00000  Uiso   1.00
O270   O     0.59413   0.86867   0.23671   0.00000  Uiso   1.00
N271   N     0.18102   0.70570   0.05921   0.00000  Uiso   1.00
N272   N     0.24067   0.19715   0.07935   0.00000  Uiso   1.00
N273   N     0.47498   0.88796   0.21440   0.00000  Uiso   1.00
N274   N     0.27730   0.70128   0.02579   0.00000  Uiso   1.00
N275   N     0.33694   0.19272   0.04593   0.00000  Uiso   1.00
N276   N     0.57125   0.88353   0.18098   0.00000  Uiso   1.00
C277   C     0.20958   0.56938   0.62059   0.00000  Uiso   1.00
C278   C     0.21620   0.63246   0.59551   0.00000  Uiso   1.00
C279   C     0.27539   0.68302   0.59304   0.00000  Uiso   1.00
C280   C     0.27092   0.73657   0.56843   0.00000  Uiso   1.00
C281   C     0.29056   0.83406   0.53272   0.00000  Uiso   1.00
C282   C     0.19977   0.49701   0.60106   0.00000  Uiso   1.00
C283   C     0.24514   0.43369   0.60325   0.00000  Uiso   1.00
C284   C     0.22682   0.37323   0.58331   0.00000  Uiso   1.00
C285   C     0.22093   0.26041   0.55623   0.00000  Uiso   1.00
C286   C     0.13519   0.58224   0.63828   0.00000  Uiso   1.00
C287   C     0.12627   0.59056   0.67176   0.00000  Uiso   1.00
C288   C     0.05358   0.60183   0.68316   0.00000  Uiso   1.00
C289   C     0.94743   0.62134   0.71387   0.00000  Uiso   1.00
C290   C     0.09636   0.57458   0.58130   0.00000  Uiso   1.00
C291   C     0.15470   0.63528   0.57417   0.00000  Uiso   1.00
C292   C     0.15013   0.68877   0.54956   0.00000  Uiso   1.00
C293   C     0.20931   0.73941   0.54705   0.00000  Uiso   1.00
C294   C     0.13827   0.49984   0.57972   0.00000  Uiso   1.00
C295   C     0.11988   0.43945   0.55977   0.00000  Uiso   1.00
C296   C     0.16522   0.37605   0.56193   0.00000  Uiso   1.00
C297   C     0.07370   0.58507   0.61693   0.00000  Uiso   1.00
C298   C     0.00101   0.59632   0.62829   0.00000  Uiso   1.00
C299   C     0.99198   0.60465   0.66178   0.00000  Uiso   1.00
H300   H     0.25745   0.56718   0.63721   0.00000  Uiso   1.00
H301   H     0.32297   0.68081   0.60956   0.00000  Uiso   1.00
H302   H     0.29272   0.43152   0.61977   0.00000  Uiso   1.00
H303   H     0.17387   0.58837   0.68827   0.00000  Uiso   1.00
H304   H     0.36851   0.80802   0.56948   0.00000  Uiso   1.00
H305   H     0.30470   0.28237   0.59102   0.00000  Uiso   1.00
H306   H     0.05408   0.61311   0.73547   0.00000  Uiso   1.00
H307   H     0.04849   0.57678   0.56468   0.00000  Uiso   1.00
H308   H     0.10254   0.69095   0.53305   0.00000  Uiso   1.00
H309   H     0.07229   0.44165   0.54326   0.00000  Uiso   1.00
H310   H     0.95344   0.59850   0.61176   0.00000  Uiso   1.00
H311   H     0.18960   0.81624   0.50738   0.00000  Uiso   1.00
H312   H     0.12579   0.29059   0.52892   0.00000  Uiso   1.00
H313   H     0.87517   0.62133   0.67337   0.00000  Uiso   1.00
O314   O     0.31839   0.88704   0.51892   0.00000  Uiso   1.00
O315   O     0.23468   0.19741   0.54719   0.00000  Uiso   1.00
O316   O     0.90587   0.63133   0.73671   0.00000  Uiso   1.00
N317   N     0.31898   0.79430   0.55921   0.00000  Uiso   1.00
N318   N     0.25933   0.30285   0.57935   0.00000  Uiso   1.00
N319   N     0.02502   0.61204   0.71440   0.00000  Uiso   1.00
N320   N     0.22270   0.79872   0.52579   0.00000  Uiso   1.00
N321   N     0.16306   0.30728   0.54593   0.00000  Uiso   1.00
N322   N     0.92875   0.61647   0.68098   0.00000  Uiso   1.00
C323   C     0.70958   0.06938   0.12059   0.00000  Uiso   1.00
C324   C     0.71620   0.13246   0.09551   0.00000  Uiso   1.00
C325   C     0.77539   0.18302   0.09304   0.00000  Uiso   1.00
C326   C     0.77092   0.23657   0.06843   0.00000  Uiso   1.00
C327   C     0.79056   0.33406   0.03272   0.00000  Uiso   1.00
C328   C     0.69977   0.99701   0.10106   0.00000  Uiso   1.00
C329   C     0.74514   0.93369   0.10325   0.00000  Uiso   1.00
C330   C     0.72682   0.87323   0.08331   0.00000  Uiso   1.00
C331   C     0.72093   0.76041   0.05623   0.00000  Uiso   1.00
C332   C     0.63519   0.08224   0.13828   0.00000  Uiso   1.00
C333   C     0.62627   0.09056   0.17176   0.00000  Uiso   1.00
C334   C     0.55358   0.10183   0.18316   0.00000  Uiso   1.00
C335   C     0.44743   0.12134   0.21387   0.00000  Uiso   1.00
C336   C     0.59636   0.07458   0.08130   0.00000  Uiso   1.00
C337   C     0.65470   0.13528   0.07417   0.00000  Uiso   1.00
C338   C     0.65013   0.18877   0.04956   0.00000  Uiso   1.00
C339   C     0.70931   0.23941   0.04705   0.00000  Uiso   1.00
C340   C     0.63827   0.99984   0.07972   0.00000  Uiso   1.00
C341   C     0.61988   0.93945   0.05977   0.00000  Uiso   1.00
C342   C     0.66522   0.87605   0.06193   0.00000  Uiso   1.00
C343   C     0.57370   0.08507   0.11693   0.00000  Uiso   1.00
C344   C     0.50101   0.09632   0.12829   0.00000  Uiso   1.00
C345   C     0.49198   0.10465   0.16178   0.00000  Uiso   1.00
H346   H     0.75745   0.06718   0.13721   0.00000  Uiso   1.00
H347   H     0.82297   0.18081   0.10956   0.00000  Uiso   1.00
H348   H     0.79272   0.93152   0.11977   0.00000  Uiso   1.00
H349   H     0.67387   0.08837   0.18827   0.00000  Uiso   1.00
H350   H     0.86851   0.30802   0.06948   0.00000  Uiso   1.00
H351   H     0.80470   0.78237   0.09102   0.00000  Uiso   1.00
H352   H     0.55408   0.11311   0.23547   0.00000  Uiso   1.00
H353   H     0.54849   0.07678   0.06468   0.00000  Uiso   1.00
H354   H     0.60254   0.19095   0.03305   0.00000  Uiso   1.00
H355   H     0.57229   0.94165   0.04326   0.00000  Uiso   1.00
H356   H     0.45344   0.09850   0.11176   0.00000  Uiso   1.00
H357   H     0.68960   0.31624   0.00738   0.00000  Uiso   1.00
H358   H     0.62579   0.79059   0.02892   0.00000  Uiso   1.00
H359   H     0.37517   0.12133   0.17337   0.00000  Uiso   1.00
O360   O     0.81839   0.38704   0.01892   0.00000  Uiso   1.00
O361   O     0.73468   0.69741   0.04719   0.00000  Uiso   1.00
O362   O     0.40587   0.13133   0.23671   0.00000  Uiso   1.00
N363   N     0.81898   0.29430   0.05921   0.00000  Uiso   1.00
N364   N     0.75933   0.80285   0.07935   0.00000  Uiso   1.00
N365   N     0.52502   0.11204   0.21440   0.00000  Uiso   1.00
N366   N     0.72270   0.29872   0.02579   0.00000  Uiso   1.00
N367   N     0.66306   0.80728   0.04593   0.00000  Uiso   1.00
N368   N     0.42875   0.11647   0.18098   0.00000  Uiso   1.00
C369   C     0.93062   0.79042   0.37059   0.00000  Uiso   1.00
C370   C     0.86754   0.78380   0.34551   0.00000  Uiso   1.00
C371   C     0.81698   0.72461   0.34304   0.00000  Uiso   1.00
C372   C     0.76343   0.72908   0.31843   0.00000  Uiso   1.00
C373   C     0.66594   0.70944   0.28272   0.00000  Uiso   1.00
C374   C     0.00299   0.80023   0.35106   0.00000  Uiso   1.00
C375   C     0.06631   0.75486   0.35325   0.00000  Uiso   1.00
C376   C     0.12677   0.77318   0.33331   0.00000  Uiso   1.00
C377   C     0.23959   0.77907   0.30623   0.00000  Uiso   1.00
C378   C     0.91776   0.86481   0.38828   0.00000  Uiso   1.00
C379   C     0.90944   0.87373   0.42176   0.00000  Uiso   1.00
C380   C     0.89817   0.94642   0.43316   0.00000  Uiso   1.00
C381   C     0.87866   0.05257   0.46387   0.00000  Uiso   1.00
C382   C     0.92542   0.90364   0.33130   0.00000  Uiso   1.00
C383   C     0.86472   0.84530   0.32417   0.00000  Uiso   1.00
C384   C     0.81123   0.84987   0.29956   0.00000  Uiso   1.00
C385   C     0.76059   0.79069   0.29705   0.00000  Uiso   1.00
C386   C     0.00016   0.86173   0.32972   0.00000  Uiso   1.00
C387   C     0.06055   0.88012   0.30977   0.00000  Uiso   1.00
C388   C     0.12395   0.83478   0.31193   0.00000  Uiso   1.00
C389   C     0.91493   0.92630   0.36693   0.00000  Uiso   1.00
C390   C     0.90368   0.99899   0.37829   0.00000  Uiso   1.00
C391   C     0.89535   0.00802   0.41178   0.00000  Uiso   1.00
H392   H     0.93282   0.74255   0.38721   0.00000  Uiso   1.00
H393   H     0.81919   0.67703   0.35956   0.00000  Uiso   1.00
H394   H     0.06848   0.70728   0.36977   0.00000  Uiso   1.00
H395   H     0.91163   0.82613   0.43827   0.00000  Uiso   1.00
H396   H     0.69198   0.63149   0.31948   0.00000  Uiso   1.00
H397   H     0.21763   0.69530   0.34102   0.00000  Uiso   1.00
H398   H     0.88689   0.94592   0.48547   0.00000  Uiso   1.00
H399   H     0.92322   0.95151   0.31468   0.00000  Uiso   1.00
H400   H     0.80905   0.89746   0.28305   0.00000  Uiso   1.00
H401   H     0.05835   0.92771   0.29326   0.00000  Uiso   1.00
H402   H     0.90150   0.04656   0.36176   0.00000  Uiso   1.00
H403   H     0.68376   0.81040   0.25738   0.00000  Uiso   1.00
H404   H     0.20941   0.87421   0.27892   0.00000  Uiso   1.00
H405   H     0.87867   0.12483   0.42337   0.00000  Uiso   1.00
O406   O     0.61296   0.68161   0.26892   0.00000  Uiso   1.00
O407   O     0.30259   0.76532   0.29719   0.00000  Uiso   1.00
O408   O     0.86867   0.09413   0.48671   0.00000  Uiso   1.00
N409   N     0.70570   0.68102   0.30921   0.00000  Uiso   1.00
N410   N     0.19715   0.74067   0.32935   0.00000  Uiso   1.00
N411   N     0.88796   0.97498   0.46440   0.00000  Uiso   1.00
N412   N     0.70128   0.77730   0.27579   0.00000  Uiso   1.00
N413   N     0.19272   0.83694   0.29593   0.00000  Uiso   1.00
N414   N     0.88353   0.07125   0.43098   0.00000  Uiso   1.00
C415   C     0.43062   0.29042   0.87059   0.00000  Uiso   1.00
C416   C     0.36754   0.28380   0.84551   0.00000  Uiso   1.00
C417   C     0.31698   0.22461   0.84304   0.00000  Uiso   1.00
C418   C     0.26343   0.22908   0.81843   0.00000  Uiso   1.00
C419   C     0.16594   0.20944   0.78272   0.00000  Uiso   1.00
C420   C     0.50299   0.30023   0.85106   0.00000  Uiso   1.00
C421   C     0.56631   0.25486   0.85325   0.00000  Uiso   1.00
C422   C     0.62677   0.27318   0.83331   0.00000  Uiso   1.00
C423   C     0.73959   0.27907   0.80623   0.00000  Uiso   1.00
C424   C     0.41776   0.36481   0.88828   0.00000  Uiso   1.00
C425   C     0.40944   0.37373   0.92176   0.00000  Uiso   1.00
C426   C     0.39817   0.44642   0.93316   0.00000  Uiso   1.00
C427   C     0.37866   0.55257   0.96387   0.00000  Uiso   1.00
C428   C     0.42542   0.40364   0.83130   0.00000  Uiso   1.00
C429   C     0.36472   0.34530   0.82417   0.00000  Uiso   1.00
C430   C     0.31123   0.34987   0.79956   0.00000  Uiso   1.00
C431   C     0.26059   0.29069   0.79705   0.00000  Uiso   1.00
C432   C     0.50016   0.36173   0.82972   0.00000  Uiso   1.00
C433   C     0.56055   0.38012   0.80977   0.00000  Uiso   1.00
C434   C     0.62395   0.33478   0.81193   0.00000  Uiso   1.00
C435   C     0.41493   0.42630   0.86693   0.00000  Uiso   1.00
C436   C     0.40368   0.49899   0.87829   0.00000  Uiso   1.00
C437   C     0.39535   0.50802   0.91178   0.00000  Uiso   1.00
H438   H     0.43282   0.24255   0.88721   0.00000  Uiso   1.00
H439   H     0.31919   0.17703   0.85956   0.00000  Uiso   1.00
H440   H     0.56848   0.20728   0.86977   0.00000  Uiso   1.00
H441   H     0.41163   0.32613   0.93827   0.00000  Uiso   1.00
H442   H     0.19198   0.13149   0.81948   0.00000  Uiso   1.00
H443   H     0.71763   0.19530   0.84102   0.00000  Uiso   1.00
H444   H     0.38689   0.44592   0.98547   0.00000  Uiso   1.00
H445   H     0.42322   0.45151   0.81468   0.00000  Uiso   1.00
H446   H     0.30905   0.39746   0.78305   0.00000  Uiso   1.00
H447   H     0.55835   0.42771   0.79326   0.00000  Uiso   1.00
H448   H     0.40150   0.54656   0.86176   0.00000  Uiso   1.00
H449   H     0.18376   0.31040   0.75738   0.00000  Uiso   1.00
H450   H     0.70941   0.37421   0.77892   0.00000  Uiso   1.00
H451   H     0.37867   0.62483   0.92337   0.00000  Uiso   1.00
O452   O     0.11296   0.18161   0.76892   0.00000  Uiso   1.00
O453   O     0.80259   0.26532   0.79719   0.00000  Uiso   1.00
O454   O     0.36867   0.59413   0.98671   0.00000  Uiso   1.00
N455   N     0.20570   0.18102   0.80921   0.00000  Uiso   1.00
N456   N     0.69715   0.24067   0.82935   0.00000  Uiso   1.00
N457   N     0.38796   0.47498   0.96440   0.00000  Uiso   1.00
N458   N     0.20128   0.27730   0.77579   0.00000  Uiso   1.00
N459   N     0.69272   0.33694   0.79593   0.00000  Uiso   1.00
N460   N     0.38353   0.57125   0.93098   0.00000  Uiso   1.00
C461   C     0.06938   0.20958   0.37059   0.00000  Uiso   1.00
C462   C     0.13246   0.21620   0.34551   0.00000  Uiso   1.00
C463   C     0.18302   0.27539   0.34304   0.00000  Uiso   1.00
C464   C     0.23657   0.27092   0.31843   0.00000  Uiso   1.00
C465   C     0.33406   0.29056   0.28272   0.00000  Uiso   1.00
C466   C     0.99701   0.19977   0.35106   0.00000  Uiso   1.00
C467   C     0.93369   0.24514   0.35325   0.00000  Uiso   1.00
C468   C     0.87323   0.22682   0.33331   0.00000  Uiso   1.00
C469   C     0.76041   0.22093   0.30623   0.00000  Uiso   1.00
C470   C     0.08224   0.13519   0.38828   0.00000  Uiso   1.00
C471   C     0.09056   0.12627   0.42176   0.00000  Uiso   1.00
C472   C     0.10183   0.05358   0.43316   0.00000  Uiso   1.00
C473   C     0.12134   0.94743   0.46387   0.00000  Uiso   1.00
C474   C     0.07458   0.09636   0.33130   0.00000  Uiso   1.00
C475   C     0.13528   0.15470   0.32417   0.00000  Uiso   1.00
C476   C     0.18877   0.15013   0.29956   0.00000  Uiso   1.00
C477   C     0.23941   0.20931   0.29705   0.00000  Uiso   1.00
C478   C     0.99984   0.13827   0.32972   0.00000  Uiso   1.00
C479   C     0.93945   0.11988   0.30977   0.00000  Uiso   1.00
C480   C     0.87605   0.16522   0.31193   0.00000  Uiso   1.00
C481   C     0.08507   0.07370   0.36693   0.00000  Uiso   1.00
C482   C     0.09632   0.00101   0.37829   0.00000  Uiso   1.00
C483   C     0.10465   0.99198   0.41178   0.00000  Uiso   1.00
H484   H     0.06718   0.25745   0.38721   0.00000  Uiso   1.00
H485   H     0.18081   0.32297   0.35956   0.00000  Uiso   1.00
H486   H     0.93152   0.29272   0.36977   0.00000  Uiso   1.00
H487   H     0.08837   0.17387   0.43827   0.00000  Uiso   1.00
H488   H     0.30802   0.36851   0.31948   0.00000  Uiso   1.00
H489   H     0.78237   0.30470   0.34102   0.00000  Uiso   1.00
H490   H     0.11311   0.05408   0.48547   0.00000  Uiso   1.00
H491   H     0.07678   0.04849   0.31468   0.00000  Uiso   1.00
H492   H     0.19095   0.10254   0.28305   0.00000  Uiso   1.00
H493   H     0.94165   0.07229   0.29326   0.00000  Uiso   1.00
H494   H     0.09850   0.95344   0.36176   0.00000  Uiso   1.00
H495   H     0.31624   0.18960   0.25738   0.00000  Uiso   1.00
H496   H     0.79059   0.12579   0.27892   0.00000  Uiso   1.00
H497   H     0.12133   0.87517   0.42337   0.00000  Uiso   1.00
O498   O     0.38704   0.31839   0.26892   0.00000  Uiso   1.00
O499   O     0.69741   0.23468   0.29719   0.00000  Uiso   1.00
O500   O     0.13133   0.90587   0.48671   0.00000  Uiso   1.00
N501   N     0.29430   0.31898   0.30921   0.00000  Uiso   1.00
N502   N     0.80285   0.25933   0.32935   0.00000  Uiso   1.00
N503   N     0.11204   0.02502   0.46440   0.00000  Uiso   1.00
N504   N     0.29872   0.22270   0.27579   0.00000  Uiso   1.00
N505   N     0.80728   0.16306   0.29593   0.00000  Uiso   1.00
N506   N     0.11647   0.92875   0.43098   0.00000  Uiso   1.00
C507   C     0.56938   0.70958   0.87059   0.00000  Uiso   1.00
C508   C     0.63246   0.71620   0.84551   0.00000  Uiso   1.00
C509   C     0.68302   0.77539   0.84304   0.00000  Uiso   1.00
C510   C     0.73657   0.77092   0.81843   0.00000  Uiso   1.00
C511   C     0.83406   0.79056   0.78272   0.00000  Uiso   1.00
C512   C     0.49701   0.69977   0.85106   0.00000  Uiso   1.00
C513   C     0.43369   0.74514   0.85325   0.00000  Uiso   1.00
C514   C     0.37323   0.72682   0.83331   0.00000  Uiso   1.00
C515   C     0.26041   0.72093   0.80623   0.00000  Uiso   1.00
C516   C     0.58224   0.63519   0.88828   0.00000  Uiso   1.00
C517   C     0.59056   0.62627   0.92176   0.00000  Uiso   1.00
C518   C     0.60183   0.55358   0.93316   0.00000  Uiso   1.00
C519   C     0.62134   0.44743   0.96387   0.00000  Uiso   1.00
C520   C     0.57458   0.59636   0.83130   0.00000  Uiso   1.00
C521   C     0.63528   0.65470   0.82417   0.00000  Uiso   1.00
C522   C     0.68877   0.65013   0.79956   0.00000  Uiso   1.00
C523   C     0.73941   0.70931   0.79705   0.00000  Uiso   1.00
C524   C     0.49984   0.63827   0.82972   0.00000  Uiso   1.00
C525   C     0.43945   0.61988   0.80977   0.00000  Uiso   1.00
C526   C     0.37605   0.66522   0.81193   0.00000  Uiso   1.00
C527   C     0.58507   0.57370   0.86693   0.00000  Uiso   1.00
C528   C     0.59632   0.50101   0.87829   0.00000  Uiso   1.00
C529   C     0.60465   0.49198   0.91178   0.00000  Uiso   1.00
H530   H     0.56718   0.75745   0.88721   0.00000  Uiso   1.00
H531   H     0.68081   0.82297   0.85956   0.00000  Uiso   1.00
H532   H     0.43152   0.79272   0.86977   0.00000  Uiso   1.00
H533   H     0.58837   0.67387   0.93827   0.00000  Uiso   1.00
H534   H     0.80802   0.86851   0.81948   0.00000  Uiso   1.00
H535   H     0.28237   0.80470   0.84102   0.00000  Uiso   1.00
H536   H     0.61311   0.55408   0.98547   0.00000  Uiso   1.00
H537   H     0.57678   0.54849   0.81468   0.00000  Uiso   1.00
H538   H     0.69095   0.60254   0.78305   0.00000  Uiso   1.00
H539   H     0.44165   0.57229   0.79326   0.00000  Uiso   1.00
H540   H     0.59850   0.45344   0.86176   0.00000  Uiso   1.00
H541   H     0.81624   0.68960   0.75738   0.00000  Uiso   1.00
H542   H     0.29059   0.62579   0.77892   0.00000  Uiso   1.00
H543   H     0.62133   0.37517   0.92337   0.00000  Uiso   1.00
O544   O     0.88704   0.81839   0.76892   0.00000  Uiso   1.00
O545   O     0.19741   0.73468   0.79719   0.00000  Uiso   1.00
O546   O     0.63133   0.40587   0.98671   0.00000  Uiso   1.00
N547   N     0.79430   0.81898   0.80921   0.00000  Uiso   1.00
N548   N     0.30285   0.75933   0.82935   0.00000  Uiso   1.00
N549   N     0.61204   0.52502   0.96440   0.00000  Uiso   1.00
N550   N     0.79872   0.72270   0.77579   0.00000  Uiso   1.00
N551   N     0.30728   0.66306   0.79593   0.00000  Uiso   1.00
N552   N     0.61647   0.42875   0.93098   0.00000  Uiso   1.00
C553   C     0.70958   0.43062   0.12941   0.00000  Uiso   1.00
C554   C     0.71620   0.36754   0.15449   0.00000  Uiso   1.00
C555   C     0.77539   0.31698   0.15696   0.00000  Uiso   1.00
C556   C     0.77092   0.26343   0.18157   0.00000  Uiso   1.00
C557   C     0.79056   0.16594   0.21728   0.00000  Uiso   1.00
C558   C     0.69977   0.50299   0.14894   0.00000  Uiso   1.00
C559   C     0.74514   0.56631   0.14675   0.00000  Uiso   1.00
C560   C     0.72682   0.62677   0.16669   0.00000  Uiso   1.00
C561   C     0.72093   0.73959   0.19377   0.00000  Uiso   1.00
C562   C     0.63519   0.41776   0.11172   0.00000  Uiso   1.00
C563   C     0.62627   0.40944   0.07824   0.00000  Uiso   1.00
C564   C     0.55358   0.39817   0.06684   0.00000  Uiso   1.00
C565   C     0.44743   0.37866   0.03613   0.00000  Uiso   1.00
C566   C     0.59636   0.42542   0.16870   0.00000  Uiso   1.00
C567   C     0.65470   0.36472   0.17583   0.00000  Uiso   1.00
C568   C     0.65013   0.31123   0.20044   0.00000  Uiso   1.00
C569   C     0.70931   0.26059   0.20295   0.00000  Uiso   1.00
C570   C     0.63827   0.50016   0.17028   0.00000  Uiso   1.00
C571   C     0.61988   0.56055   0.19023   0.00000  Uiso   1.00
C572   C     0.66522   0.62395   0.18807   0.00000  Uiso   1.00
C573   C     0.57370   0.41493   0.13307   0.00000  Uiso   1.00
C574   C     0.50101   0.40368   0.12171   0.00000  Uiso   1.00
C575   C     0.49198   0.39535   0.08822   0.00000  Uiso   1.00
H576   H     0.75745   0.43282   0.11279   0.00000  Uiso   1.00
H577   H     0.82297   0.31919   0.14044   0.00000  Uiso   1.00
H578   H     0.79272   0.56848   0.13023   0.00000  Uiso   1.00
H579   H     0.67387   0.41163   0.06173   0.00000  Uiso   1.00
H580   H     0.86851   0.19198   0.18052   0.00000  Uiso   1.00
H581   H     0.80470   0.71763   0.15898   0.00000  Uiso   1.00
H582   H     0.55408   0.38689   0.01453   0.00000  Uiso   1.00
H583   H     0.54849   0.42322   0.18532   0.00000  Uiso   1.00
H584   H     0.60254   0.30905   0.21695   0.00000  Uiso   1.00
H585   H     0.57229   0.55835   0.20674   0.00000  Uiso   1.00
H586   H     0.45344   0.40150   0.13824   0.00000  Uiso   1.00
H587   H     0.68960   0.18376   0.24262   0.00000  Uiso   1.00
H588   H     0.62579   0.70941   0.22108   0.00000  Uiso   1.00
H589   H     0.37517   0.37867   0.07663   0.00000  Uiso   1.00
O590   O     0.81839   0.11296   0.23108   0.00000  Uiso   1.00
O591   O     0.73468   0.80259   0.20281   0.00000  Uiso   1.00
O592   O     0.40587   0.36867   0.01329   0.00000  Uiso   1.00
N593   N     0.81898   0.20570   0.19079   0.00000  Uiso   1.00
N594   N     0.75933   0.69715   0.17065   0.00000  Uiso   1.00
N595   N     0.52502   0.38796   0.03560   0.00000  Uiso   1.00
N596   N     0.72270   0.20128   0.22421   0.00000  Uiso   1.00
N597   N     0.66306   0.69272   0.20407   0.00000  Uiso   1.00
N598   N     0.42875   0.38353   0.06902   0.00000  Uiso   1.00
C599   C     0.20958   0.93062   0.62941   0.00000  Uiso   1.00
C600   C     0.21620   0.86754   0.65449   0.00000  Uiso   1.00
C601   C     0.27539   0.81698   0.65696   0.00000  Uiso   1.00
C602   C     0.27092   0.76343   0.68157   0.00000  Uiso   1.00
C603   C     0.29056   0.66594   0.71728   0.00000  Uiso   1.00
C604   C     0.19977   0.00299   0.64894   0.00000  Uiso   1.00
C605   C     0.24514   0.06631   0.64675   0.00000  Uiso   1.00
C606   C     0.22682   0.12677   0.66669   0.00000  Uiso   1.00
C607   C     0.22093   0.23959   0.69377   0.00000  Uiso   1.00
C608   C     0.13519   0.91776   0.61172   0.00000  Uiso   1.00
C609   C     0.12627   0.90944   0.57824   0.00000  Uiso   1.00
C610   C     0.05358   0.89817   0.56684   0.00000  Uiso   1.00
C611   C     0.94743   0.87866   0.53613   0.00000  Uiso   1.00
C612   C     0.09636   0.92542   0.66870   0.00000  Uiso   1.00
C613   C     0.15470   0.86472   0.67583   0.00000  Uiso   1.00
C614   C     0.15013   0.81123   0.70044   0.00000  Uiso   1.00
C615   C     0.20931   0.76059   0.70295   0.00000  Uiso   1.00
C616   C     0.13827   0.00016   0.67028   0.00000  Uiso   1.00
C617   C     0.11988   0.06055   0.69023   0.00000  Uiso   1.00
C618   C     0.16522   0.12395   0.68807   0.00000  Uiso   1.00
C619   C     0.07370   0.91493   0.63307   0.00000  Uiso   1.00
C620   C     0.00101   0.90368   0.62171   0.00000  Uiso   1.00
C621   C     0.99198   0.89535   0.58822   0.00000  Uiso   1.00
H622   H     0.25745   0.93282   0.61279   0.00000  Uiso   1.00
H623   H     0.32297   0.81919   0.64044   0.00000  Uiso   1.00
H624   H     0.29272   0.06848   0.63023   0.00000  Uiso   1.00
H625   H     0.17387   0.91163   0.56173   0.00000  Uiso   1.00
H626   H     0.36851   0.69198   0.68052   0.00000  Uiso   1.00
H627   H     0.30470   0.21763   0.65898   0.00000  Uiso   1.00
H628   H     0.05408   0.88689   0.51453   0.00000  Uiso   1.00
H629   H     0.04849   0.92322   0.68532   0.00000  Uiso   1.00
H630   H     0.10254   0.80905   0.71695   0.00000  Uiso   1.00
H631   H     0.07229   0.05835   0.70674   0.00000  Uiso   1.00
H632   H     0.95344   0.90150   0.63824   0.00000  Uiso   1.00
H633   H     0.18960   0.68376   0.74262   0.00000  Uiso   1.00
H634   H     0.12579   0.20941   0.72108   0.00000  Uiso   1.00
H635   H     0.87517   0.87867   0.57663   0.00000  Uiso   1.00
O636   O     0.31839   0.61296   0.73108   0.00000  Uiso   1.00
O637   O     0.23468   0.30259   0.70281   0.00000  Uiso   1.00
O638   O     0.90587   0.86867   0.51329   0.00000  Uiso   1.00
N639   N     0.31898   0.70570   0.69079   0.00000  Uiso   1.00
N640   N     0.25933   0.19715   0.67065   0.00000  Uiso   1.00
N641   N     0.02502   0.88796   0.53560   0.00000  Uiso   1.00
N642   N     0.22270   0.70128   0.72421   0.00000  Uiso   1.00
N643   N     0.16306   0.19272   0.70407   0.00000  Uiso   1.00
N644   N     0.92875   0.88353   0.56902   0.00000  Uiso   1.00
C645   C     0.29042   0.56938   0.12941   0.00000  Uiso   1.00
C646   C     0.28380   0.63246   0.15449   0.00000  Uiso   1.00
C647   C     0.22461   0.68302   0.15696   0.00000  Uiso   1.00
C648   C     0.22908   0.73657   0.18157   0.00000  Uiso   1.00
C649   C     0.20944   0.83406   0.21728   0.00000  Uiso   1.00
C650   C     0.30023   0.49701   0.14894   0.00000  Uiso   1.00
C651   C     0.25486   0.43369   0.14675   0.00000  Uiso   1.00
C652   C     0.27318   0.37323   0.16669   0.00000  Uiso   1.00
C653   C     0.27907   0.26041   0.19377   0.00000  Uiso   1.00
C654   C     0.36481   0.58224   0.11172   0.00000  Uiso   1.00
C655   C     0.37373   0.59056   0.07824   0.00000  Uiso   1.00
C656   C     0.44642   0.60183   0.06684   0.00000  Uiso   1.00
C657   C     0.55257   0.62134   0.03613   0.00000  Uiso   1.00
C658   C     0.40364   0.57458   0.16870   0.00000  Uiso   1.00
C659   C     0.34530   0.63528   0.17583   0.00000  Uiso   1.00
C660   C     0.34987   0.68877   0.20044   0.00000  Uiso   1.00
C661   C     0.29069   0.73941   0.20295   0.00000  Uiso   1.00
C662   C     0.36173   0.49984   0.17028   0.00000  Uiso   1.00
C663   C     0.38012   0.43945   0.19023   0.00000  Uiso   1.00
C664   C     0.33478   0.37605   0.18807   0.00000  Uiso   1.00
C665   C     0.42630   0.58507   0.13307   0.00000  Uiso   1.00
C666   C     0.49899   0.59632   0.12171   0.00000  Uiso   1.00
C667   C     0.50802   0.60465   0.08822   0.00000  Uiso   1.00
H668   H     0.24255   0.56718   0.11279   0.00000  Uiso   1.00
H669   H     0.17703   0.68081   0.14044   0.00000  Uiso   1.00
H670   H     0.20728   0.43152   0.13023   0.00000  Uiso   1.00
H671   H     0.32613   0.58837   0.06173   0.00000  Uiso   1.00
H672   H     0.13149   0.80802   0.18052   0.00000  Uiso   1.00
H673   H     0.19530   0.28237   0.15898   0.00000  Uiso   1.00
H674   H     0.44592   0.61311   0.01453   0.00000  Uiso   1.00
H675   H     0.45151   0.57678   0.18532   0.00000  Uiso   1.00
H676   H     0.39746   0.69095   0.21695   0.00000  Uiso   1.00
H677   H     0.42771   0.44165   0.20674   0.00000  Uiso   1.00
H678   H     0.54656   0.59850   0.13824   0.00000  Uiso   1.00
H679   H     0.31040   0.81624   0.24262   0.00000  Uiso   1.00
H680   H     0.37421   0.29059   0.22108   0.00000  Uiso   1.00
H681   H     0.62483   0.62133   0.07663   0.00000  Uiso   1.00
O682   O     0.18161   0.88704   0.23108   0.00000  Uiso   1.00
O683   O     0.26532   0.19741   0.20281   0.00000  Uiso   1.00
O684   O     0.59413   0.63133   0.01329   0.00000  Uiso   1.00
N685   N     0.18102   0.79430   0.19079   0.00000  Uiso   1.00
N686   N     0.24067   0.30285   0.17065   0.00000  Uiso   1.00
N687   N     0.47498   0.61204   0.03560   0.00000  Uiso   1.00
N688   N     0.27730   0.79872   0.22421   0.00000  Uiso   1.00
N689   N     0.33694   0.30728   0.20407   0.00000  Uiso   1.00
N690   N     0.57125   0.61647   0.06902   0.00000  Uiso   1.00
C691   C     0.79042   0.06938   0.62941   0.00000  Uiso   1.00
C692   C     0.78380   0.13246   0.65449   0.00000  Uiso   1.00
C693   C     0.72461   0.18302   0.65696   0.00000  Uiso   1.00
C694   C     0.72908   0.23657   0.68157   0.00000  Uiso   1.00
C695   C     0.70944   0.33406   0.71728   0.00000  Uiso   1.00
C696   C     0.80023   0.99701   0.64894   0.00000  Uiso   1.00
C697   C     0.75486   0.93369   0.64675   0.00000  Uiso   1.00
C698   C     0.77318   0.87323   0.66669   0.00000  Uiso   1.00
C699   C     0.77907   0.76041   0.69377   0.00000  Uiso   1.00
C700   C     0.86481   0.08224   0.61172   0.00000  Uiso   1.00
C701   C     0.87373   0.09056   0.57824   0.00000  Uiso   1.00
C702   C     0.94642   0.10183   0.56684   0.00000  Uiso   1.00
C703   C     0.05257   0.12134   0.53613   0.00000  Uiso   1.00
C704   C     0.90364   0.07458   0.66870   0.00000  Uiso   1.00
C705   C     0.84530   0.13528   0.67583   0.00000  Uiso   1.00
C706   C     0.84987   0.18877   0.70044   0.00000  Uiso   1.00
C707   C     0.79069   0.23941   0.70295   0.00000  Uiso   1.00
C708   C     0.86173   0.99984   0.67028   0.00000  Uiso   1.00
C709   C     0.88012   0.93945   0.69023   0.00000  Uiso   1.00
C710   C     0.83478   0.87605   0.68807   0.00000  Uiso   1.00
C711   C     0.92630   0.08507   0.63307   0.00000  Uiso   1.00
C712   C     0.99899   0.09632   0.62171   0.00000  Uiso   1.00
C713   C     0.00802   0.10465   0.58822   0.00000  Uiso   1.00
H714   H     0.74255   0.06718   0.61279   0.00000  Uiso   1.00
H715   H     0.67703   0.18081   0.64044   0.00000  Uiso   1.00
H716   H     0.70728   0.93152   0.63023   0.00000  Uiso   1.00
H717   H     0.82613   0.08837   0.56173   0.00000  Uiso   1.00
H718   H     0.63149   0.30802   0.68052   0.00000  Uiso   1.00
H719   H     0.69530   0.78237   0.65898   0.00000  Uiso   1.00
H720   H     0.94592   0.11311   0.51453   0.00000  Uiso   1.00
H721   H     0.95151   0.07678   0.68532   0.00000  Uiso   1.00
H722   H     0.89746   0.19095   0.71695   0.00000  Uiso   1.00
H723   H     0.92771   0.94165   0.70674   0.00000  Uiso   1.00
H724   H     0.04656   0.09850   0.63824   0.00000  Uiso   1.00
H725   H     0.81040   0.31624   0.74262   0.00000  Uiso   1.00
H726   H     0.87421   0.79059   0.72108   0.00000  Uiso   1.00
H727   H     0.12483   0.12133   0.57663   0.00000  Uiso   1.00
O728   O     0.68161   0.38704   0.73108   0.00000  Uiso   1.00
O729   O     0.76532   0.69741   0.70281   0.00000  Uiso   1.00
O730   O     0.09413   0.13133   0.51329   0.00000  Uiso   1.00
N731   N     0.68102   0.29430   0.69079   0.00000  Uiso   1.00
N732   N     0.74067   0.80285   0.67065   0.00000  Uiso   1.00
N733   N     0.97498   0.11204   0.53560   0.00000  Uiso   1.00
N734   N     0.77730   0.29872   0.72421   0.00000  Uiso   1.00
N735   N     0.83694   0.80728   0.70407   0.00000  Uiso   1.00
N736   N     0.07125   0.11647   0.56902   0.00000  Uiso   1.00
