data_job_03144
_audit_creation_date              2018-12-19
_audit_creation_method            'Materials Studio'
_symmetry_space_group_name_H-M    'P1'
_symmetry_Int_Tables_number       1
_symmetry_cell_setting            triclinic
loop_
_symmetry_equiv_pos_as_xyz
  x,y,z
_cell_length_a                    56.9445
_cell_length_b                    21.4999
_cell_length_c                    12.3912
_cell_angle_alpha                 90.0000
_cell_angle_beta                  90.0000
_cell_angle_gamma                 90.0000
loop_
_atom_site_label
_atom_site_type_symbol
_atom_site_fract_x
_atom_site_fract_y
_atom_site_fract_z
_atom_site_U_iso_or_equiv
_atom_site_adp_type
_atom_site_occupancy
C1     C     0.43427   0.76495   0.57277   0.00000  Uiso   1.00
C2     C     0.42547   0.78476   0.46173   0.00000  Uiso   1.00
C3     C     0.43587   0.82898   0.39559   0.00000  Uiso   1.00
C4     C     0.42512   0.84050   0.29702   0.00000  Uiso   1.00
C5     C     0.41455   0.87609   0.12939   0.00000  Uiso   1.00
C6     C     0.41386   0.77552   0.65028   0.00000  Uiso   1.00
C7     C     0.41449   0.81196   0.74268   0.00000  Uiso   1.00
C8     C     0.39397   0.81569   0.80283   0.00000  Uiso   1.00
C9     C     0.36538   0.83689   0.92797   0.00000  Uiso   1.00
C10    C     0.43774   0.69470   0.56692   0.00000  Uiso   1.00
C11    C     0.45845   0.66319   0.58926   0.00000  Uiso   1.00
C12    C     0.45803   0.59888   0.57926   0.00000  Uiso   1.00
C13    C     0.46652   0.49461   0.57496   0.00000  Uiso   1.00
C14    C     0.39671   0.70676   0.51532   0.00000  Uiso   1.00
C15    C     0.40507   0.75315   0.43053   0.00000  Uiso   1.00
C16    C     0.39431   0.76460   0.33203   0.00000  Uiso   1.00
C17    C     0.40468   0.80884   0.26576   0.00000  Uiso   1.00
C18    C     0.39346   0.74391   0.61908   0.00000  Uiso   1.00
C19    C     0.37293   0.74759   0.67912   0.00000  Uiso   1.00
C20    C     0.37353   0.78403   0.77158   0.00000  Uiso   1.00
C21    C     0.41734   0.66310   0.53572   0.00000  Uiso   1.00
C22    C     0.41689   0.59882   0.52569   0.00000  Uiso   1.00
C23    C     0.43759   0.56722   0.54800   0.00000  Uiso   1.00
H24    H     0.45016   0.78956   0.59706   0.00000  Uiso   1.00
H25    H     0.45166   0.85344   0.41978   0.00000  Uiso   1.00
H26    H     0.43028   0.83641   0.76681   0.00000  Uiso   1.00
H27    H     0.47423   0.68767   0.61340   0.00000  Uiso   1.00
H28    H     0.44431   0.91033   0.20947   0.00000  Uiso   1.00
H29    H     0.39925   0.87442   0.94123   0.00000  Uiso   1.00
H30    H     0.49193   0.56077   0.61776   0.00000  Uiso   1.00
H31    H     0.38082   0.68216   0.49103   0.00000  Uiso   1.00
H32    H     0.37852   0.74014   0.30791   0.00000  Uiso   1.00
H33    H     0.35714   0.72312   0.65495   0.00000  Uiso   1.00
H34    H     0.40109   0.57438   0.50155   0.00000  Uiso   1.00
H35    H     0.38495   0.81838   0.11868   0.00000  Uiso   1.00
H36    H     0.33989   0.78247   0.85045   0.00000  Uiso   1.00
H37    H     0.43257   0.46882   0.52697   0.00000  Uiso   1.00
O38    O     0.41436   0.90446   0.04555   0.00000  Uiso   1.00
O39    O     0.35524   0.85733   0.00560   0.00000  Uiso   1.00
O40    O     0.47684   0.44583   0.58120   0.00000  Uiso   1.00
N41    N     0.43066   0.88073   0.21323   0.00000  Uiso   1.00
N42    N     0.38853   0.84716   0.89737   0.00000  Uiso   1.00
N43    N     0.47518   0.55392   0.59497   0.00000  Uiso   1.00
N44    N     0.39872   0.83125   0.16437   0.00000  Uiso   1.00
N45    N     0.35659   0.79768   0.84852   0.00000  Uiso   1.00
N46    N     0.44323   0.50444   0.54612   0.00000  Uiso   1.00
C47    C     0.43427   0.26495   0.07277   0.00000  Uiso   1.00
C48    C     0.42547   0.28476   0.96173   0.00000  Uiso   1.00
C49    C     0.43587   0.32898   0.89559   0.00000  Uiso   1.00
C50    C     0.42512   0.34050   0.79702   0.00000  Uiso   1.00
C51    C     0.41455   0.37609   0.62939   0.00000  Uiso   1.00
C52    C     0.41386   0.27552   0.15028   0.00000  Uiso   1.00
C53    C     0.41449   0.31196   0.24268   0.00000  Uiso   1.00
C54    C     0.39397   0.31569   0.30283   0.00000  Uiso   1.00
C55    C     0.36538   0.33689   0.42797   0.00000  Uiso   1.00
C56    C     0.43774   0.19470   0.06692   0.00000  Uiso   1.00
C57    C     0.45845   0.16319   0.08926   0.00000  Uiso   1.00
C58    C     0.45803   0.09888   0.07926   0.00000  Uiso   1.00
C59    C     0.46652   0.99461   0.07496   0.00000  Uiso   1.00
C60    C     0.39671   0.20676   0.01532   0.00000  Uiso   1.00
C61    C     0.40507   0.25315   0.93053   0.00000  Uiso   1.00
C62    C     0.39431   0.26460   0.83203   0.00000  Uiso   1.00
C63    C     0.40468   0.30884   0.76576   0.00000  Uiso   1.00
C64    C     0.39346   0.24391   0.11908   0.00000  Uiso   1.00
C65    C     0.37293   0.24759   0.17912   0.00000  Uiso   1.00
C66    C     0.37353   0.28403   0.27158   0.00000  Uiso   1.00
C67    C     0.41734   0.16310   0.03572   0.00000  Uiso   1.00
C68    C     0.41689   0.09882   0.02569   0.00000  Uiso   1.00
C69    C     0.43759   0.06722   0.04800   0.00000  Uiso   1.00
H70    H     0.45016   0.28956   0.09706   0.00000  Uiso   1.00
H71    H     0.45166   0.35344   0.91978   0.00000  Uiso   1.00
H72    H     0.43028   0.33641   0.26681   0.00000  Uiso   1.00
H73    H     0.47423   0.18767   0.11340   0.00000  Uiso   1.00
H74    H     0.44431   0.41033   0.70947   0.00000  Uiso   1.00
H75    H     0.39925   0.37442   0.44123   0.00000  Uiso   1.00
H76    H     0.49193   0.06077   0.11776   0.00000  Uiso   1.00
H77    H     0.38082   0.18216   0.99103   0.00000  Uiso   1.00
H78    H     0.37852   0.24014   0.80791   0.00000  Uiso   1.00
H79    H     0.35714   0.22312   0.15495   0.00000  Uiso   1.00
H80    H     0.40109   0.07438   0.00155   0.00000  Uiso   1.00
H81    H     0.38495   0.31838   0.61868   0.00000  Uiso   1.00
H82    H     0.33989   0.28247   0.35045   0.00000  Uiso   1.00
H83    H     0.43257   0.96882   0.02697   0.00000  Uiso   1.00
O84    O     0.41436   0.40446   0.54555   0.00000  Uiso   1.00
O85    O     0.35524   0.35733   0.50560   0.00000  Uiso   1.00
O86    O     0.47684   0.94583   0.08120   0.00000  Uiso   1.00
N87    N     0.43066   0.38073   0.71323   0.00000  Uiso   1.00
N88    N     0.38853   0.34716   0.39737   0.00000  Uiso   1.00
N89    N     0.47518   0.05392   0.09497   0.00000  Uiso   1.00
N90    N     0.39872   0.33125   0.66437   0.00000  Uiso   1.00
N91    N     0.35659   0.29768   0.34852   0.00000  Uiso   1.00
N92    N     0.44323   0.00444   0.04612   0.00000  Uiso   1.00
C93    C     0.93427   0.76495   0.07277   0.00000  Uiso   1.00
C94    C     0.92547   0.78476   0.96173   0.00000  Uiso   1.00
C95    C     0.93587   0.82898   0.89559   0.00000  Uiso   1.00
C96    C     0.92512   0.84050   0.79702   0.00000  Uiso   1.00
C97    C     0.91455   0.87609   0.62939   0.00000  Uiso   1.00
C98    C     0.91386   0.77552   0.15028   0.00000  Uiso   1.00
C99    C     0.91449   0.81196   0.24268   0.00000  Uiso   1.00
C100   C     0.89397   0.81569   0.30283   0.00000  Uiso   1.00
C101   C     0.86538   0.83689   0.42797   0.00000  Uiso   1.00
C102   C     0.93774   0.69470   0.06692   0.00000  Uiso   1.00
C103   C     0.95845   0.66319   0.08926   0.00000  Uiso   1.00
C104   C     0.95803   0.59888   0.07926   0.00000  Uiso   1.00
C105   C     0.96652   0.49461   0.07496   0.00000  Uiso   1.00
C106   C     0.89671   0.70676   0.01532   0.00000  Uiso   1.00
C107   C     0.90507   0.75315   0.93053   0.00000  Uiso   1.00
C108   C     0.89431   0.76460   0.83203   0.00000  Uiso   1.00
C109   C     0.90468   0.80884   0.76576   0.00000  Uiso   1.00
C110   C     0.89346   0.74391   0.11908   0.00000  Uiso   1.00
C111   C     0.87293   0.74759   0.17912   0.00000  Uiso   1.00
C112   C     0.87353   0.78403   0.27158   0.00000  Uiso   1.00
C113   C     0.91734   0.66310   0.03572   0.00000  Uiso   1.00
C114   C     0.91689   0.59882   0.02569   0.00000  Uiso   1.00
C115   C     0.93759   0.56722   0.04800   0.00000  Uiso   1.00
H116   H     0.95016   0.78956   0.09706   0.00000  Uiso   1.00
H117   H     0.95166   0.85344   0.91978   0.00000  Uiso   1.00
H118   H     0.93028   0.83641   0.26681   0.00000  Uiso   1.00
H119   H     0.97423   0.68767   0.11340   0.00000  Uiso   1.00
H120   H     0.94431   0.91033   0.70947   0.00000  Uiso   1.00
H121   H     0.89925   0.87442   0.44123   0.00000  Uiso   1.00
H122   H     0.99193   0.56077   0.11776   0.00000  Uiso   1.00
H123   H     0.88082   0.68216   0.99103   0.00000  Uiso   1.00
H124   H     0.87852   0.74014   0.80791   0.00000  Uiso   1.00
H125   H     0.85714   0.72312   0.15495   0.00000  Uiso   1.00
H126   H     0.90109   0.57438   0.00155   0.00000  Uiso   1.00
H127   H     0.88495   0.81838   0.61868   0.00000  Uiso   1.00
H128   H     0.83989   0.78247   0.35045   0.00000  Uiso   1.00
H129   H     0.93257   0.46882   0.02697   0.00000  Uiso   1.00
O130   O     0.91436   0.90446   0.54555   0.00000  Uiso   1.00
O131   O     0.85524   0.85733   0.50560   0.00000  Uiso   1.00
O132   O     0.97684   0.44583   0.08120   0.00000  Uiso   1.00
N133   N     0.93066   0.88073   0.71323   0.00000  Uiso   1.00
N134   N     0.88853   0.84716   0.39737   0.00000  Uiso   1.00
N135   N     0.97518   0.55392   0.09497   0.00000  Uiso   1.00
N136   N     0.89872   0.83125   0.66437   0.00000  Uiso   1.00
N137   N     0.85659   0.79768   0.34852   0.00000  Uiso   1.00
N138   N     0.94323   0.50444   0.04612   0.00000  Uiso   1.00
C139   C     0.93427   0.26495   0.57277   0.00000  Uiso   1.00
C140   C     0.92547   0.28476   0.46173   0.00000  Uiso   1.00
C141   C     0.93587   0.32898   0.39559   0.00000  Uiso   1.00
C142   C     0.92512   0.34050   0.29702   0.00000  Uiso   1.00
C143   C     0.91455   0.37609   0.12939   0.00000  Uiso   1.00
C144   C     0.91386   0.27552   0.65028   0.00000  Uiso   1.00
C145   C     0.91449   0.31196   0.74268   0.00000  Uiso   1.00
C146   C     0.89397   0.31569   0.80283   0.00000  Uiso   1.00
C147   C     0.86538   0.33689   0.92797   0.00000  Uiso   1.00
C148   C     0.93774   0.19470   0.56692   0.00000  Uiso   1.00
C149   C     0.95845   0.16319   0.58926   0.00000  Uiso   1.00
C150   C     0.95803   0.09888   0.57926   0.00000  Uiso   1.00
C151   C     0.96652   0.99461   0.57496   0.00000  Uiso   1.00
C152   C     0.89671   0.20676   0.51532   0.00000  Uiso   1.00
C153   C     0.90507   0.25315   0.43053   0.00000  Uiso   1.00
C154   C     0.89431   0.26460   0.33203   0.00000  Uiso   1.00
C155   C     0.90468   0.30884   0.26576   0.00000  Uiso   1.00
C156   C     0.89346   0.24391   0.61908   0.00000  Uiso   1.00
C157   C     0.87293   0.24759   0.67912   0.00000  Uiso   1.00
C158   C     0.87353   0.28403   0.77158   0.00000  Uiso   1.00
C159   C     0.91734   0.16310   0.53572   0.00000  Uiso   1.00
C160   C     0.91689   0.09882   0.52569   0.00000  Uiso   1.00
C161   C     0.93759   0.06722   0.54800   0.00000  Uiso   1.00
H162   H     0.95016   0.28956   0.59706   0.00000  Uiso   1.00
H163   H     0.95166   0.35344   0.41978   0.00000  Uiso   1.00
H164   H     0.93028   0.33641   0.76681   0.00000  Uiso   1.00
H165   H     0.97423   0.18767   0.61340   0.00000  Uiso   1.00
H166   H     0.94431   0.41033   0.20947   0.00000  Uiso   1.00
H167   H     0.89925   0.37442   0.94123   0.00000  Uiso   1.00
H168   H     0.99193   0.06077   0.61776   0.00000  Uiso   1.00
H169   H     0.88082   0.18216   0.49103   0.00000  Uiso   1.00
H170   H     0.87852   0.24014   0.30791   0.00000  Uiso   1.00
H171   H     0.85714   0.22312   0.65495   0.00000  Uiso   1.00
H172   H     0.90109   0.07438   0.50155   0.00000  Uiso   1.00
H173   H     0.88495   0.31838   0.11868   0.00000  Uiso   1.00
H174   H     0.83989   0.28247   0.85045   0.00000  Uiso   1.00
H175   H     0.93257   0.96882   0.52697   0.00000  Uiso   1.00
O176   O     0.91436   0.40446   0.04555   0.00000  Uiso   1.00
O177   O     0.85524   0.35733   0.00560   0.00000  Uiso   1.00
O178   O     0.97684   0.94583   0.58120   0.00000  Uiso   1.00
N179   N     0.93066   0.38073   0.21323   0.00000  Uiso   1.00
N180   N     0.88853   0.34716   0.89737   0.00000  Uiso   1.00
N181   N     0.97518   0.05392   0.59497   0.00000  Uiso   1.00
N182   N     0.89872   0.33125   0.16437   0.00000  Uiso   1.00
N183   N     0.85659   0.29768   0.84852   0.00000  Uiso   1.00
N184   N     0.94323   0.00444   0.54612   0.00000  Uiso   1.00
C185   C     0.56573   0.23505   0.57277   0.00000  Uiso   1.00
C186   C     0.57453   0.21524   0.46173   0.00000  Uiso   1.00
C187   C     0.56413   0.17102   0.39559   0.00000  Uiso   1.00
C188   C     0.57488   0.15950   0.29702   0.00000  Uiso   1.00
C189   C     0.58545   0.12391   0.12939   0.00000  Uiso   1.00
C190   C     0.58614   0.22448   0.65028   0.00000  Uiso   1.00
C191   C     0.58551   0.18804   0.74268   0.00000  Uiso   1.00
C192   C     0.60603   0.18431   0.80283   0.00000  Uiso   1.00
C193   C     0.63462   0.16311   0.92797   0.00000  Uiso   1.00
C194   C     0.56226   0.30530   0.56692   0.00000  Uiso   1.00
C195   C     0.54155   0.33681   0.58926   0.00000  Uiso   1.00
C196   C     0.54197   0.40112   0.57926   0.00000  Uiso   1.00
C197   C     0.53348   0.50539   0.57496   0.00000  Uiso   1.00
C198   C     0.60329   0.29324   0.51532   0.00000  Uiso   1.00
C199   C     0.59493   0.24685   0.43053   0.00000  Uiso   1.00
C200   C     0.60569   0.23540   0.33203   0.00000  Uiso   1.00
C201   C     0.59532   0.19116   0.26576   0.00000  Uiso   1.00
C202   C     0.60654   0.25609   0.61908   0.00000  Uiso   1.00
C203   C     0.62707   0.25241   0.67912   0.00000  Uiso   1.00
C204   C     0.62647   0.21597   0.77158   0.00000  Uiso   1.00
C205   C     0.58266   0.33690   0.53572   0.00000  Uiso   1.00
C206   C     0.58311   0.40118   0.52569   0.00000  Uiso   1.00
C207   C     0.56241   0.43278   0.54800   0.00000  Uiso   1.00
H208   H     0.54984   0.21044   0.59706   0.00000  Uiso   1.00
H209   H     0.54834   0.14656   0.41978   0.00000  Uiso   1.00
H210   H     0.56972   0.16359   0.76681   0.00000  Uiso   1.00
H211   H     0.52577   0.31233   0.61340   0.00000  Uiso   1.00
H212   H     0.55569   0.08967   0.20947   0.00000  Uiso   1.00
H213   H     0.60075   0.12558   0.94123   0.00000  Uiso   1.00
H214   H     0.50807   0.43923   0.61776   0.00000  Uiso   1.00
H215   H     0.61918   0.31784   0.49103   0.00000  Uiso   1.00
H216   H     0.62148   0.25986   0.30791   0.00000  Uiso   1.00
H217   H     0.64286   0.27688   0.65495   0.00000  Uiso   1.00
H218   H     0.59891   0.42562   0.50155   0.00000  Uiso   1.00
H219   H     0.61505   0.18162   0.11868   0.00000  Uiso   1.00
H220   H     0.66011   0.21753   0.85045   0.00000  Uiso   1.00
H221   H     0.56743   0.53118   0.52697   0.00000  Uiso   1.00
O222   O     0.58564   0.09554   0.04555   0.00000  Uiso   1.00
O223   O     0.64476   0.14267   0.00560   0.00000  Uiso   1.00
O224   O     0.52316   0.55417   0.58120   0.00000  Uiso   1.00
N225   N     0.56934   0.11927   0.21323   0.00000  Uiso   1.00
N226   N     0.61147   0.15284   0.89737   0.00000  Uiso   1.00
N227   N     0.52482   0.44608   0.59497   0.00000  Uiso   1.00
N228   N     0.60128   0.16875   0.16437   0.00000  Uiso   1.00
N229   N     0.64341   0.20232   0.84852   0.00000  Uiso   1.00
N230   N     0.55677   0.49556   0.54612   0.00000  Uiso   1.00
C231   C     0.56573   0.73505   0.07277   0.00000  Uiso   1.00
C232   C     0.57453   0.71524   0.96173   0.00000  Uiso   1.00
C233   C     0.56413   0.67102   0.89559   0.00000  Uiso   1.00
C234   C     0.57488   0.65950   0.79702   0.00000  Uiso   1.00
C235   C     0.58545   0.62391   0.62939   0.00000  Uiso   1.00
C236   C     0.58614   0.72448   0.15028   0.00000  Uiso   1.00
C237   C     0.58551   0.68804   0.24268   0.00000  Uiso   1.00
C238   C     0.60603   0.68431   0.30283   0.00000  Uiso   1.00
C239   C     0.63462   0.66311   0.42797   0.00000  Uiso   1.00
C240   C     0.56226   0.80530   0.06692   0.00000  Uiso   1.00
C241   C     0.54155   0.83681   0.08926   0.00000  Uiso   1.00
C242   C     0.54197   0.90112   0.07926   0.00000  Uiso   1.00
C243   C     0.53348   0.00539   0.07496   0.00000  Uiso   1.00
C244   C     0.60329   0.79324   0.01532   0.00000  Uiso   1.00
C245   C     0.59493   0.74685   0.93053   0.00000  Uiso   1.00
C246   C     0.60569   0.73540   0.83203   0.00000  Uiso   1.00
C247   C     0.59532   0.69116   0.76576   0.00000  Uiso   1.00
C248   C     0.60654   0.75609   0.11908   0.00000  Uiso   1.00
C249   C     0.62707   0.75241   0.17912   0.00000  Uiso   1.00
C250   C     0.62647   0.71597   0.27158   0.00000  Uiso   1.00
C251   C     0.58266   0.83690   0.03572   0.00000  Uiso   1.00
C252   C     0.58311   0.90118   0.02569   0.00000  Uiso   1.00
C253   C     0.56241   0.93278   0.04800   0.00000  Uiso   1.00
H254   H     0.54984   0.71044   0.09706   0.00000  Uiso   1.00
H255   H     0.54834   0.64656   0.91978   0.00000  Uiso   1.00
H256   H     0.56972   0.66359   0.26681   0.00000  Uiso   1.00
H257   H     0.52577   0.81233   0.11340   0.00000  Uiso   1.00
H258   H     0.55569   0.58967   0.70947   0.00000  Uiso   1.00
H259   H     0.60075   0.62558   0.44123   0.00000  Uiso   1.00
H260   H     0.50807   0.93923   0.11776   0.00000  Uiso   1.00
H261   H     0.61918   0.81784   0.99103   0.00000  Uiso   1.00
H262   H     0.62148   0.75986   0.80791   0.00000  Uiso   1.00
H263   H     0.64286   0.77688   0.15495   0.00000  Uiso   1.00
H264   H     0.59891   0.92562   0.00155   0.00000  Uiso   1.00
H265   H     0.61505   0.68162   0.61868   0.00000  Uiso   1.00
H266   H     0.66011   0.71753   0.35045   0.00000  Uiso   1.00
H267   H     0.56743   0.03118   0.02697   0.00000  Uiso   1.00
O268   O     0.58564   0.59554   0.54555   0.00000  Uiso   1.00
O269   O     0.64476   0.64267   0.50560   0.00000  Uiso   1.00
O270   O     0.52316   0.05417   0.08120   0.00000  Uiso   1.00
N271   N     0.56934   0.61927   0.71323   0.00000  Uiso   1.00
N272   N     0.61147   0.65284   0.39737   0.00000  Uiso   1.00
N273   N     0.52482   0.94608   0.09497   0.00000  Uiso   1.00
N274   N     0.60128   0.66875   0.66437   0.00000  Uiso   1.00
N275   N     0.64341   0.70232   0.34852   0.00000  Uiso   1.00
N276   N     0.55677   0.99556   0.04612   0.00000  Uiso   1.00
C277   C     0.06573   0.23505   0.07277   0.00000  Uiso   1.00
C278   C     0.07453   0.21524   0.96173   0.00000  Uiso   1.00
C279   C     0.06413   0.17102   0.89559   0.00000  Uiso   1.00
C280   C     0.07488   0.15950   0.79702   0.00000  Uiso   1.00
C281   C     0.08545   0.12391   0.62939   0.00000  Uiso   1.00
C282   C     0.08614   0.22448   0.15028   0.00000  Uiso   1.00
C283   C     0.08551   0.18804   0.24268   0.00000  Uiso   1.00
C284   C     0.10603   0.18431   0.30283   0.00000  Uiso   1.00
C285   C     0.13462   0.16311   0.42797   0.00000  Uiso   1.00
C286   C     0.06226   0.30530   0.06692   0.00000  Uiso   1.00
C287   C     0.04155   0.33681   0.08926   0.00000  Uiso   1.00
C288   C     0.04197   0.40112   0.07926   0.00000  Uiso   1.00
C289   C     0.03348   0.50539   0.07496   0.00000  Uiso   1.00
C290   C     0.10329   0.29324   0.01532   0.00000  Uiso   1.00
C291   C     0.09493   0.24685   0.93053   0.00000  Uiso   1.00
C292   C     0.10569   0.23540   0.83203   0.00000  Uiso   1.00
C293   C     0.09532   0.19116   0.76576   0.00000  Uiso   1.00
C294   C     0.10654   0.25609   0.11908   0.00000  Uiso   1.00
C295   C     0.12707   0.25241   0.17912   0.00000  Uiso   1.00
C296   C     0.12647   0.21597   0.27158   0.00000  Uiso   1.00
C297   C     0.08266   0.33690   0.03572   0.00000  Uiso   1.00
C298   C     0.08311   0.40118   0.02569   0.00000  Uiso   1.00
C299   C     0.06241   0.43278   0.04800   0.00000  Uiso   1.00
H300   H     0.04984   0.21044   0.09706   0.00000  Uiso   1.00
H301   H     0.04834   0.14656   0.91978   0.00000  Uiso   1.00
H302   H     0.06972   0.16359   0.26681   0.00000  Uiso   1.00
H303   H     0.02577   0.31233   0.11340   0.00000  Uiso   1.00
H304   H     0.05569   0.08967   0.70947   0.00000  Uiso   1.00
H305   H     0.10075   0.12558   0.44123   0.00000  Uiso   1.00
H306   H     0.00807   0.43923   0.11776   0.00000  Uiso   1.00
H307   H     0.11918   0.31784   0.99103   0.00000  Uiso   1.00
H308   H     0.12148   0.25986   0.80791   0.00000  Uiso   1.00
H309   H     0.14286   0.27688   0.15495   0.00000  Uiso   1.00
H310   H     0.09891   0.42562   0.00155   0.00000  Uiso   1.00
H311   H     0.11505   0.18162   0.61868   0.00000  Uiso   1.00
H312   H     0.16011   0.21753   0.35045   0.00000  Uiso   1.00
H313   H     0.06743   0.53118   0.02697   0.00000  Uiso   1.00
O314   O     0.08564   0.09554   0.54555   0.00000  Uiso   1.00
O315   O     0.14476   0.14267   0.50560   0.00000  Uiso   1.00
O316   O     0.02316   0.55417   0.08120   0.00000  Uiso   1.00
N317   N     0.06934   0.11927   0.71323   0.00000  Uiso   1.00
N318   N     0.11147   0.15284   0.39737   0.00000  Uiso   1.00
N319   N     0.02482   0.44608   0.09497   0.00000  Uiso   1.00
N320   N     0.10128   0.16875   0.66437   0.00000  Uiso   1.00
N321   N     0.14341   0.20232   0.34852   0.00000  Uiso   1.00
N322   N     0.05677   0.49556   0.04612   0.00000  Uiso   1.00
C323   C     0.06573   0.73505   0.57277   0.00000  Uiso   1.00
C324   C     0.07453   0.71524   0.46173   0.00000  Uiso   1.00
C325   C     0.06413   0.67102   0.39559   0.00000  Uiso   1.00
C326   C     0.07488   0.65950   0.29702   0.00000  Uiso   1.00
C327   C     0.08545   0.62391   0.12939   0.00000  Uiso   1.00
C328   C     0.08614   0.72448   0.65028   0.00000  Uiso   1.00
C329   C     0.08551   0.68804   0.74268   0.00000  Uiso   1.00
C330   C     0.10603   0.68431   0.80283   0.00000  Uiso   1.00
C331   C     0.13462   0.66311   0.92797   0.00000  Uiso   1.00
C332   C     0.06226   0.80530   0.56692   0.00000  Uiso   1.00
C333   C     0.04155   0.83681   0.58926   0.00000  Uiso   1.00
C334   C     0.04197   0.90112   0.57926   0.00000  Uiso   1.00
C335   C     0.03348   0.00539   0.57496   0.00000  Uiso   1.00
C336   C     0.10329   0.79324   0.51532   0.00000  Uiso   1.00
C337   C     0.09493   0.74685   0.43053   0.00000  Uiso   1.00
C338   C     0.10569   0.73540   0.33203   0.00000  Uiso   1.00
C339   C     0.09532   0.69116   0.26576   0.00000  Uiso   1.00
C340   C     0.10654   0.75609   0.61908   0.00000  Uiso   1.00
C341   C     0.12707   0.75241   0.67912   0.00000  Uiso   1.00
C342   C     0.12647   0.71597   0.77158   0.00000  Uiso   1.00
C343   C     0.08266   0.83690   0.53572   0.00000  Uiso   1.00
C344   C     0.08311   0.90118   0.52569   0.00000  Uiso   1.00
C345   C     0.06241   0.93278   0.54800   0.00000  Uiso   1.00
H346   H     0.04984   0.71044   0.59706   0.00000  Uiso   1.00
H347   H     0.04834   0.64656   0.41978   0.00000  Uiso   1.00
H348   H     0.06972   0.66359   0.76681   0.00000  Uiso   1.00
H349   H     0.02577   0.81233   0.61340   0.00000  Uiso   1.00
H350   H     0.05569   0.58967   0.20947   0.00000  Uiso   1.00
H351   H     0.10075   0.62558   0.94123   0.00000  Uiso   1.00
H352   H     0.00807   0.93923   0.61776   0.00000  Uiso   1.00
H353   H     0.11918   0.81784   0.49103   0.00000  Uiso   1.00
H354   H     0.12148   0.75986   0.30791   0.00000  Uiso   1.00
H355   H     0.14286   0.77688   0.65495   0.00000  Uiso   1.00
H356   H     0.09891   0.92562   0.50155   0.00000  Uiso   1.00
H357   H     0.11505   0.68162   0.11868   0.00000  Uiso   1.00
H358   H     0.16011   0.71753   0.85045   0.00000  Uiso   1.00
H359   H     0.06743   0.03118   0.52697   0.00000  Uiso   1.00
O360   O     0.08564   0.59554   0.04555   0.00000  Uiso   1.00
O361   O     0.14476   0.64267   0.00560   0.00000  Uiso   1.00
O362   O     0.02316   0.05417   0.58120   0.00000  Uiso   1.00
N363   N     0.06934   0.61927   0.21323   0.00000  Uiso   1.00
N364   N     0.11147   0.65284   0.89737   0.00000  Uiso   1.00
N365   N     0.02482   0.94608   0.59497   0.00000  Uiso   1.00
N366   N     0.10128   0.66875   0.16437   0.00000  Uiso   1.00
N367   N     0.14341   0.70232   0.84852   0.00000  Uiso   1.00
N368   N     0.05677   0.99556   0.54612   0.00000  Uiso   1.00
C369   C     0.68427   0.48505   0.82277   0.00000  Uiso   1.00
C370   C     0.67547   0.46524   0.71173   0.00000  Uiso   1.00
C371   C     0.68587   0.42102   0.64559   0.00000  Uiso   1.00
C372   C     0.67512   0.40950   0.54702   0.00000  Uiso   1.00
C373   C     0.66455   0.37391   0.37939   0.00000  Uiso   1.00
C374   C     0.66386   0.47448   0.90028   0.00000  Uiso   1.00
C375   C     0.66449   0.43804   0.99268   0.00000  Uiso   1.00
C376   C     0.64397   0.43431   0.05283   0.00000  Uiso   1.00
C377   C     0.61538   0.41311   0.17797   0.00000  Uiso   1.00
C378   C     0.68774   0.55530   0.81692   0.00000  Uiso   1.00
C379   C     0.70845   0.58681   0.83926   0.00000  Uiso   1.00
C380   C     0.70803   0.65112   0.82926   0.00000  Uiso   1.00
C381   C     0.71652   0.75539   0.82496   0.00000  Uiso   1.00
C382   C     0.64671   0.54324   0.76532   0.00000  Uiso   1.00
C383   C     0.65507   0.49685   0.68053   0.00000  Uiso   1.00
C384   C     0.64431   0.48540   0.58203   0.00000  Uiso   1.00
C385   C     0.65468   0.44116   0.51576   0.00000  Uiso   1.00
C386   C     0.64346   0.50609   0.86908   0.00000  Uiso   1.00
C387   C     0.62293   0.50241   0.92912   0.00000  Uiso   1.00
C388   C     0.62353   0.46597   0.02158   0.00000  Uiso   1.00
C389   C     0.66734   0.58690   0.78572   0.00000  Uiso   1.00
C390   C     0.66689   0.65118   0.77569   0.00000  Uiso   1.00
C391   C     0.68759   0.68278   0.79800   0.00000  Uiso   1.00
H392   H     0.70016   0.46044   0.84706   0.00000  Uiso   1.00
H393   H     0.70166   0.39656   0.66978   0.00000  Uiso   1.00
H394   H     0.68028   0.41359   0.01681   0.00000  Uiso   1.00
H395   H     0.72423   0.56233   0.86340   0.00000  Uiso   1.00
H396   H     0.69431   0.33967   0.45947   0.00000  Uiso   1.00
H397   H     0.64925   0.37558   0.19123   0.00000  Uiso   1.00
H398   H     0.74193   0.68923   0.86776   0.00000  Uiso   1.00
H399   H     0.63082   0.56784   0.74103   0.00000  Uiso   1.00
H400   H     0.62852   0.50986   0.55791   0.00000  Uiso   1.00
H401   H     0.60714   0.52688   0.90495   0.00000  Uiso   1.00
H402   H     0.65109   0.67562   0.75155   0.00000  Uiso   1.00
H403   H     0.63495   0.43162   0.36868   0.00000  Uiso   1.00
H404   H     0.58989   0.46753   0.10045   0.00000  Uiso   1.00
H405   H     0.68257   0.78118   0.77697   0.00000  Uiso   1.00
O406   O     0.66436   0.34554   0.29555   0.00000  Uiso   1.00
O407   O     0.60524   0.39267   0.25560   0.00000  Uiso   1.00
O408   O     0.72684   0.80417   0.83120   0.00000  Uiso   1.00
N409   N     0.68066   0.36927   0.46323   0.00000  Uiso   1.00
N410   N     0.63853   0.40284   0.14737   0.00000  Uiso   1.00
N411   N     0.72518   0.69608   0.84497   0.00000  Uiso   1.00
N412   N     0.64872   0.41875   0.41437   0.00000  Uiso   1.00
N413   N     0.60659   0.45232   0.09852   0.00000  Uiso   1.00
N414   N     0.69323   0.74556   0.79612   0.00000  Uiso   1.00
C415   C     0.68427   0.98505   0.32277   0.00000  Uiso   1.00
C416   C     0.67547   0.96524   0.21173   0.00000  Uiso   1.00
C417   C     0.68587   0.92102   0.14559   0.00000  Uiso   1.00
C418   C     0.67512   0.90950   0.04702   0.00000  Uiso   1.00
C419   C     0.66455   0.87391   0.87939   0.00000  Uiso   1.00
C420   C     0.66386   0.97448   0.40028   0.00000  Uiso   1.00
C421   C     0.66449   0.93804   0.49268   0.00000  Uiso   1.00
C422   C     0.64397   0.93431   0.55283   0.00000  Uiso   1.00
C423   C     0.61538   0.91311   0.67797   0.00000  Uiso   1.00
C424   C     0.68774   0.05530   0.31692   0.00000  Uiso   1.00
C425   C     0.70845   0.08681   0.33926   0.00000  Uiso   1.00
C426   C     0.70803   0.15112   0.32926   0.00000  Uiso   1.00
C427   C     0.71652   0.25539   0.32496   0.00000  Uiso   1.00
C428   C     0.64671   0.04324   0.26532   0.00000  Uiso   1.00
C429   C     0.65507   0.99685   0.18053   0.00000  Uiso   1.00
C430   C     0.64431   0.98540   0.08203   0.00000  Uiso   1.00
C431   C     0.65468   0.94116   0.01576   0.00000  Uiso   1.00
C432   C     0.64346   0.00609   0.36908   0.00000  Uiso   1.00
C433   C     0.62293   0.00241   0.42912   0.00000  Uiso   1.00
C434   C     0.62353   0.96597   0.52158   0.00000  Uiso   1.00
C435   C     0.66734   0.08690   0.28572   0.00000  Uiso   1.00
C436   C     0.66689   0.15118   0.27569   0.00000  Uiso   1.00
C437   C     0.68759   0.18278   0.29800   0.00000  Uiso   1.00
H438   H     0.70016   0.96044   0.34706   0.00000  Uiso   1.00
H439   H     0.70166   0.89656   0.16978   0.00000  Uiso   1.00
H440   H     0.68028   0.91359   0.51681   0.00000  Uiso   1.00
H441   H     0.72423   0.06233   0.36340   0.00000  Uiso   1.00
H442   H     0.69431   0.83967   0.95947   0.00000  Uiso   1.00
H443   H     0.64925   0.87558   0.69123   0.00000  Uiso   1.00
H444   H     0.74193   0.18923   0.36776   0.00000  Uiso   1.00
H445   H     0.63082   0.06784   0.24103   0.00000  Uiso   1.00
H446   H     0.62852   0.00986   0.05791   0.00000  Uiso   1.00
H447   H     0.60714   0.02688   0.40495   0.00000  Uiso   1.00
H448   H     0.65109   0.17562   0.25155   0.00000  Uiso   1.00
H449   H     0.63495   0.93162   0.86868   0.00000  Uiso   1.00
H450   H     0.58989   0.96753   0.60045   0.00000  Uiso   1.00
H451   H     0.68257   0.28118   0.27697   0.00000  Uiso   1.00
O452   O     0.66436   0.84554   0.79555   0.00000  Uiso   1.00
O453   O     0.60524   0.89267   0.75560   0.00000  Uiso   1.00
O454   O     0.72684   0.30417   0.33120   0.00000  Uiso   1.00
N455   N     0.68066   0.86927   0.96323   0.00000  Uiso   1.00
N456   N     0.63853   0.90284   0.64737   0.00000  Uiso   1.00
N457   N     0.72518   0.19608   0.34497   0.00000  Uiso   1.00
N458   N     0.64872   0.91875   0.91437   0.00000  Uiso   1.00
N459   N     0.60659   0.95232   0.59852   0.00000  Uiso   1.00
N460   N     0.69323   0.24556   0.29612   0.00000  Uiso   1.00
C461   C     0.18427   0.48505   0.32277   0.00000  Uiso   1.00
C462   C     0.17547   0.46524   0.21173   0.00000  Uiso   1.00
C463   C     0.18587   0.42102   0.14559   0.00000  Uiso   1.00
C464   C     0.17512   0.40950   0.04702   0.00000  Uiso   1.00
C465   C     0.16455   0.37391   0.87939   0.00000  Uiso   1.00
C466   C     0.16386   0.47448   0.40028   0.00000  Uiso   1.00
C467   C     0.16449   0.43804   0.49268   0.00000  Uiso   1.00
C468   C     0.14397   0.43431   0.55283   0.00000  Uiso   1.00
C469   C     0.11538   0.41311   0.67797   0.00000  Uiso   1.00
C470   C     0.18774   0.55530   0.31692   0.00000  Uiso   1.00
C471   C     0.20845   0.58681   0.33926   0.00000  Uiso   1.00
C472   C     0.20803   0.65112   0.32926   0.00000  Uiso   1.00
C473   C     0.21652   0.75539   0.32496   0.00000  Uiso   1.00
C474   C     0.14671   0.54324   0.26532   0.00000  Uiso   1.00
C475   C     0.15507   0.49685   0.18053   0.00000  Uiso   1.00
C476   C     0.14431   0.48540   0.08203   0.00000  Uiso   1.00
C477   C     0.15468   0.44116   0.01576   0.00000  Uiso   1.00
C478   C     0.14346   0.50609   0.36908   0.00000  Uiso   1.00
C479   C     0.12293   0.50241   0.42912   0.00000  Uiso   1.00
C480   C     0.12353   0.46597   0.52158   0.00000  Uiso   1.00
C481   C     0.16734   0.58690   0.28572   0.00000  Uiso   1.00
C482   C     0.16689   0.65118   0.27569   0.00000  Uiso   1.00
C483   C     0.18759   0.68278   0.29800   0.00000  Uiso   1.00
H484   H     0.20016   0.46044   0.34706   0.00000  Uiso   1.00
H485   H     0.20166   0.39656   0.16978   0.00000  Uiso   1.00
H486   H     0.18028   0.41359   0.51681   0.00000  Uiso   1.00
H487   H     0.22423   0.56233   0.36340   0.00000  Uiso   1.00
H488   H     0.19431   0.33967   0.95947   0.00000  Uiso   1.00
H489   H     0.14925   0.37558   0.69123   0.00000  Uiso   1.00
H490   H     0.24193   0.68923   0.36776   0.00000  Uiso   1.00
H491   H     0.13082   0.56784   0.24103   0.00000  Uiso   1.00
H492   H     0.12852   0.50986   0.05791   0.00000  Uiso   1.00
H493   H     0.10714   0.52688   0.40495   0.00000  Uiso   1.00
H494   H     0.15109   0.67562   0.25155   0.00000  Uiso   1.00
H495   H     0.13495   0.43162   0.86868   0.00000  Uiso   1.00
H496   H     0.08989   0.46753   0.60045   0.00000  Uiso   1.00
H497   H     0.18257   0.78118   0.27697   0.00000  Uiso   1.00
O498   O     0.16436   0.34554   0.79555   0.00000  Uiso   1.00
O499   O     0.10524   0.39267   0.75560   0.00000  Uiso   1.00
O500   O     0.22684   0.80417   0.33120   0.00000  Uiso   1.00
N501   N     0.18066   0.36927   0.96323   0.00000  Uiso   1.00
N502   N     0.13853   0.40284   0.64737   0.00000  Uiso   1.00
N503   N     0.22518   0.69608   0.34497   0.00000  Uiso   1.00
N504   N     0.14872   0.41875   0.91437   0.00000  Uiso   1.00
N505   N     0.10659   0.45232   0.59852   0.00000  Uiso   1.00
N506   N     0.19323   0.74556   0.29612   0.00000  Uiso   1.00
C507   C     0.18427   0.98505   0.82277   0.00000  Uiso   1.00
C508   C     0.17547   0.96524   0.71173   0.00000  Uiso   1.00
C509   C     0.18587   0.92102   0.64559   0.00000  Uiso   1.00
C510   C     0.17512   0.90950   0.54702   0.00000  Uiso   1.00
C511   C     0.16455   0.87391   0.37939   0.00000  Uiso   1.00
C512   C     0.16386   0.97448   0.90028   0.00000  Uiso   1.00
C513   C     0.16449   0.93804   0.99268   0.00000  Uiso   1.00
C514   C     0.14397   0.93431   0.05283   0.00000  Uiso   1.00
C515   C     0.11538   0.91311   0.17797   0.00000  Uiso   1.00
C516   C     0.18774   0.05530   0.81692   0.00000  Uiso   1.00
C517   C     0.20845   0.08681   0.83926   0.00000  Uiso   1.00
C518   C     0.20803   0.15112   0.82926   0.00000  Uiso   1.00
C519   C     0.21652   0.25539   0.82496   0.00000  Uiso   1.00
C520   C     0.14671   0.04324   0.76532   0.00000  Uiso   1.00
C521   C     0.15507   0.99685   0.68053   0.00000  Uiso   1.00
C522   C     0.14431   0.98540   0.58203   0.00000  Uiso   1.00
C523   C     0.15468   0.94116   0.51576   0.00000  Uiso   1.00
C524   C     0.14346   0.00609   0.86908   0.00000  Uiso   1.00
C525   C     0.12293   0.00241   0.92912   0.00000  Uiso   1.00
C526   C     0.12353   0.96597   0.02158   0.00000  Uiso   1.00
C527   C     0.16734   0.08690   0.78572   0.00000  Uiso   1.00
C528   C     0.16689   0.15118   0.77569   0.00000  Uiso   1.00
C529   C     0.18759   0.18278   0.79800   0.00000  Uiso   1.00
H530   H     0.20016   0.96044   0.84706   0.00000  Uiso   1.00
H531   H     0.20166   0.89656   0.66978   0.00000  Uiso   1.00
H532   H     0.18028   0.91359   0.01681   0.00000  Uiso   1.00
H533   H     0.22423   0.06233   0.86340   0.00000  Uiso   1.00
H534   H     0.19431   0.83967   0.45947   0.00000  Uiso   1.00
H535   H     0.14925   0.87558   0.19123   0.00000  Uiso   1.00
H536   H     0.24193   0.18923   0.86776   0.00000  Uiso   1.00
H537   H     0.13082   0.06784   0.74103   0.00000  Uiso   1.00
H538   H     0.12852   0.00986   0.55791   0.00000  Uiso   1.00
H539   H     0.10714   0.02688   0.90495   0.00000  Uiso   1.00
H540   H     0.15109   0.17562   0.75155   0.00000  Uiso   1.00
H541   H     0.13495   0.93162   0.36868   0.00000  Uiso   1.00
H542   H     0.08989   0.96753   0.10045   0.00000  Uiso   1.00
H543   H     0.18257   0.28118   0.77697   0.00000  Uiso   1.00
O544   O     0.16436   0.84554   0.29555   0.00000  Uiso   1.00
O545   O     0.10524   0.89267   0.25560   0.00000  Uiso   1.00
O546   O     0.22684   0.30417   0.83120   0.00000  Uiso   1.00
N547   N     0.18066   0.86927   0.46323   0.00000  Uiso   1.00
N548   N     0.13853   0.90284   0.14737   0.00000  Uiso   1.00
N549   N     0.22518   0.19608   0.84497   0.00000  Uiso   1.00
N550   N     0.14872   0.91875   0.41437   0.00000  Uiso   1.00
N551   N     0.10659   0.95232   0.09852   0.00000  Uiso   1.00
N552   N     0.19323   0.24556   0.79612   0.00000  Uiso   1.00
C553   C     0.81573   0.01495   0.82277   0.00000  Uiso   1.00
C554   C     0.82453   0.03476   0.71173   0.00000  Uiso   1.00
C555   C     0.81413   0.07898   0.64559   0.00000  Uiso   1.00
C556   C     0.82488   0.09050   0.54702   0.00000  Uiso   1.00
C557   C     0.83545   0.12609   0.37939   0.00000  Uiso   1.00
C558   C     0.83614   0.02552   0.90028   0.00000  Uiso   1.00
C559   C     0.83551   0.06196   0.99268   0.00000  Uiso   1.00
C560   C     0.85603   0.06569   0.05283   0.00000  Uiso   1.00
C561   C     0.88462   0.08689   0.17797   0.00000  Uiso   1.00
C562   C     0.81226   0.94470   0.81692   0.00000  Uiso   1.00
C563   C     0.79155   0.91319   0.83926   0.00000  Uiso   1.00
C564   C     0.79197   0.84888   0.82926   0.00000  Uiso   1.00
C565   C     0.78348   0.74461   0.82496   0.00000  Uiso   1.00
C566   C     0.85329   0.95676   0.76532   0.00000  Uiso   1.00
C567   C     0.84493   0.00315   0.68053   0.00000  Uiso   1.00
C568   C     0.85569   0.01460   0.58203   0.00000  Uiso   1.00
C569   C     0.84532   0.05884   0.51576   0.00000  Uiso   1.00
C570   C     0.85654   0.99391   0.86908   0.00000  Uiso   1.00
C571   C     0.87707   0.99759   0.92912   0.00000  Uiso   1.00
C572   C     0.87647   0.03403   0.02158   0.00000  Uiso   1.00
C573   C     0.83266   0.91310   0.78572   0.00000  Uiso   1.00
C574   C     0.83311   0.84882   0.77569   0.00000  Uiso   1.00
C575   C     0.81241   0.81722   0.79800   0.00000  Uiso   1.00
H576   H     0.79984   0.03956   0.84706   0.00000  Uiso   1.00
H577   H     0.79834   0.10344   0.66978   0.00000  Uiso   1.00
H578   H     0.81972   0.08641   0.01681   0.00000  Uiso   1.00
H579   H     0.77577   0.93767   0.86340   0.00000  Uiso   1.00
H580   H     0.80569   0.16033   0.45947   0.00000  Uiso   1.00
H581   H     0.85075   0.12442   0.19123   0.00000  Uiso   1.00
H582   H     0.75807   0.81077   0.86776   0.00000  Uiso   1.00
H583   H     0.86918   0.93216   0.74103   0.00000  Uiso   1.00
H584   H     0.87148   0.99014   0.55791   0.00000  Uiso   1.00
H585   H     0.89286   0.97312   0.90495   0.00000  Uiso   1.00
H586   H     0.84891   0.82438   0.75155   0.00000  Uiso   1.00
H587   H     0.86505   0.06838   0.36868   0.00000  Uiso   1.00
H588   H     0.91011   0.03247   0.10045   0.00000  Uiso   1.00
H589   H     0.81743   0.71882   0.77697   0.00000  Uiso   1.00
O590   O     0.83564   0.15446   0.29555   0.00000  Uiso   1.00
O591   O     0.89476   0.10733   0.25560   0.00000  Uiso   1.00
O592   O     0.77316   0.69583   0.83120   0.00000  Uiso   1.00
N593   N     0.81934   0.13073   0.46323   0.00000  Uiso   1.00
N594   N     0.86147   0.09716   0.14737   0.00000  Uiso   1.00
N595   N     0.77482   0.80392   0.84497   0.00000  Uiso   1.00
N596   N     0.85128   0.08125   0.41437   0.00000  Uiso   1.00
N597   N     0.89341   0.04768   0.09852   0.00000  Uiso   1.00
N598   N     0.80677   0.75444   0.79612   0.00000  Uiso   1.00
C599   C     0.81573   0.51495   0.32277   0.00000  Uiso   1.00
C600   C     0.82453   0.53476   0.21173   0.00000  Uiso   1.00
C601   C     0.81413   0.57898   0.14559   0.00000  Uiso   1.00
C602   C     0.82488   0.59050   0.04702   0.00000  Uiso   1.00
C603   C     0.83545   0.62609   0.87939   0.00000  Uiso   1.00
C604   C     0.83614   0.52552   0.40028   0.00000  Uiso   1.00
C605   C     0.83551   0.56196   0.49268   0.00000  Uiso   1.00
C606   C     0.85603   0.56569   0.55283   0.00000  Uiso   1.00
C607   C     0.88462   0.58689   0.67797   0.00000  Uiso   1.00
C608   C     0.81226   0.44470   0.31692   0.00000  Uiso   1.00
C609   C     0.79155   0.41319   0.33926   0.00000  Uiso   1.00
C610   C     0.79197   0.34888   0.32926   0.00000  Uiso   1.00
C611   C     0.78348   0.24461   0.32496   0.00000  Uiso   1.00
C612   C     0.85329   0.45676   0.26532   0.00000  Uiso   1.00
C613   C     0.84493   0.50315   0.18053   0.00000  Uiso   1.00
C614   C     0.85569   0.51460   0.08203   0.00000  Uiso   1.00
C615   C     0.84532   0.55884   0.01576   0.00000  Uiso   1.00
C616   C     0.85654   0.49391   0.36908   0.00000  Uiso   1.00
C617   C     0.87707   0.49759   0.42912   0.00000  Uiso   1.00
C618   C     0.87647   0.53403   0.52158   0.00000  Uiso   1.00
C619   C     0.83266   0.41310   0.28572   0.00000  Uiso   1.00
C620   C     0.83311   0.34882   0.27569   0.00000  Uiso   1.00
C621   C     0.81241   0.31722   0.29800   0.00000  Uiso   1.00
H622   H     0.79984   0.53956   0.34706   0.00000  Uiso   1.00
H623   H     0.79834   0.60344   0.16978   0.00000  Uiso   1.00
H624   H     0.81972   0.58641   0.51681   0.00000  Uiso   1.00
H625   H     0.77577   0.43767   0.36340   0.00000  Uiso   1.00
H626   H     0.80569   0.66033   0.95947   0.00000  Uiso   1.00
H627   H     0.85075   0.62442   0.69123   0.00000  Uiso   1.00
H628   H     0.75807   0.31077   0.36776   0.00000  Uiso   1.00
H629   H     0.86918   0.43216   0.24103   0.00000  Uiso   1.00
H630   H     0.87148   0.49014   0.05791   0.00000  Uiso   1.00
H631   H     0.89286   0.47312   0.40495   0.00000  Uiso   1.00
H632   H     0.84891   0.32438   0.25155   0.00000  Uiso   1.00
H633   H     0.86505   0.56838   0.86868   0.00000  Uiso   1.00
H634   H     0.91011   0.53247   0.60045   0.00000  Uiso   1.00
H635   H     0.81743   0.21882   0.27697   0.00000  Uiso   1.00
O636   O     0.83564   0.65446   0.79555   0.00000  Uiso   1.00
O637   O     0.89476   0.60733   0.75560   0.00000  Uiso   1.00
O638   O     0.77316   0.19583   0.33120   0.00000  Uiso   1.00
N639   N     0.81934   0.63073   0.96323   0.00000  Uiso   1.00
N640   N     0.86147   0.59716   0.64737   0.00000  Uiso   1.00
N641   N     0.77482   0.30392   0.34497   0.00000  Uiso   1.00
N642   N     0.85128   0.58125   0.91437   0.00000  Uiso   1.00
N643   N     0.89341   0.54768   0.59852   0.00000  Uiso   1.00
N644   N     0.80677   0.25444   0.29612   0.00000  Uiso   1.00
C645   C     0.31573   0.01495   0.32277   0.00000  Uiso   1.00
C646   C     0.32453   0.03476   0.21173   0.00000  Uiso   1.00
C647   C     0.31413   0.07898   0.14559   0.00000  Uiso   1.00
C648   C     0.32488   0.09050   0.04702   0.00000  Uiso   1.00
C649   C     0.33545   0.12609   0.87939   0.00000  Uiso   1.00
C650   C     0.33614   0.02552   0.40028   0.00000  Uiso   1.00
C651   C     0.33551   0.06196   0.49268   0.00000  Uiso   1.00
C652   C     0.35603   0.06569   0.55283   0.00000  Uiso   1.00
C653   C     0.38462   0.08689   0.67797   0.00000  Uiso   1.00
C654   C     0.31226   0.94470   0.31692   0.00000  Uiso   1.00
C655   C     0.29155   0.91319   0.33926   0.00000  Uiso   1.00
C656   C     0.29197   0.84888   0.32926   0.00000  Uiso   1.00
C657   C     0.28348   0.74461   0.32496   0.00000  Uiso   1.00
C658   C     0.35329   0.95676   0.26532   0.00000  Uiso   1.00
C659   C     0.34493   0.00315   0.18053   0.00000  Uiso   1.00
C660   C     0.35569   0.01460   0.08203   0.00000  Uiso   1.00
C661   C     0.34532   0.05884   0.01576   0.00000  Uiso   1.00
C662   C     0.35654   0.99391   0.36908   0.00000  Uiso   1.00
C663   C     0.37707   0.99759   0.42912   0.00000  Uiso   1.00
C664   C     0.37647   0.03403   0.52158   0.00000  Uiso   1.00
C665   C     0.33266   0.91310   0.28572   0.00000  Uiso   1.00
C666   C     0.33311   0.84882   0.27569   0.00000  Uiso   1.00
C667   C     0.31241   0.81722   0.29800   0.00000  Uiso   1.00
H668   H     0.29984   0.03956   0.34706   0.00000  Uiso   1.00
H669   H     0.29834   0.10344   0.16978   0.00000  Uiso   1.00
H670   H     0.31972   0.08641   0.51681   0.00000  Uiso   1.00
H671   H     0.27577   0.93767   0.36340   0.00000  Uiso   1.00
H672   H     0.30569   0.16033   0.95947   0.00000  Uiso   1.00
H673   H     0.35075   0.12442   0.69123   0.00000  Uiso   1.00
H674   H     0.25807   0.81077   0.36776   0.00000  Uiso   1.00
H675   H     0.36918   0.93216   0.24103   0.00000  Uiso   1.00
H676   H     0.37148   0.99014   0.05791   0.00000  Uiso   1.00
H677   H     0.39286   0.97312   0.40495   0.00000  Uiso   1.00
H678   H     0.34891   0.82438   0.25155   0.00000  Uiso   1.00
H679   H     0.36505   0.06838   0.86868   0.00000  Uiso   1.00
H680   H     0.41011   0.03247   0.60045   0.00000  Uiso   1.00
H681   H     0.31743   0.71882   0.27697   0.00000  Uiso   1.00
O682   O     0.33564   0.15446   0.79555   0.00000  Uiso   1.00
O683   O     0.39476   0.10733   0.75560   0.00000  Uiso   1.00
O684   O     0.27316   0.69583   0.33120   0.00000  Uiso   1.00
N685   N     0.31934   0.13073   0.96323   0.00000  Uiso   1.00
N686   N     0.36147   0.09716   0.64737   0.00000  Uiso   1.00
N687   N     0.27482   0.80392   0.34497   0.00000  Uiso   1.00
N688   N     0.35128   0.08125   0.91437   0.00000  Uiso   1.00
N689   N     0.39341   0.04768   0.59852   0.00000  Uiso   1.00
N690   N     0.30677   0.75444   0.29612   0.00000  Uiso   1.00
C691   C     0.31573   0.51495   0.82277   0.00000  Uiso   1.00
C692   C     0.32453   0.53476   0.71173   0.00000  Uiso   1.00
C693   C     0.31413   0.57898   0.64559   0.00000  Uiso   1.00
C694   C     0.32488   0.59050   0.54702   0.00000  Uiso   1.00
C695   C     0.33545   0.62609   0.37939   0.00000  Uiso   1.00
C696   C     0.33614   0.52552   0.90028   0.00000  Uiso   1.00
C697   C     0.33551   0.56196   0.99268   0.00000  Uiso   1.00
C698   C     0.35603   0.56569   0.05283   0.00000  Uiso   1.00
C699   C     0.38462   0.58689   0.17797   0.00000  Uiso   1.00
C700   C     0.31226   0.44470   0.81692   0.00000  Uiso   1.00
C701   C     0.29155   0.41319   0.83926   0.00000  Uiso   1.00
C702   C     0.29197   0.34888   0.82926   0.00000  Uiso   1.00
C703   C     0.28348   0.24461   0.82496   0.00000  Uiso   1.00
C704   C     0.35329   0.45676   0.76532   0.00000  Uiso   1.00
C705   C     0.34493   0.50315   0.68053   0.00000  Uiso   1.00
C706   C     0.35569   0.51460   0.58203   0.00000  Uiso   1.00
C707   C     0.34532   0.55884   0.51576   0.00000  Uiso   1.00
C708   C     0.35654   0.49391   0.86908   0.00000  Uiso   1.00
C709   C     0.37707   0.49759   0.92912   0.00000  Uiso   1.00
C710   C     0.37647   0.53403   0.02158   0.00000  Uiso   1.00
C711   C     0.33266   0.41310   0.78572   0.00000  Uiso   1.00
C712   C     0.33311   0.34882   0.77569   0.00000  Uiso   1.00
C713   C     0.31241   0.31722   0.79800   0.00000  Uiso   1.00
H714   H     0.29984   0.53956   0.84706   0.00000  Uiso   1.00
H715   H     0.29834   0.60344   0.66978   0.00000  Uiso   1.00
H716   H     0.31972   0.58641   0.01681   0.00000  Uiso   1.00
H717   H     0.27577   0.43767   0.86340   0.00000  Uiso   1.00
H718   H     0.30569   0.66033   0.45947   0.00000  Uiso   1.00
H719   H     0.35075   0.62442   0.19123   0.00000  Uiso   1.00
H720   H     0.25807   0.31077   0.86776   0.00000  Uiso   1.00
H721   H     0.36918   0.43216   0.74103   0.00000  Uiso   1.00
H722   H     0.37148   0.49014   0.55791   0.00000  Uiso   1.00
H723   H     0.39286   0.47312   0.90495   0.00000  Uiso   1.00
H724   H     0.34891   0.32438   0.75155   0.00000  Uiso   1.00
H725   H     0.36505   0.56838   0.36868   0.00000  Uiso   1.00
H726   H     0.41011   0.53247   0.10045   0.00000  Uiso   1.00
H727   H     0.31743   0.21882   0.77697   0.00000  Uiso   1.00
O728   O     0.33564   0.65446   0.29555   0.00000  Uiso   1.00
O729   O     0.39476   0.60733   0.25560   0.00000  Uiso   1.00
O730   O     0.27316   0.19583   0.83120   0.00000  Uiso   1.00
N731   N     0.31934   0.63073   0.46323   0.00000  Uiso   1.00
N732   N     0.36147   0.59716   0.14737   0.00000  Uiso   1.00
N733   N     0.27482   0.30392   0.84497   0.00000  Uiso   1.00
N734   N     0.35128   0.58125   0.41437   0.00000  Uiso   1.00
N735   N     0.39341   0.54768   0.09852   0.00000  Uiso   1.00
N736   N     0.30677   0.25444   0.79612   0.00000  Uiso   1.00
