data_job_05387
_audit_creation_date              2018-12-19
_audit_creation_method            'Materials Studio'
_symmetry_space_group_name_H-M    'P1'
_symmetry_Int_Tables_number       1
_symmetry_cell_setting            triclinic
loop_
_symmetry_equiv_pos_as_xyz
  x,y,z
_cell_length_a                    29.3697
_cell_length_b                    32.1842
_cell_length_c                    10.2122
_cell_angle_alpha                 90.0000
_cell_angle_beta                  90.0000
_cell_angle_gamma                 90.0000
loop_
_atom_site_label
_atom_site_type_symbol
_atom_site_fract_x
_atom_site_fract_y
_atom_site_fract_z
_atom_site_U_iso_or_equiv
_atom_site_adp_type
_atom_site_occupancy
C1     C     0.61034   0.56612   0.83207   0.00000  Uiso   1.00
C2     C     0.63281   0.60832   0.85287   0.00000  Uiso   1.00
C3     C     0.63552   0.63996   0.76088   0.00000  Uiso   1.00
C4     C     0.65748   0.67621   0.79891   0.00000  Uiso   1.00
C5     C     0.68957   0.74106   0.81210   0.00000  Uiso   1.00
C6     C     0.64685   0.53377   0.86168   0.00000  Uiso   1.00
C7     C     0.66136   0.50272   0.77709   0.00000  Uiso   1.00
C8     C     0.69513   0.47621   0.82256   0.00000  Uiso   1.00
C9     C     0.74899   0.42529   0.84945   0.00000  Uiso   1.00
C10    C     0.57479   0.56183   0.94004   0.00000  Uiso   1.00
C11    C     0.52870   0.55436   0.92134   0.00000  Uiso   1.00
C12    C     0.50181   0.55145   0.03278   0.00000  Uiso   1.00
C13    C     0.44378   0.54410   0.18133   0.00000  Uiso   1.00
C14    C     0.64452   0.57423   0.06321   0.00000  Uiso   1.00
C15    C     0.65138   0.61272   0.97842   0.00000  Uiso   1.00
C16    C     0.67333   0.64893   0.01661   0.00000  Uiso   1.00
C17    C     0.67608   0.68062   0.92469   0.00000  Uiso   1.00
C18    C     0.66541   0.53817   0.98722   0.00000  Uiso   1.00
C19    C     0.69917   0.51169   0.03283   0.00000  Uiso   1.00
C20    C     0.71373   0.48062   0.94833   0.00000  Uiso   1.00
C21    C     0.59335   0.56623   0.06559   0.00000  Uiso   1.00
C22    C     0.56652   0.56333   0.17707   0.00000  Uiso   1.00
C23    C     0.52040   0.55586   0.15855   0.00000  Uiso   1.00
H24    H     0.59589   0.56269   0.73432   0.00000  Uiso   1.00
H25    H     0.62115   0.63654   0.66372   0.00000  Uiso   1.00
H26    H     0.64698   0.49932   0.67995   0.00000  Uiso   1.00
H27    H     0.51435   0.55095   0.82417   0.00000  Uiso   1.00
H28    H     0.65736   0.72035   0.64081   0.00000  Uiso   1.00
H29    H     0.71181   0.43101   0.67503   0.00000  Uiso   1.00
H30    H     0.43213   0.53988   0.97915   0.00000  Uiso   1.00
H31    H     0.65897   0.57765   0.16096   0.00000  Uiso   1.00
H32    H     0.68770   0.65233   0.11377   0.00000  Uiso   1.00
H33    H     0.71353   0.51511   0.12999   0.00000  Uiso   1.00
H34    H     0.58090   0.56674   0.27421   0.00000  Uiso   1.00
H35    H     0.71138   0.73317   0.00608   0.00000  Uiso   1.00
H36    H     0.76583   0.44382   0.04030   0.00000  Uiso   1.00
H37    H     0.48615   0.55270   0.34442   0.00000  Uiso   1.00
O38    O     0.70214   0.77561   0.78469   0.00000  Uiso   1.00
O39    O     0.77357   0.39599   0.82959   0.00000  Uiso   1.00
O40    O     0.40664   0.53884   0.22860   0.00000  Uiso   1.00
N41    N     0.66612   0.71313   0.73326   0.00000  Uiso   1.00
N42    N     0.71704   0.44261   0.76524   0.00000  Uiso   1.00
N43    N     0.45556   0.54438   0.04958   0.00000  Uiso   1.00
N44    N     0.69519   0.72002   0.92981   0.00000  Uiso   1.00
N45    N     0.74610   0.44950   0.96179   0.00000  Uiso   1.00
N46    N     0.48463   0.55128   0.24613   0.00000  Uiso   1.00
C47    C     0.61034   0.06612   0.33207   0.00000  Uiso   1.00
C48    C     0.63281   0.10832   0.35287   0.00000  Uiso   1.00
C49    C     0.63552   0.13996   0.26088   0.00000  Uiso   1.00
C50    C     0.65748   0.17621   0.29891   0.00000  Uiso   1.00
C51    C     0.68957   0.24106   0.31210   0.00000  Uiso   1.00
C52    C     0.64685   0.03377   0.36168   0.00000  Uiso   1.00
C53    C     0.66136   0.00272   0.27709   0.00000  Uiso   1.00
C54    C     0.69513   0.97621   0.32256   0.00000  Uiso   1.00
C55    C     0.74899   0.92529   0.34945   0.00000  Uiso   1.00
C56    C     0.57479   0.06183   0.44004   0.00000  Uiso   1.00
C57    C     0.52870   0.05436   0.42134   0.00000  Uiso   1.00
C58    C     0.50181   0.05145   0.53278   0.00000  Uiso   1.00
C59    C     0.44378   0.04410   0.68133   0.00000  Uiso   1.00
C60    C     0.64452   0.07423   0.56321   0.00000  Uiso   1.00
C61    C     0.65138   0.11272   0.47842   0.00000  Uiso   1.00
C62    C     0.67333   0.14893   0.51661   0.00000  Uiso   1.00
C63    C     0.67608   0.18062   0.42469   0.00000  Uiso   1.00
C64    C     0.66541   0.03817   0.48722   0.00000  Uiso   1.00
C65    C     0.69917   0.01169   0.53283   0.00000  Uiso   1.00
C66    C     0.71373   0.98062   0.44833   0.00000  Uiso   1.00
C67    C     0.59335   0.06623   0.56559   0.00000  Uiso   1.00
C68    C     0.56652   0.06333   0.67707   0.00000  Uiso   1.00
C69    C     0.52040   0.05586   0.65855   0.00000  Uiso   1.00
H70    H     0.59589   0.06269   0.23432   0.00000  Uiso   1.00
H71    H     0.62115   0.13654   0.16372   0.00000  Uiso   1.00
H72    H     0.64698   0.99932   0.17995   0.00000  Uiso   1.00
H73    H     0.51435   0.05095   0.32417   0.00000  Uiso   1.00
H74    H     0.65736   0.22035   0.14081   0.00000  Uiso   1.00
H75    H     0.71181   0.93101   0.17503   0.00000  Uiso   1.00
H76    H     0.43213   0.03988   0.47915   0.00000  Uiso   1.00
H77    H     0.65897   0.07765   0.66096   0.00000  Uiso   1.00
H78    H     0.68770   0.15233   0.61377   0.00000  Uiso   1.00
H79    H     0.71353   0.01511   0.62999   0.00000  Uiso   1.00
H80    H     0.58090   0.06674   0.77421   0.00000  Uiso   1.00
H81    H     0.71138   0.23317   0.50608   0.00000  Uiso   1.00
H82    H     0.76583   0.94382   0.54030   0.00000  Uiso   1.00
H83    H     0.48615   0.05270   0.84442   0.00000  Uiso   1.00
O84    O     0.70214   0.27561   0.28469   0.00000  Uiso   1.00
O85    O     0.77357   0.89599   0.32959   0.00000  Uiso   1.00
O86    O     0.40664   0.03884   0.72860   0.00000  Uiso   1.00
N87    N     0.66612   0.21313   0.23326   0.00000  Uiso   1.00
N88    N     0.71704   0.94261   0.26524   0.00000  Uiso   1.00
N89    N     0.45556   0.04438   0.54958   0.00000  Uiso   1.00
N90    N     0.69519   0.22002   0.42981   0.00000  Uiso   1.00
N91    N     0.74610   0.94950   0.46179   0.00000  Uiso   1.00
N92    N     0.48463   0.05128   0.74613   0.00000  Uiso   1.00
C93    C     0.11034   0.56612   0.33207   0.00000  Uiso   1.00
C94    C     0.13281   0.60832   0.35287   0.00000  Uiso   1.00
C95    C     0.13552   0.63996   0.26088   0.00000  Uiso   1.00
C96    C     0.15748   0.67621   0.29891   0.00000  Uiso   1.00
C97    C     0.18957   0.74106   0.31210   0.00000  Uiso   1.00
C98    C     0.14685   0.53377   0.36168   0.00000  Uiso   1.00
C99    C     0.16136   0.50272   0.27709   0.00000  Uiso   1.00
C100   C     0.19513   0.47621   0.32256   0.00000  Uiso   1.00
C101   C     0.24899   0.42529   0.34945   0.00000  Uiso   1.00
C102   C     0.07479   0.56183   0.44004   0.00000  Uiso   1.00
C103   C     0.02870   0.55436   0.42134   0.00000  Uiso   1.00
C104   C     0.00181   0.55145   0.53278   0.00000  Uiso   1.00
C105   C     0.94378   0.54410   0.68133   0.00000  Uiso   1.00
C106   C     0.14452   0.57423   0.56321   0.00000  Uiso   1.00
C107   C     0.15138   0.61272   0.47842   0.00000  Uiso   1.00
C108   C     0.17333   0.64893   0.51661   0.00000  Uiso   1.00
C109   C     0.17608   0.68062   0.42469   0.00000  Uiso   1.00
C110   C     0.16541   0.53817   0.48722   0.00000  Uiso   1.00
C111   C     0.19917   0.51169   0.53283   0.00000  Uiso   1.00
C112   C     0.21373   0.48062   0.44833   0.00000  Uiso   1.00
C113   C     0.09335   0.56623   0.56559   0.00000  Uiso   1.00
C114   C     0.06652   0.56333   0.67707   0.00000  Uiso   1.00
C115   C     0.02040   0.55586   0.65855   0.00000  Uiso   1.00
H116   H     0.09589   0.56269   0.23432   0.00000  Uiso   1.00
H117   H     0.12115   0.63654   0.16372   0.00000  Uiso   1.00
H118   H     0.14698   0.49932   0.17995   0.00000  Uiso   1.00
H119   H     0.01435   0.55095   0.32417   0.00000  Uiso   1.00
H120   H     0.15736   0.72035   0.14081   0.00000  Uiso   1.00
H121   H     0.21181   0.43101   0.17503   0.00000  Uiso   1.00
H122   H     0.93213   0.53988   0.47915   0.00000  Uiso   1.00
H123   H     0.15897   0.57765   0.66096   0.00000  Uiso   1.00
H124   H     0.18770   0.65233   0.61377   0.00000  Uiso   1.00
H125   H     0.21353   0.51511   0.62999   0.00000  Uiso   1.00
H126   H     0.08090   0.56674   0.77421   0.00000  Uiso   1.00
H127   H     0.21138   0.73317   0.50608   0.00000  Uiso   1.00
H128   H     0.26583   0.44382   0.54030   0.00000  Uiso   1.00
H129   H     0.98615   0.55270   0.84442   0.00000  Uiso   1.00
O130   O     0.20214   0.77561   0.28469   0.00000  Uiso   1.00
O131   O     0.27357   0.39599   0.32959   0.00000  Uiso   1.00
O132   O     0.90664   0.53884   0.72860   0.00000  Uiso   1.00
N133   N     0.16612   0.71313   0.23326   0.00000  Uiso   1.00
N134   N     0.21704   0.44261   0.26524   0.00000  Uiso   1.00
N135   N     0.95556   0.54438   0.54958   0.00000  Uiso   1.00
N136   N     0.19519   0.72002   0.42981   0.00000  Uiso   1.00
N137   N     0.24610   0.44950   0.46179   0.00000  Uiso   1.00
N138   N     0.98463   0.55128   0.74613   0.00000  Uiso   1.00
C139   C     0.11034   0.06612   0.83207   0.00000  Uiso   1.00
C140   C     0.13281   0.10832   0.85287   0.00000  Uiso   1.00
C141   C     0.13552   0.13996   0.76088   0.00000  Uiso   1.00
C142   C     0.15748   0.17621   0.79891   0.00000  Uiso   1.00
C143   C     0.18957   0.24106   0.81210   0.00000  Uiso   1.00
C144   C     0.14685   0.03377   0.86168   0.00000  Uiso   1.00
C145   C     0.16136   0.00272   0.77709   0.00000  Uiso   1.00
C146   C     0.19513   0.97621   0.82256   0.00000  Uiso   1.00
C147   C     0.24899   0.92529   0.84945   0.00000  Uiso   1.00
C148   C     0.07479   0.06183   0.94004   0.00000  Uiso   1.00
C149   C     0.02870   0.05436   0.92134   0.00000  Uiso   1.00
C150   C     0.00181   0.05145   0.03278   0.00000  Uiso   1.00
C151   C     0.94378   0.04410   0.18133   0.00000  Uiso   1.00
C152   C     0.14452   0.07423   0.06321   0.00000  Uiso   1.00
C153   C     0.15138   0.11272   0.97842   0.00000  Uiso   1.00
C154   C     0.17333   0.14893   0.01661   0.00000  Uiso   1.00
C155   C     0.17608   0.18062   0.92469   0.00000  Uiso   1.00
C156   C     0.16541   0.03817   0.98722   0.00000  Uiso   1.00
C157   C     0.19917   0.01169   0.03283   0.00000  Uiso   1.00
C158   C     0.21373   0.98062   0.94833   0.00000  Uiso   1.00
C159   C     0.09335   0.06623   0.06559   0.00000  Uiso   1.00
C160   C     0.06652   0.06333   0.17707   0.00000  Uiso   1.00
C161   C     0.02040   0.05586   0.15855   0.00000  Uiso   1.00
H162   H     0.09589   0.06269   0.73432   0.00000  Uiso   1.00
H163   H     0.12115   0.13654   0.66372   0.00000  Uiso   1.00
H164   H     0.14698   0.99932   0.67995   0.00000  Uiso   1.00
H165   H     0.01435   0.05095   0.82417   0.00000  Uiso   1.00
H166   H     0.15736   0.22035   0.64081   0.00000  Uiso   1.00
H167   H     0.21181   0.93101   0.67503   0.00000  Uiso   1.00
H168   H     0.93213   0.03988   0.97915   0.00000  Uiso   1.00
H169   H     0.15897   0.07765   0.16096   0.00000  Uiso   1.00
H170   H     0.18770   0.15233   0.11377   0.00000  Uiso   1.00
H171   H     0.21353   0.01511   0.12999   0.00000  Uiso   1.00
H172   H     0.08090   0.06674   0.27421   0.00000  Uiso   1.00
H173   H     0.21138   0.23317   0.00608   0.00000  Uiso   1.00
H174   H     0.26583   0.94382   0.04030   0.00000  Uiso   1.00
H175   H     0.98615   0.05270   0.34442   0.00000  Uiso   1.00
O176   O     0.20214   0.27561   0.78469   0.00000  Uiso   1.00
O177   O     0.27357   0.89599   0.82959   0.00000  Uiso   1.00
O178   O     0.90664   0.03884   0.22860   0.00000  Uiso   1.00
N179   N     0.16612   0.21313   0.73326   0.00000  Uiso   1.00
N180   N     0.21704   0.94261   0.76524   0.00000  Uiso   1.00
N181   N     0.95556   0.04438   0.04958   0.00000  Uiso   1.00
N182   N     0.19519   0.22002   0.92981   0.00000  Uiso   1.00
N183   N     0.24610   0.94950   0.96179   0.00000  Uiso   1.00
N184   N     0.98463   0.05128   0.24613   0.00000  Uiso   1.00
C185   C     0.38966   0.43388   0.83207   0.00000  Uiso   1.00
C186   C     0.36719   0.39168   0.85287   0.00000  Uiso   1.00
C187   C     0.36448   0.36004   0.76088   0.00000  Uiso   1.00
C188   C     0.34252   0.32379   0.79891   0.00000  Uiso   1.00
C189   C     0.31043   0.25894   0.81210   0.00000  Uiso   1.00
C190   C     0.35315   0.46623   0.86168   0.00000  Uiso   1.00
C191   C     0.33864   0.49728   0.77709   0.00000  Uiso   1.00
C192   C     0.30487   0.52379   0.82256   0.00000  Uiso   1.00
C193   C     0.25101   0.57471   0.84945   0.00000  Uiso   1.00
C194   C     0.42521   0.43817   0.94004   0.00000  Uiso   1.00
C195   C     0.47130   0.44564   0.92134   0.00000  Uiso   1.00
C196   C     0.49819   0.44855   0.03278   0.00000  Uiso   1.00
C197   C     0.55622   0.45590   0.18133   0.00000  Uiso   1.00
C198   C     0.35548   0.42577   0.06321   0.00000  Uiso   1.00
C199   C     0.34862   0.38728   0.97842   0.00000  Uiso   1.00
C200   C     0.32667   0.35107   0.01661   0.00000  Uiso   1.00
C201   C     0.32392   0.31938   0.92469   0.00000  Uiso   1.00
C202   C     0.33459   0.46183   0.98722   0.00000  Uiso   1.00
C203   C     0.30083   0.48831   0.03283   0.00000  Uiso   1.00
C204   C     0.28627   0.51938   0.94833   0.00000  Uiso   1.00
C205   C     0.40665   0.43377   0.06559   0.00000  Uiso   1.00
C206   C     0.43348   0.43667   0.17707   0.00000  Uiso   1.00
C207   C     0.47960   0.44414   0.15855   0.00000  Uiso   1.00
H208   H     0.40411   0.43731   0.73432   0.00000  Uiso   1.00
H209   H     0.37885   0.36346   0.66372   0.00000  Uiso   1.00
H210   H     0.35302   0.50068   0.67995   0.00000  Uiso   1.00
H211   H     0.48565   0.44905   0.82417   0.00000  Uiso   1.00
H212   H     0.34264   0.27965   0.64081   0.00000  Uiso   1.00
H213   H     0.28819   0.56899   0.67503   0.00000  Uiso   1.00
H214   H     0.56787   0.46012   0.97915   0.00000  Uiso   1.00
H215   H     0.34103   0.42235   0.16096   0.00000  Uiso   1.00
H216   H     0.31230   0.34767   0.11377   0.00000  Uiso   1.00
H217   H     0.28647   0.48489   0.12999   0.00000  Uiso   1.00
H218   H     0.41910   0.43326   0.27421   0.00000  Uiso   1.00
H219   H     0.28862   0.26683   0.00608   0.00000  Uiso   1.00
H220   H     0.23417   0.55618   0.04030   0.00000  Uiso   1.00
H221   H     0.51385   0.44730   0.34442   0.00000  Uiso   1.00
O222   O     0.29786   0.22439   0.78469   0.00000  Uiso   1.00
O223   O     0.22643   0.60401   0.82959   0.00000  Uiso   1.00
O224   O     0.59336   0.46116   0.22860   0.00000  Uiso   1.00
N225   N     0.33388   0.28687   0.73326   0.00000  Uiso   1.00
N226   N     0.28296   0.55739   0.76524   0.00000  Uiso   1.00
N227   N     0.54444   0.45562   0.04958   0.00000  Uiso   1.00
N228   N     0.30481   0.27998   0.92981   0.00000  Uiso   1.00
N229   N     0.25390   0.55050   0.96179   0.00000  Uiso   1.00
N230   N     0.51537   0.44872   0.24613   0.00000  Uiso   1.00
C231   C     0.38966   0.93388   0.33207   0.00000  Uiso   1.00
C232   C     0.36719   0.89168   0.35287   0.00000  Uiso   1.00
C233   C     0.36448   0.86004   0.26088   0.00000  Uiso   1.00
C234   C     0.34252   0.82379   0.29891   0.00000  Uiso   1.00
C235   C     0.31043   0.75894   0.31210   0.00000  Uiso   1.00
C236   C     0.35315   0.96623   0.36168   0.00000  Uiso   1.00
C237   C     0.33864   0.99728   0.27709   0.00000  Uiso   1.00
C238   C     0.30487   0.02379   0.32256   0.00000  Uiso   1.00
C239   C     0.25101   0.07471   0.34945   0.00000  Uiso   1.00
C240   C     0.42521   0.93817   0.44004   0.00000  Uiso   1.00
C241   C     0.47130   0.94564   0.42134   0.00000  Uiso   1.00
C242   C     0.49819   0.94855   0.53278   0.00000  Uiso   1.00
C243   C     0.55622   0.95590   0.68133   0.00000  Uiso   1.00
C244   C     0.35548   0.92577   0.56321   0.00000  Uiso   1.00
C245   C     0.34862   0.88728   0.47842   0.00000  Uiso   1.00
C246   C     0.32667   0.85107   0.51661   0.00000  Uiso   1.00
C247   C     0.32392   0.81938   0.42469   0.00000  Uiso   1.00
C248   C     0.33459   0.96183   0.48722   0.00000  Uiso   1.00
C249   C     0.30083   0.98831   0.53283   0.00000  Uiso   1.00
C250   C     0.28627   0.01938   0.44833   0.00000  Uiso   1.00
C251   C     0.40665   0.93377   0.56559   0.00000  Uiso   1.00
C252   C     0.43348   0.93667   0.67707   0.00000  Uiso   1.00
C253   C     0.47960   0.94414   0.65855   0.00000  Uiso   1.00
H254   H     0.40411   0.93731   0.23432   0.00000  Uiso   1.00
H255   H     0.37885   0.86346   0.16372   0.00000  Uiso   1.00
H256   H     0.35302   0.00068   0.17995   0.00000  Uiso   1.00
H257   H     0.48565   0.94905   0.32417   0.00000  Uiso   1.00
H258   H     0.34264   0.77965   0.14081   0.00000  Uiso   1.00
H259   H     0.28819   0.06899   0.17503   0.00000  Uiso   1.00
H260   H     0.56787   0.96012   0.47915   0.00000  Uiso   1.00
H261   H     0.34103   0.92235   0.66096   0.00000  Uiso   1.00
H262   H     0.31230   0.84767   0.61377   0.00000  Uiso   1.00
H263   H     0.28647   0.98489   0.62999   0.00000  Uiso   1.00
H264   H     0.41910   0.93326   0.77421   0.00000  Uiso   1.00
H265   H     0.28862   0.76683   0.50608   0.00000  Uiso   1.00
H266   H     0.23417   0.05618   0.54030   0.00000  Uiso   1.00
H267   H     0.51385   0.94730   0.84442   0.00000  Uiso   1.00
O268   O     0.29786   0.72439   0.28469   0.00000  Uiso   1.00
O269   O     0.22643   0.10401   0.32959   0.00000  Uiso   1.00
O270   O     0.59336   0.96116   0.72860   0.00000  Uiso   1.00
N271   N     0.33388   0.78687   0.23326   0.00000  Uiso   1.00
N272   N     0.28296   0.05739   0.26524   0.00000  Uiso   1.00
N273   N     0.54444   0.95562   0.54958   0.00000  Uiso   1.00
N274   N     0.30481   0.77998   0.42981   0.00000  Uiso   1.00
N275   N     0.25390   0.05050   0.46179   0.00000  Uiso   1.00
N276   N     0.51537   0.94872   0.74613   0.00000  Uiso   1.00
C277   C     0.88966   0.43388   0.33207   0.00000  Uiso   1.00
C278   C     0.86719   0.39168   0.35287   0.00000  Uiso   1.00
C279   C     0.86448   0.36004   0.26088   0.00000  Uiso   1.00
C280   C     0.84252   0.32379   0.29891   0.00000  Uiso   1.00
C281   C     0.81043   0.25894   0.31210   0.00000  Uiso   1.00
C282   C     0.85315   0.46623   0.36168   0.00000  Uiso   1.00
C283   C     0.83864   0.49728   0.27709   0.00000  Uiso   1.00
C284   C     0.80487   0.52379   0.32256   0.00000  Uiso   1.00
C285   C     0.75101   0.57471   0.34945   0.00000  Uiso   1.00
C286   C     0.92521   0.43817   0.44004   0.00000  Uiso   1.00
C287   C     0.97130   0.44564   0.42134   0.00000  Uiso   1.00
C288   C     0.99819   0.44855   0.53278   0.00000  Uiso   1.00
C289   C     0.05622   0.45590   0.68133   0.00000  Uiso   1.00
C290   C     0.85548   0.42577   0.56321   0.00000  Uiso   1.00
C291   C     0.84862   0.38728   0.47842   0.00000  Uiso   1.00
C292   C     0.82667   0.35107   0.51661   0.00000  Uiso   1.00
C293   C     0.82392   0.31938   0.42469   0.00000  Uiso   1.00
C294   C     0.83459   0.46183   0.48722   0.00000  Uiso   1.00
C295   C     0.80083   0.48831   0.53283   0.00000  Uiso   1.00
C296   C     0.78627   0.51938   0.44833   0.00000  Uiso   1.00
C297   C     0.90665   0.43377   0.56559   0.00000  Uiso   1.00
C298   C     0.93348   0.43667   0.67707   0.00000  Uiso   1.00
C299   C     0.97960   0.44414   0.65855   0.00000  Uiso   1.00
H300   H     0.90411   0.43731   0.23432   0.00000  Uiso   1.00
H301   H     0.87885   0.36346   0.16372   0.00000  Uiso   1.00
H302   H     0.85302   0.50068   0.17995   0.00000  Uiso   1.00
H303   H     0.98565   0.44905   0.32417   0.00000  Uiso   1.00
H304   H     0.84264   0.27965   0.14081   0.00000  Uiso   1.00
H305   H     0.78819   0.56899   0.17503   0.00000  Uiso   1.00
H306   H     0.06787   0.46012   0.47915   0.00000  Uiso   1.00
H307   H     0.84103   0.42235   0.66096   0.00000  Uiso   1.00
H308   H     0.81230   0.34767   0.61377   0.00000  Uiso   1.00
H309   H     0.78647   0.48489   0.62999   0.00000  Uiso   1.00
H310   H     0.91910   0.43326   0.77421   0.00000  Uiso   1.00
H311   H     0.78862   0.26683   0.50608   0.00000  Uiso   1.00
H312   H     0.73417   0.55618   0.54030   0.00000  Uiso   1.00
H313   H     0.01385   0.44730   0.84442   0.00000  Uiso   1.00
O314   O     0.79786   0.22439   0.28469   0.00000  Uiso   1.00
O315   O     0.72643   0.60401   0.32959   0.00000  Uiso   1.00
O316   O     0.09336   0.46116   0.72860   0.00000  Uiso   1.00
N317   N     0.83388   0.28687   0.23326   0.00000  Uiso   1.00
N318   N     0.78296   0.55739   0.26524   0.00000  Uiso   1.00
N319   N     0.04444   0.45562   0.54958   0.00000  Uiso   1.00
N320   N     0.80481   0.27998   0.42981   0.00000  Uiso   1.00
N321   N     0.75390   0.55050   0.46179   0.00000  Uiso   1.00
N322   N     0.01537   0.44872   0.74613   0.00000  Uiso   1.00
C323   C     0.88966   0.93388   0.83207   0.00000  Uiso   1.00
C324   C     0.86719   0.89168   0.85287   0.00000  Uiso   1.00
C325   C     0.86448   0.86004   0.76088   0.00000  Uiso   1.00
C326   C     0.84252   0.82379   0.79891   0.00000  Uiso   1.00
C327   C     0.81043   0.75894   0.81210   0.00000  Uiso   1.00
C328   C     0.85315   0.96623   0.86168   0.00000  Uiso   1.00
C329   C     0.83864   0.99728   0.77709   0.00000  Uiso   1.00
C330   C     0.80487   0.02379   0.82256   0.00000  Uiso   1.00
C331   C     0.75101   0.07471   0.84945   0.00000  Uiso   1.00
C332   C     0.92521   0.93817   0.94004   0.00000  Uiso   1.00
C333   C     0.97130   0.94564   0.92134   0.00000  Uiso   1.00
C334   C     0.99819   0.94855   0.03278   0.00000  Uiso   1.00
C335   C     0.05622   0.95590   0.18133   0.00000  Uiso   1.00
C336   C     0.85548   0.92577   0.06321   0.00000  Uiso   1.00
C337   C     0.84862   0.88728   0.97842   0.00000  Uiso   1.00
C338   C     0.82667   0.85107   0.01661   0.00000  Uiso   1.00
C339   C     0.82392   0.81938   0.92469   0.00000  Uiso   1.00
C340   C     0.83459   0.96183   0.98722   0.00000  Uiso   1.00
C341   C     0.80083   0.98831   0.03283   0.00000  Uiso   1.00
C342   C     0.78627   0.01938   0.94833   0.00000  Uiso   1.00
C343   C     0.90665   0.93377   0.06559   0.00000  Uiso   1.00
C344   C     0.93348   0.93667   0.17707   0.00000  Uiso   1.00
C345   C     0.97960   0.94414   0.15855   0.00000  Uiso   1.00
H346   H     0.90411   0.93731   0.73432   0.00000  Uiso   1.00
H347   H     0.87885   0.86346   0.66372   0.00000  Uiso   1.00
H348   H     0.85302   0.00068   0.67995   0.00000  Uiso   1.00
H349   H     0.98565   0.94905   0.82417   0.00000  Uiso   1.00
H350   H     0.84264   0.77965   0.64081   0.00000  Uiso   1.00
H351   H     0.78819   0.06899   0.67503   0.00000  Uiso   1.00
H352   H     0.06787   0.96012   0.97915   0.00000  Uiso   1.00
H353   H     0.84103   0.92235   0.16096   0.00000  Uiso   1.00
H354   H     0.81230   0.84767   0.11377   0.00000  Uiso   1.00
H355   H     0.78647   0.98489   0.12999   0.00000  Uiso   1.00
H356   H     0.91910   0.93326   0.27421   0.00000  Uiso   1.00
H357   H     0.78862   0.76683   0.00608   0.00000  Uiso   1.00
H358   H     0.73417   0.05618   0.04030   0.00000  Uiso   1.00
H359   H     0.01385   0.94730   0.34442   0.00000  Uiso   1.00
O360   O     0.79786   0.72439   0.78469   0.00000  Uiso   1.00
O361   O     0.72643   0.10401   0.82959   0.00000  Uiso   1.00
O362   O     0.09336   0.96116   0.22860   0.00000  Uiso   1.00
N363   N     0.83388   0.78687   0.73326   0.00000  Uiso   1.00
N364   N     0.78296   0.05739   0.76524   0.00000  Uiso   1.00
N365   N     0.04444   0.95562   0.04958   0.00000  Uiso   1.00
N366   N     0.80481   0.77998   0.92981   0.00000  Uiso   1.00
N367   N     0.75390   0.05050   0.96179   0.00000  Uiso   1.00
N368   N     0.01537   0.94872   0.24613   0.00000  Uiso   1.00
C369   C     0.86034   0.68388   0.08207   0.00000  Uiso   1.00
C370   C     0.88281   0.64168   0.10287   0.00000  Uiso   1.00
C371   C     0.88552   0.61004   0.01088   0.00000  Uiso   1.00
C372   C     0.90748   0.57379   0.04891   0.00000  Uiso   1.00
C373   C     0.93957   0.50894   0.06210   0.00000  Uiso   1.00
C374   C     0.89685   0.71623   0.11168   0.00000  Uiso   1.00
C375   C     0.91136   0.74728   0.02709   0.00000  Uiso   1.00
C376   C     0.94513   0.77379   0.07256   0.00000  Uiso   1.00
C377   C     0.99899   0.82471   0.09945   0.00000  Uiso   1.00
C378   C     0.82479   0.68817   0.19004   0.00000  Uiso   1.00
C379   C     0.77870   0.69564   0.17134   0.00000  Uiso   1.00
C380   C     0.75181   0.69855   0.28278   0.00000  Uiso   1.00
C381   C     0.69378   0.70590   0.43133   0.00000  Uiso   1.00
C382   C     0.89452   0.67577   0.31321   0.00000  Uiso   1.00
C383   C     0.90138   0.63728   0.22842   0.00000  Uiso   1.00
C384   C     0.92333   0.60107   0.26661   0.00000  Uiso   1.00
C385   C     0.92608   0.56938   0.17469   0.00000  Uiso   1.00
C386   C     0.91541   0.71183   0.23722   0.00000  Uiso   1.00
C387   C     0.94917   0.73831   0.28283   0.00000  Uiso   1.00
C388   C     0.96373   0.76938   0.19833   0.00000  Uiso   1.00
C389   C     0.84335   0.68377   0.31559   0.00000  Uiso   1.00
C390   C     0.81652   0.68667   0.42707   0.00000  Uiso   1.00
C391   C     0.77040   0.69414   0.40855   0.00000  Uiso   1.00
H392   H     0.84589   0.68731   0.98432   0.00000  Uiso   1.00
H393   H     0.87115   0.61346   0.91372   0.00000  Uiso   1.00
H394   H     0.89698   0.75068   0.92995   0.00000  Uiso   1.00
H395   H     0.76435   0.69905   0.07417   0.00000  Uiso   1.00
H396   H     0.90736   0.52965   0.89081   0.00000  Uiso   1.00
H397   H     0.96181   0.81899   0.92503   0.00000  Uiso   1.00
H398   H     0.68213   0.71012   0.22915   0.00000  Uiso   1.00
H399   H     0.90897   0.67235   0.41096   0.00000  Uiso   1.00
H400   H     0.93770   0.59767   0.36377   0.00000  Uiso   1.00
H401   H     0.96353   0.73489   0.37999   0.00000  Uiso   1.00
H402   H     0.83090   0.68326   0.52421   0.00000  Uiso   1.00
H403   H     0.96138   0.51683   0.25608   0.00000  Uiso   1.00
H404   H     0.01583   0.80618   0.29030   0.00000  Uiso   1.00
H405   H     0.73615   0.69730   0.59442   0.00000  Uiso   1.00
O406   O     0.95214   0.47439   0.03469   0.00000  Uiso   1.00
O407   O     0.02357   0.85401   0.07959   0.00000  Uiso   1.00
O408   O     0.65664   0.71116   0.47860   0.00000  Uiso   1.00
N409   N     0.91612   0.53687   0.98326   0.00000  Uiso   1.00
N410   N     0.96704   0.80739   0.01524   0.00000  Uiso   1.00
N411   N     0.70556   0.70562   0.29958   0.00000  Uiso   1.00
N412   N     0.94519   0.52998   0.17981   0.00000  Uiso   1.00
N413   N     0.99610   0.80050   0.21179   0.00000  Uiso   1.00
N414   N     0.73463   0.69872   0.49613   0.00000  Uiso   1.00
C415   C     0.86034   0.18388   0.58207   0.00000  Uiso   1.00
C416   C     0.88281   0.14168   0.60287   0.00000  Uiso   1.00
C417   C     0.88552   0.11004   0.51088   0.00000  Uiso   1.00
C418   C     0.90748   0.07379   0.54891   0.00000  Uiso   1.00
C419   C     0.93957   0.00894   0.56210   0.00000  Uiso   1.00
C420   C     0.89685   0.21623   0.61168   0.00000  Uiso   1.00
C421   C     0.91136   0.24728   0.52709   0.00000  Uiso   1.00
C422   C     0.94513   0.27379   0.57256   0.00000  Uiso   1.00
C423   C     0.99899   0.32471   0.59945   0.00000  Uiso   1.00
C424   C     0.82479   0.18817   0.69004   0.00000  Uiso   1.00
C425   C     0.77870   0.19564   0.67134   0.00000  Uiso   1.00
C426   C     0.75181   0.19855   0.78278   0.00000  Uiso   1.00
C427   C     0.69378   0.20590   0.93133   0.00000  Uiso   1.00
C428   C     0.89452   0.17577   0.81321   0.00000  Uiso   1.00
C429   C     0.90138   0.13728   0.72842   0.00000  Uiso   1.00
C430   C     0.92333   0.10107   0.76661   0.00000  Uiso   1.00
C431   C     0.92608   0.06938   0.67469   0.00000  Uiso   1.00
C432   C     0.91541   0.21183   0.73722   0.00000  Uiso   1.00
C433   C     0.94917   0.23831   0.78283   0.00000  Uiso   1.00
C434   C     0.96373   0.26938   0.69833   0.00000  Uiso   1.00
C435   C     0.84335   0.18377   0.81559   0.00000  Uiso   1.00
C436   C     0.81652   0.18667   0.92707   0.00000  Uiso   1.00
C437   C     0.77040   0.19414   0.90855   0.00000  Uiso   1.00
H438   H     0.84589   0.18731   0.48432   0.00000  Uiso   1.00
H439   H     0.87115   0.11346   0.41372   0.00000  Uiso   1.00
H440   H     0.89698   0.25068   0.42995   0.00000  Uiso   1.00
H441   H     0.76435   0.19905   0.57417   0.00000  Uiso   1.00
H442   H     0.90736   0.02965   0.39081   0.00000  Uiso   1.00
H443   H     0.96181   0.31899   0.42503   0.00000  Uiso   1.00
H444   H     0.68213   0.21012   0.72915   0.00000  Uiso   1.00
H445   H     0.90897   0.17235   0.91096   0.00000  Uiso   1.00
H446   H     0.93770   0.09767   0.86377   0.00000  Uiso   1.00
H447   H     0.96353   0.23489   0.87999   0.00000  Uiso   1.00
H448   H     0.83090   0.18326   0.02421   0.00000  Uiso   1.00
H449   H     0.96138   0.01683   0.75608   0.00000  Uiso   1.00
H450   H     0.01583   0.30618   0.79030   0.00000  Uiso   1.00
H451   H     0.73615   0.19730   0.09442   0.00000  Uiso   1.00
O452   O     0.95214   0.97439   0.53469   0.00000  Uiso   1.00
O453   O     0.02357   0.35401   0.57959   0.00000  Uiso   1.00
O454   O     0.65664   0.21116   0.97860   0.00000  Uiso   1.00
N455   N     0.91612   0.03687   0.48326   0.00000  Uiso   1.00
N456   N     0.96704   0.30739   0.51524   0.00000  Uiso   1.00
N457   N     0.70556   0.20562   0.79958   0.00000  Uiso   1.00
N458   N     0.94519   0.02998   0.67981   0.00000  Uiso   1.00
N459   N     0.99610   0.30050   0.71179   0.00000  Uiso   1.00
N460   N     0.73463   0.19872   0.99613   0.00000  Uiso   1.00
C461   C     0.36034   0.68388   0.58207   0.00000  Uiso   1.00
C462   C     0.38281   0.64168   0.60287   0.00000  Uiso   1.00
C463   C     0.38552   0.61004   0.51088   0.00000  Uiso   1.00
C464   C     0.40748   0.57379   0.54891   0.00000  Uiso   1.00
C465   C     0.43957   0.50894   0.56210   0.00000  Uiso   1.00
C466   C     0.39685   0.71623   0.61168   0.00000  Uiso   1.00
C467   C     0.41136   0.74728   0.52709   0.00000  Uiso   1.00
C468   C     0.44513   0.77379   0.57256   0.00000  Uiso   1.00
C469   C     0.49899   0.82471   0.59945   0.00000  Uiso   1.00
C470   C     0.32479   0.68817   0.69004   0.00000  Uiso   1.00
C471   C     0.27870   0.69564   0.67134   0.00000  Uiso   1.00
C472   C     0.25181   0.69855   0.78278   0.00000  Uiso   1.00
C473   C     0.19378   0.70590   0.93133   0.00000  Uiso   1.00
C474   C     0.39452   0.67577   0.81321   0.00000  Uiso   1.00
C475   C     0.40138   0.63728   0.72842   0.00000  Uiso   1.00
C476   C     0.42333   0.60107   0.76661   0.00000  Uiso   1.00
C477   C     0.42608   0.56938   0.67469   0.00000  Uiso   1.00
C478   C     0.41541   0.71183   0.73722   0.00000  Uiso   1.00
C479   C     0.44917   0.73831   0.78283   0.00000  Uiso   1.00
C480   C     0.46373   0.76938   0.69833   0.00000  Uiso   1.00
C481   C     0.34335   0.68377   0.81559   0.00000  Uiso   1.00
C482   C     0.31652   0.68667   0.92707   0.00000  Uiso   1.00
C483   C     0.27040   0.69414   0.90855   0.00000  Uiso   1.00
H484   H     0.34589   0.68731   0.48432   0.00000  Uiso   1.00
H485   H     0.37115   0.61346   0.41372   0.00000  Uiso   1.00
H486   H     0.39698   0.75068   0.42995   0.00000  Uiso   1.00
H487   H     0.26435   0.69905   0.57417   0.00000  Uiso   1.00
H488   H     0.40736   0.52965   0.39081   0.00000  Uiso   1.00
H489   H     0.46181   0.81899   0.42503   0.00000  Uiso   1.00
H490   H     0.18213   0.71012   0.72915   0.00000  Uiso   1.00
H491   H     0.40897   0.67235   0.91096   0.00000  Uiso   1.00
H492   H     0.43770   0.59767   0.86377   0.00000  Uiso   1.00
H493   H     0.46353   0.73489   0.87999   0.00000  Uiso   1.00
H494   H     0.33090   0.68326   0.02421   0.00000  Uiso   1.00
H495   H     0.46138   0.51683   0.75608   0.00000  Uiso   1.00
H496   H     0.51583   0.80618   0.79030   0.00000  Uiso   1.00
H497   H     0.23615   0.69730   0.09442   0.00000  Uiso   1.00
O498   O     0.45214   0.47439   0.53469   0.00000  Uiso   1.00
O499   O     0.52357   0.85401   0.57959   0.00000  Uiso   1.00
O500   O     0.15664   0.71116   0.97860   0.00000  Uiso   1.00
N501   N     0.41612   0.53687   0.48326   0.00000  Uiso   1.00
N502   N     0.46704   0.80739   0.51524   0.00000  Uiso   1.00
N503   N     0.20556   0.70562   0.79958   0.00000  Uiso   1.00
N504   N     0.44519   0.52998   0.67981   0.00000  Uiso   1.00
N505   N     0.49610   0.80050   0.71179   0.00000  Uiso   1.00
N506   N     0.23463   0.69872   0.99613   0.00000  Uiso   1.00
C507   C     0.36034   0.18388   0.08207   0.00000  Uiso   1.00
C508   C     0.38281   0.14168   0.10287   0.00000  Uiso   1.00
C509   C     0.38552   0.11004   0.01088   0.00000  Uiso   1.00
C510   C     0.40748   0.07379   0.04891   0.00000  Uiso   1.00
C511   C     0.43957   0.00894   0.06210   0.00000  Uiso   1.00
C512   C     0.39685   0.21623   0.11168   0.00000  Uiso   1.00
C513   C     0.41136   0.24728   0.02709   0.00000  Uiso   1.00
C514   C     0.44513   0.27379   0.07256   0.00000  Uiso   1.00
C515   C     0.49899   0.32471   0.09945   0.00000  Uiso   1.00
C516   C     0.32479   0.18817   0.19004   0.00000  Uiso   1.00
C517   C     0.27870   0.19564   0.17134   0.00000  Uiso   1.00
C518   C     0.25181   0.19855   0.28278   0.00000  Uiso   1.00
C519   C     0.19378   0.20590   0.43133   0.00000  Uiso   1.00
C520   C     0.39452   0.17577   0.31321   0.00000  Uiso   1.00
C521   C     0.40138   0.13728   0.22842   0.00000  Uiso   1.00
C522   C     0.42333   0.10107   0.26661   0.00000  Uiso   1.00
C523   C     0.42608   0.06938   0.17469   0.00000  Uiso   1.00
C524   C     0.41541   0.21183   0.23722   0.00000  Uiso   1.00
C525   C     0.44917   0.23831   0.28283   0.00000  Uiso   1.00
C526   C     0.46373   0.26938   0.19833   0.00000  Uiso   1.00
C527   C     0.34335   0.18377   0.31559   0.00000  Uiso   1.00
C528   C     0.31652   0.18667   0.42707   0.00000  Uiso   1.00
C529   C     0.27040   0.19414   0.40855   0.00000  Uiso   1.00
H530   H     0.34589   0.18731   0.98432   0.00000  Uiso   1.00
H531   H     0.37115   0.11346   0.91372   0.00000  Uiso   1.00
H532   H     0.39698   0.25068   0.92995   0.00000  Uiso   1.00
H533   H     0.26435   0.19905   0.07417   0.00000  Uiso   1.00
H534   H     0.40736   0.02965   0.89081   0.00000  Uiso   1.00
H535   H     0.46181   0.31899   0.92503   0.00000  Uiso   1.00
H536   H     0.18213   0.21012   0.22915   0.00000  Uiso   1.00
H537   H     0.40897   0.17235   0.41096   0.00000  Uiso   1.00
H538   H     0.43770   0.09767   0.36377   0.00000  Uiso   1.00
H539   H     0.46353   0.23489   0.37999   0.00000  Uiso   1.00
H540   H     0.33090   0.18326   0.52421   0.00000  Uiso   1.00
H541   H     0.46138   0.01683   0.25608   0.00000  Uiso   1.00
H542   H     0.51583   0.30618   0.29030   0.00000  Uiso   1.00
H543   H     0.23615   0.19730   0.59442   0.00000  Uiso   1.00
O544   O     0.45214   0.97439   0.03469   0.00000  Uiso   1.00
O545   O     0.52357   0.35401   0.07959   0.00000  Uiso   1.00
O546   O     0.15664   0.21116   0.47860   0.00000  Uiso   1.00
N547   N     0.41612   0.03687   0.98326   0.00000  Uiso   1.00
N548   N     0.46704   0.30739   0.01524   0.00000  Uiso   1.00
N549   N     0.20556   0.20562   0.29958   0.00000  Uiso   1.00
N550   N     0.44519   0.02998   0.17981   0.00000  Uiso   1.00
N551   N     0.49610   0.30050   0.21179   0.00000  Uiso   1.00
N552   N     0.23463   0.19872   0.49613   0.00000  Uiso   1.00
C553   C     0.63966   0.81612   0.08207   0.00000  Uiso   1.00
C554   C     0.61719   0.85832   0.10287   0.00000  Uiso   1.00
C555   C     0.61448   0.88996   0.01088   0.00000  Uiso   1.00
C556   C     0.59252   0.92621   0.04891   0.00000  Uiso   1.00
C557   C     0.56043   0.99106   0.06210   0.00000  Uiso   1.00
C558   C     0.60315   0.78377   0.11168   0.00000  Uiso   1.00
C559   C     0.58864   0.75272   0.02709   0.00000  Uiso   1.00
C560   C     0.55487   0.72621   0.07256   0.00000  Uiso   1.00
C561   C     0.50101   0.67529   0.09945   0.00000  Uiso   1.00
C562   C     0.67521   0.81183   0.19004   0.00000  Uiso   1.00
C563   C     0.72130   0.80436   0.17134   0.00000  Uiso   1.00
C564   C     0.74819   0.80145   0.28278   0.00000  Uiso   1.00
C565   C     0.80622   0.79410   0.43133   0.00000  Uiso   1.00
C566   C     0.60548   0.82423   0.31321   0.00000  Uiso   1.00
C567   C     0.59862   0.86272   0.22842   0.00000  Uiso   1.00
C568   C     0.57667   0.89893   0.26661   0.00000  Uiso   1.00
C569   C     0.57392   0.93062   0.17469   0.00000  Uiso   1.00
C570   C     0.58459   0.78817   0.23722   0.00000  Uiso   1.00
C571   C     0.55083   0.76169   0.28283   0.00000  Uiso   1.00
C572   C     0.53627   0.73062   0.19833   0.00000  Uiso   1.00
C573   C     0.65665   0.81623   0.31559   0.00000  Uiso   1.00
C574   C     0.68348   0.81333   0.42707   0.00000  Uiso   1.00
C575   C     0.72960   0.80586   0.40855   0.00000  Uiso   1.00
H576   H     0.65411   0.81269   0.98432   0.00000  Uiso   1.00
H577   H     0.62885   0.88654   0.91372   0.00000  Uiso   1.00
H578   H     0.60302   0.74932   0.92995   0.00000  Uiso   1.00
H579   H     0.73565   0.80095   0.07417   0.00000  Uiso   1.00
H580   H     0.59264   0.97035   0.89081   0.00000  Uiso   1.00
H581   H     0.53819   0.68101   0.92503   0.00000  Uiso   1.00
H582   H     0.81787   0.78988   0.22915   0.00000  Uiso   1.00
H583   H     0.59103   0.82765   0.41096   0.00000  Uiso   1.00
H584   H     0.56230   0.90233   0.36377   0.00000  Uiso   1.00
H585   H     0.53647   0.76511   0.37999   0.00000  Uiso   1.00
H586   H     0.66910   0.81674   0.52421   0.00000  Uiso   1.00
H587   H     0.53862   0.98317   0.25608   0.00000  Uiso   1.00
H588   H     0.48417   0.69382   0.29030   0.00000  Uiso   1.00
H589   H     0.76385   0.80270   0.59442   0.00000  Uiso   1.00
O590   O     0.54786   0.02561   0.03469   0.00000  Uiso   1.00
O591   O     0.47643   0.64599   0.07959   0.00000  Uiso   1.00
O592   O     0.84336   0.78884   0.47860   0.00000  Uiso   1.00
N593   N     0.58388   0.96313   0.98326   0.00000  Uiso   1.00
N594   N     0.53296   0.69261   0.01524   0.00000  Uiso   1.00
N595   N     0.79444   0.79438   0.29958   0.00000  Uiso   1.00
N596   N     0.55481   0.97002   0.17981   0.00000  Uiso   1.00
N597   N     0.50390   0.69950   0.21179   0.00000  Uiso   1.00
N598   N     0.76537   0.80128   0.49613   0.00000  Uiso   1.00
C599   C     0.63966   0.31612   0.58207   0.00000  Uiso   1.00
C600   C     0.61719   0.35832   0.60287   0.00000  Uiso   1.00
C601   C     0.61448   0.38996   0.51088   0.00000  Uiso   1.00
C602   C     0.59252   0.42621   0.54891   0.00000  Uiso   1.00
C603   C     0.56043   0.49106   0.56210   0.00000  Uiso   1.00
C604   C     0.60315   0.28377   0.61168   0.00000  Uiso   1.00
C605   C     0.58864   0.25272   0.52709   0.00000  Uiso   1.00
C606   C     0.55487   0.22621   0.57256   0.00000  Uiso   1.00
C607   C     0.50101   0.17529   0.59945   0.00000  Uiso   1.00
C608   C     0.67521   0.31183   0.69004   0.00000  Uiso   1.00
C609   C     0.72130   0.30436   0.67134   0.00000  Uiso   1.00
C610   C     0.74819   0.30145   0.78278   0.00000  Uiso   1.00
C611   C     0.80622   0.29410   0.93133   0.00000  Uiso   1.00
C612   C     0.60548   0.32423   0.81321   0.00000  Uiso   1.00
C613   C     0.59862   0.36272   0.72842   0.00000  Uiso   1.00
C614   C     0.57667   0.39893   0.76661   0.00000  Uiso   1.00
C615   C     0.57392   0.43062   0.67469   0.00000  Uiso   1.00
C616   C     0.58459   0.28817   0.73722   0.00000  Uiso   1.00
C617   C     0.55083   0.26169   0.78283   0.00000  Uiso   1.00
C618   C     0.53627   0.23062   0.69833   0.00000  Uiso   1.00
C619   C     0.65665   0.31623   0.81559   0.00000  Uiso   1.00
C620   C     0.68348   0.31333   0.92707   0.00000  Uiso   1.00
C621   C     0.72960   0.30586   0.90855   0.00000  Uiso   1.00
H622   H     0.65411   0.31269   0.48432   0.00000  Uiso   1.00
H623   H     0.62885   0.38654   0.41372   0.00000  Uiso   1.00
H624   H     0.60302   0.24932   0.42995   0.00000  Uiso   1.00
H625   H     0.73565   0.30095   0.57417   0.00000  Uiso   1.00
H626   H     0.59264   0.47035   0.39081   0.00000  Uiso   1.00
H627   H     0.53819   0.18101   0.42503   0.00000  Uiso   1.00
H628   H     0.81787   0.28988   0.72915   0.00000  Uiso   1.00
H629   H     0.59103   0.32765   0.91096   0.00000  Uiso   1.00
H630   H     0.56230   0.40233   0.86377   0.00000  Uiso   1.00
H631   H     0.53647   0.26511   0.87999   0.00000  Uiso   1.00
H632   H     0.66910   0.31674   0.02421   0.00000  Uiso   1.00
H633   H     0.53862   0.48317   0.75608   0.00000  Uiso   1.00
H634   H     0.48417   0.19382   0.79030   0.00000  Uiso   1.00
H635   H     0.76385   0.30270   0.09442   0.00000  Uiso   1.00
O636   O     0.54786   0.52561   0.53469   0.00000  Uiso   1.00
O637   O     0.47643   0.14599   0.57959   0.00000  Uiso   1.00
O638   O     0.84336   0.28884   0.97860   0.00000  Uiso   1.00
N639   N     0.58388   0.46313   0.48326   0.00000  Uiso   1.00
N640   N     0.53296   0.19261   0.51524   0.00000  Uiso   1.00
N641   N     0.79444   0.29438   0.79958   0.00000  Uiso   1.00
N642   N     0.55481   0.47002   0.67981   0.00000  Uiso   1.00
N643   N     0.50390   0.19950   0.71179   0.00000  Uiso   1.00
N644   N     0.76537   0.30128   0.99613   0.00000  Uiso   1.00
C645   C     0.13966   0.81612   0.58207   0.00000  Uiso   1.00
C646   C     0.11719   0.85832   0.60287   0.00000  Uiso   1.00
C647   C     0.11448   0.88996   0.51088   0.00000  Uiso   1.00
C648   C     0.09252   0.92621   0.54891   0.00000  Uiso   1.00
C649   C     0.06043   0.99106   0.56210   0.00000  Uiso   1.00
C650   C     0.10315   0.78377   0.61168   0.00000  Uiso   1.00
C651   C     0.08864   0.75272   0.52709   0.00000  Uiso   1.00
C652   C     0.05487   0.72621   0.57256   0.00000  Uiso   1.00
C653   C     0.00101   0.67529   0.59945   0.00000  Uiso   1.00
C654   C     0.17521   0.81183   0.69004   0.00000  Uiso   1.00
C655   C     0.22130   0.80436   0.67134   0.00000  Uiso   1.00
C656   C     0.24819   0.80145   0.78278   0.00000  Uiso   1.00
C657   C     0.30622   0.79410   0.93133   0.00000  Uiso   1.00
C658   C     0.10548   0.82423   0.81321   0.00000  Uiso   1.00
C659   C     0.09862   0.86272   0.72842   0.00000  Uiso   1.00
C660   C     0.07667   0.89893   0.76661   0.00000  Uiso   1.00
C661   C     0.07392   0.93062   0.67469   0.00000  Uiso   1.00
C662   C     0.08459   0.78817   0.73722   0.00000  Uiso   1.00
C663   C     0.05083   0.76169   0.78283   0.00000  Uiso   1.00
C664   C     0.03627   0.73062   0.69833   0.00000  Uiso   1.00
C665   C     0.15665   0.81623   0.81559   0.00000  Uiso   1.00
C666   C     0.18348   0.81333   0.92707   0.00000  Uiso   1.00
C667   C     0.22960   0.80586   0.90855   0.00000  Uiso   1.00
H668   H     0.15411   0.81269   0.48432   0.00000  Uiso   1.00
H669   H     0.12885   0.88654   0.41372   0.00000  Uiso   1.00
H670   H     0.10302   0.74932   0.42995   0.00000  Uiso   1.00
H671   H     0.23565   0.80095   0.57417   0.00000  Uiso   1.00
H672   H     0.09264   0.97035   0.39081   0.00000  Uiso   1.00
H673   H     0.03819   0.68101   0.42503   0.00000  Uiso   1.00
H674   H     0.31787   0.78988   0.72915   0.00000  Uiso   1.00
H675   H     0.09103   0.82765   0.91096   0.00000  Uiso   1.00
H676   H     0.06230   0.90233   0.86377   0.00000  Uiso   1.00
H677   H     0.03647   0.76511   0.87999   0.00000  Uiso   1.00
H678   H     0.16910   0.81674   0.02421   0.00000  Uiso   1.00
H679   H     0.03862   0.98317   0.75608   0.00000  Uiso   1.00
H680   H     0.98417   0.69382   0.79030   0.00000  Uiso   1.00
H681   H     0.26385   0.80270   0.09442   0.00000  Uiso   1.00
O682   O     0.04786   0.02561   0.53469   0.00000  Uiso   1.00
O683   O     0.97643   0.64599   0.57959   0.00000  Uiso   1.00
O684   O     0.34336   0.78884   0.97860   0.00000  Uiso   1.00
N685   N     0.08388   0.96313   0.48326   0.00000  Uiso   1.00
N686   N     0.03296   0.69261   0.51524   0.00000  Uiso   1.00
N687   N     0.29444   0.79438   0.79958   0.00000  Uiso   1.00
N688   N     0.05481   0.97002   0.67981   0.00000  Uiso   1.00
N689   N     0.00390   0.69950   0.71179   0.00000  Uiso   1.00
N690   N     0.26537   0.80128   0.99613   0.00000  Uiso   1.00
C691   C     0.13966   0.31612   0.08207   0.00000  Uiso   1.00
C692   C     0.11719   0.35832   0.10287   0.00000  Uiso   1.00
C693   C     0.11448   0.38996   0.01088   0.00000  Uiso   1.00
C694   C     0.09252   0.42621   0.04891   0.00000  Uiso   1.00
C695   C     0.06043   0.49106   0.06210   0.00000  Uiso   1.00
C696   C     0.10315   0.28377   0.11168   0.00000  Uiso   1.00
C697   C     0.08864   0.25272   0.02709   0.00000  Uiso   1.00
C698   C     0.05487   0.22621   0.07256   0.00000  Uiso   1.00
C699   C     0.00101   0.17529   0.09945   0.00000  Uiso   1.00
C700   C     0.17521   0.31183   0.19004   0.00000  Uiso   1.00
C701   C     0.22130   0.30436   0.17134   0.00000  Uiso   1.00
C702   C     0.24819   0.30145   0.28278   0.00000  Uiso   1.00
C703   C     0.30622   0.29410   0.43133   0.00000  Uiso   1.00
C704   C     0.10548   0.32423   0.31321   0.00000  Uiso   1.00
C705   C     0.09862   0.36272   0.22842   0.00000  Uiso   1.00
C706   C     0.07667   0.39893   0.26661   0.00000  Uiso   1.00
C707   C     0.07392   0.43062   0.17469   0.00000  Uiso   1.00
C708   C     0.08459   0.28817   0.23722   0.00000  Uiso   1.00
C709   C     0.05083   0.26169   0.28283   0.00000  Uiso   1.00
C710   C     0.03627   0.23062   0.19833   0.00000  Uiso   1.00
C711   C     0.15665   0.31623   0.31559   0.00000  Uiso   1.00
C712   C     0.18348   0.31333   0.42707   0.00000  Uiso   1.00
C713   C     0.22960   0.30586   0.40855   0.00000  Uiso   1.00
H714   H     0.15411   0.31269   0.98432   0.00000  Uiso   1.00
H715   H     0.12885   0.38654   0.91372   0.00000  Uiso   1.00
H716   H     0.10302   0.24932   0.92995   0.00000  Uiso   1.00
H717   H     0.23565   0.30095   0.07417   0.00000  Uiso   1.00
H718   H     0.09264   0.47035   0.89081   0.00000  Uiso   1.00
H719   H     0.03819   0.18101   0.92503   0.00000  Uiso   1.00
H720   H     0.31787   0.28988   0.22915   0.00000  Uiso   1.00
H721   H     0.09103   0.32765   0.41096   0.00000  Uiso   1.00
H722   H     0.06230   0.40233   0.36377   0.00000  Uiso   1.00
H723   H     0.03647   0.26511   0.37999   0.00000  Uiso   1.00
H724   H     0.16910   0.31674   0.52421   0.00000  Uiso   1.00
H725   H     0.03862   0.48317   0.25608   0.00000  Uiso   1.00
H726   H     0.98417   0.19382   0.29030   0.00000  Uiso   1.00
H727   H     0.26385   0.30270   0.59442   0.00000  Uiso   1.00
O728   O     0.04786   0.52561   0.03469   0.00000  Uiso   1.00
O729   O     0.97643   0.14599   0.07959   0.00000  Uiso   1.00
O730   O     0.34336   0.28884   0.47860   0.00000  Uiso   1.00
N731   N     0.08388   0.46313   0.98326   0.00000  Uiso   1.00
N732   N     0.03296   0.19261   0.01524   0.00000  Uiso   1.00
N733   N     0.29444   0.29438   0.29958   0.00000  Uiso   1.00
N734   N     0.05481   0.47002   0.17981   0.00000  Uiso   1.00
N735   N     0.00390   0.19950   0.21179   0.00000  Uiso   1.00
N736   N     0.26537   0.30128   0.49613   0.00000  Uiso   1.00
