data_job_01667
_audit_creation_date              2018-12-19
_audit_creation_method            'Materials Studio'
_symmetry_space_group_name_H-M    'P1'
_symmetry_Int_Tables_number       1
_symmetry_cell_setting            triclinic
loop_
_symmetry_equiv_pos_as_xyz
  x,y,z
_cell_length_a                    17.0413
_cell_length_b                    17.0413
_cell_length_c                    40.8637
_cell_angle_alpha                 90.0000
_cell_angle_beta                  90.0000
_cell_angle_gamma                 90.0000
loop_
_atom_site_label
_atom_site_type_symbol
_atom_site_fract_x
_atom_site_fract_y
_atom_site_fract_z
_atom_site_U_iso_or_equiv
_atom_site_adp_type
_atom_site_occupancy
C1     C     0.68722   0.84441   0.52745   0.00000  Uiso   1.00
C2     C     0.73226   0.87520   0.55703   0.00000  Uiso   1.00
C3     C     0.70498   0.93029   0.57930   0.00000  Uiso   1.00
C4     C     0.75511   0.95075   0.60469   0.00000  Uiso   1.00
C5     C     0.81368   0.00367   0.65016   0.00000  Uiso   1.00
C6     C     0.73919   0.86036   0.49780   0.00000  Uiso   1.00
C7     C     0.71773   0.90296   0.47028   0.00000  Uiso   1.00
C8     C     0.77369   0.91091   0.44581   0.00000  Uiso   1.00
C9     C     0.84300   0.94074   0.39932   0.00000  Uiso   1.00
C10    C     0.68449   0.75545   0.53127   0.00000  Uiso   1.00
C11    C     0.61703   0.70983   0.53187   0.00000  Uiso   1.00
C12    C     0.62694   0.62945   0.53556   0.00000  Uiso   1.00
C13    C     0.61133   0.49639   0.54103   0.00000  Uiso   1.00
C14    C     0.82476   0.78276   0.53293   0.00000  Uiso   1.00
C15    C     0.80696   0.84171   0.56001   0.00000  Uiso   1.00
C16    C     0.85715   0.86208   0.58537   0.00000  Uiso   1.00
C17    C     0.82995   0.91720   0.60768   0.00000  Uiso   1.00
C18    C     0.81389   0.82687   0.50078   0.00000  Uiso   1.00
C19    C     0.86990   0.83475   0.47634   0.00000  Uiso   1.00
C20    C     0.84853   0.87736   0.44879   0.00000  Uiso   1.00
C21    C     0.75919   0.72196   0.53425   0.00000  Uiso   1.00
C22    C     0.76921   0.64163   0.53794   0.00000  Uiso   1.00
C23    C     0.70178   0.59590   0.53855   0.00000  Uiso   1.00
H24    H     0.62906   0.87049   0.52513   0.00000  Uiso   1.00
H25    H     0.64716   0.95620   0.57699   0.00000  Uiso   1.00
H26    H     0.65991   0.92886   0.46798   0.00000  Uiso   1.00
H27    H     0.55923   0.73577   0.52956   0.00000  Uiso   1.00
H28    H     0.70018   0.03648   0.63579   0.00000  Uiso   1.00
H29    H     0.72705   0.97882   0.40593   0.00000  Uiso   1.00
H30    H     0.51475   0.57164   0.53579   0.00000  Uiso   1.00
H31    H     0.88293   0.75669   0.53525   0.00000  Uiso   1.00
H32    H     0.91496   0.83616   0.58767   0.00000  Uiso   1.00
H33    H     0.92770   0.80883   0.47866   0.00000  Uiso   1.00
H34    H     0.82703   0.61573   0.54024   0.00000  Uiso   1.00
H35    H     0.91754   0.93906   0.64446   0.00000  Uiso   1.00
H36    H     0.94440   0.88139   0.41460   0.00000  Uiso   1.00
H37    H     0.73211   0.47421   0.54446   0.00000  Uiso   1.00
O38    O     0.82536   0.04212   0.67442   0.00000  Uiso   1.00
O39    O     0.86060   0.96645   0.37285   0.00000  Uiso   1.00
O40    O     0.58207   0.43225   0.54323   0.00000  Uiso   1.00
N41    N     0.74694   0.00264   0.63064   0.00000  Uiso   1.00
N42    N     0.77206   0.94873   0.41574   0.00000  Uiso   1.00
N43    N     0.57358   0.56805   0.53714   0.00000  Uiso   1.00
N44    N     0.86389   0.95021   0.63530   0.00000  Uiso   1.00
N45    N     0.88901   0.89631   0.42040   0.00000  Uiso   1.00
N46    N     0.69054   0.51563   0.54180   0.00000  Uiso   1.00
C47    C     0.18722   0.34441   0.02745   0.00000  Uiso   1.00
C48    C     0.23226   0.37520   0.05703   0.00000  Uiso   1.00
C49    C     0.20498   0.43029   0.07930   0.00000  Uiso   1.00
C50    C     0.25511   0.45075   0.10469   0.00000  Uiso   1.00
C51    C     0.31368   0.50367   0.15016   0.00000  Uiso   1.00
C52    C     0.23919   0.36036   0.99780   0.00000  Uiso   1.00
C53    C     0.21773   0.40296   0.97028   0.00000  Uiso   1.00
C54    C     0.27369   0.41091   0.94581   0.00000  Uiso   1.00
C55    C     0.34300   0.44074   0.89932   0.00000  Uiso   1.00
C56    C     0.18449   0.25545   0.03127   0.00000  Uiso   1.00
C57    C     0.11703   0.20983   0.03187   0.00000  Uiso   1.00
C58    C     0.12694   0.12945   0.03556   0.00000  Uiso   1.00
C59    C     0.11133   0.99639   0.04103   0.00000  Uiso   1.00
C60    C     0.32476   0.28276   0.03293   0.00000  Uiso   1.00
C61    C     0.30696   0.34171   0.06001   0.00000  Uiso   1.00
C62    C     0.35715   0.36208   0.08537   0.00000  Uiso   1.00
C63    C     0.32995   0.41720   0.10768   0.00000  Uiso   1.00
C64    C     0.31389   0.32687   0.00078   0.00000  Uiso   1.00
C65    C     0.36990   0.33475   0.97634   0.00000  Uiso   1.00
C66    C     0.34853   0.37736   0.94879   0.00000  Uiso   1.00
C67    C     0.25919   0.22196   0.03425   0.00000  Uiso   1.00
C68    C     0.26921   0.14163   0.03794   0.00000  Uiso   1.00
C69    C     0.20178   0.09590   0.03855   0.00000  Uiso   1.00
H70    H     0.12906   0.37049   0.02513   0.00000  Uiso   1.00
H71    H     0.14716   0.45620   0.07699   0.00000  Uiso   1.00
H72    H     0.15991   0.42886   0.96798   0.00000  Uiso   1.00
H73    H     0.05923   0.23577   0.02956   0.00000  Uiso   1.00
H74    H     0.20018   0.53648   0.13579   0.00000  Uiso   1.00
H75    H     0.22705   0.47882   0.90593   0.00000  Uiso   1.00
H76    H     0.01475   0.07164   0.03579   0.00000  Uiso   1.00
H77    H     0.38293   0.25669   0.03525   0.00000  Uiso   1.00
H78    H     0.41496   0.33616   0.08767   0.00000  Uiso   1.00
H79    H     0.42770   0.30883   0.97866   0.00000  Uiso   1.00
H80    H     0.32703   0.11573   0.04024   0.00000  Uiso   1.00
H81    H     0.41754   0.43906   0.14446   0.00000  Uiso   1.00
H82    H     0.44440   0.38139   0.91460   0.00000  Uiso   1.00
H83    H     0.23211   0.97421   0.04446   0.00000  Uiso   1.00
O84    O     0.32536   0.54212   0.17442   0.00000  Uiso   1.00
O85    O     0.36060   0.46645   0.87285   0.00000  Uiso   1.00
O86    O     0.08207   0.93225   0.04323   0.00000  Uiso   1.00
N87    N     0.24694   0.50264   0.13064   0.00000  Uiso   1.00
N88    N     0.27206   0.44873   0.91574   0.00000  Uiso   1.00
N89    N     0.07358   0.06805   0.03714   0.00000  Uiso   1.00
N90    N     0.36389   0.45021   0.13530   0.00000  Uiso   1.00
N91    N     0.38901   0.39631   0.92040   0.00000  Uiso   1.00
N92    N     0.19054   0.01563   0.04180   0.00000  Uiso   1.00
C93    C     0.31278   0.15559   0.52745   0.00000  Uiso   1.00
C94    C     0.26774   0.12480   0.55703   0.00000  Uiso   1.00
C95    C     0.29502   0.06971   0.57930   0.00000  Uiso   1.00
C96    C     0.24489   0.04925   0.60469   0.00000  Uiso   1.00
C97    C     0.18632   0.99633   0.65016   0.00000  Uiso   1.00
C98    C     0.26081   0.13964   0.49780   0.00000  Uiso   1.00
C99    C     0.28227   0.09704   0.47028   0.00000  Uiso   1.00
C100   C     0.22631   0.08909   0.44581   0.00000  Uiso   1.00
C101   C     0.15700   0.05926   0.39932   0.00000  Uiso   1.00
C102   C     0.31551   0.24455   0.53127   0.00000  Uiso   1.00
C103   C     0.38297   0.29017   0.53187   0.00000  Uiso   1.00
C104   C     0.37306   0.37055   0.53556   0.00000  Uiso   1.00
C105   C     0.38867   0.50361   0.54103   0.00000  Uiso   1.00
C106   C     0.17524   0.21724   0.53293   0.00000  Uiso   1.00
C107   C     0.19304   0.15829   0.56001   0.00000  Uiso   1.00
C108   C     0.14285   0.13792   0.58537   0.00000  Uiso   1.00
C109   C     0.17005   0.08280   0.60768   0.00000  Uiso   1.00
C110   C     0.18611   0.17313   0.50078   0.00000  Uiso   1.00
C111   C     0.13010   0.16525   0.47634   0.00000  Uiso   1.00
C112   C     0.15147   0.12264   0.44879   0.00000  Uiso   1.00
C113   C     0.24081   0.27804   0.53425   0.00000  Uiso   1.00
C114   C     0.23079   0.35837   0.53794   0.00000  Uiso   1.00
C115   C     0.29822   0.40410   0.53855   0.00000  Uiso   1.00
H116   H     0.37094   0.12951   0.52513   0.00000  Uiso   1.00
H117   H     0.35284   0.04380   0.57699   0.00000  Uiso   1.00
H118   H     0.34009   0.07114   0.46798   0.00000  Uiso   1.00
H119   H     0.44077   0.26423   0.52956   0.00000  Uiso   1.00
H120   H     0.29982   0.96352   0.63579   0.00000  Uiso   1.00
H121   H     0.27295   0.02118   0.40593   0.00000  Uiso   1.00
H122   H     0.48525   0.42836   0.53579   0.00000  Uiso   1.00
H123   H     0.11707   0.24331   0.53525   0.00000  Uiso   1.00
H124   H     0.08504   0.16384   0.58767   0.00000  Uiso   1.00
H125   H     0.07230   0.19117   0.47866   0.00000  Uiso   1.00
H126   H     0.17297   0.38427   0.54024   0.00000  Uiso   1.00
H127   H     0.08246   0.06094   0.64446   0.00000  Uiso   1.00
H128   H     0.05560   0.11861   0.41460   0.00000  Uiso   1.00
H129   H     0.26789   0.52579   0.54446   0.00000  Uiso   1.00
O130   O     0.17464   0.95788   0.67442   0.00000  Uiso   1.00
O131   O     0.13940   0.03355   0.37285   0.00000  Uiso   1.00
O132   O     0.41793   0.56775   0.54323   0.00000  Uiso   1.00
N133   N     0.25306   0.99736   0.63064   0.00000  Uiso   1.00
N134   N     0.22794   0.05127   0.41574   0.00000  Uiso   1.00
N135   N     0.42642   0.43195   0.53714   0.00000  Uiso   1.00
N136   N     0.13611   0.04979   0.63530   0.00000  Uiso   1.00
N137   N     0.11099   0.10369   0.42040   0.00000  Uiso   1.00
N138   N     0.30946   0.48437   0.54180   0.00000  Uiso   1.00
C139   C     0.81278   0.65559   0.02745   0.00000  Uiso   1.00
C140   C     0.76774   0.62480   0.05703   0.00000  Uiso   1.00
C141   C     0.79502   0.56971   0.07930   0.00000  Uiso   1.00
C142   C     0.74489   0.54925   0.10469   0.00000  Uiso   1.00
C143   C     0.68632   0.49633   0.15016   0.00000  Uiso   1.00
C144   C     0.76081   0.63964   0.99780   0.00000  Uiso   1.00
C145   C     0.78227   0.59704   0.97028   0.00000  Uiso   1.00
C146   C     0.72631   0.58909   0.94581   0.00000  Uiso   1.00
C147   C     0.65700   0.55926   0.89932   0.00000  Uiso   1.00
C148   C     0.81551   0.74455   0.03127   0.00000  Uiso   1.00
C149   C     0.88297   0.79017   0.03187   0.00000  Uiso   1.00
C150   C     0.87306   0.87055   0.03556   0.00000  Uiso   1.00
C151   C     0.88867   0.00361   0.04103   0.00000  Uiso   1.00
C152   C     0.67524   0.71724   0.03293   0.00000  Uiso   1.00
C153   C     0.69304   0.65829   0.06001   0.00000  Uiso   1.00
C154   C     0.64285   0.63792   0.08537   0.00000  Uiso   1.00
C155   C     0.67005   0.58280   0.10768   0.00000  Uiso   1.00
C156   C     0.68611   0.67313   0.00078   0.00000  Uiso   1.00
C157   C     0.63010   0.66525   0.97634   0.00000  Uiso   1.00
C158   C     0.65147   0.62264   0.94879   0.00000  Uiso   1.00
C159   C     0.74081   0.77804   0.03425   0.00000  Uiso   1.00
C160   C     0.73079   0.85837   0.03794   0.00000  Uiso   1.00
C161   C     0.79822   0.90410   0.03855   0.00000  Uiso   1.00
H162   H     0.87094   0.62951   0.02513   0.00000  Uiso   1.00
H163   H     0.85284   0.54380   0.07699   0.00000  Uiso   1.00
H164   H     0.84009   0.57114   0.96798   0.00000  Uiso   1.00
H165   H     0.94077   0.76423   0.02956   0.00000  Uiso   1.00
H166   H     0.79982   0.46352   0.13579   0.00000  Uiso   1.00
H167   H     0.77295   0.52118   0.90593   0.00000  Uiso   1.00
H168   H     0.98525   0.92836   0.03579   0.00000  Uiso   1.00
H169   H     0.61707   0.74331   0.03525   0.00000  Uiso   1.00
H170   H     0.58504   0.66384   0.08767   0.00000  Uiso   1.00
H171   H     0.57230   0.69117   0.97866   0.00000  Uiso   1.00
H172   H     0.67297   0.88427   0.04024   0.00000  Uiso   1.00
H173   H     0.58246   0.56094   0.14446   0.00000  Uiso   1.00
H174   H     0.55560   0.61861   0.91460   0.00000  Uiso   1.00
H175   H     0.76789   0.02579   0.04446   0.00000  Uiso   1.00
O176   O     0.67464   0.45788   0.17442   0.00000  Uiso   1.00
O177   O     0.63940   0.53355   0.87285   0.00000  Uiso   1.00
O178   O     0.91793   0.06775   0.04323   0.00000  Uiso   1.00
N179   N     0.75306   0.49736   0.13064   0.00000  Uiso   1.00
N180   N     0.72794   0.55127   0.91574   0.00000  Uiso   1.00
N181   N     0.92642   0.93195   0.03714   0.00000  Uiso   1.00
N182   N     0.63611   0.54979   0.13530   0.00000  Uiso   1.00
N183   N     0.61099   0.60369   0.92040   0.00000  Uiso   1.00
N184   N     0.80946   0.98437   0.04180   0.00000  Uiso   1.00
C185   C     0.84441   0.31278   0.47255   0.00000  Uiso   1.00
C186   C     0.87520   0.26774   0.44297   0.00000  Uiso   1.00
C187   C     0.93029   0.29502   0.42070   0.00000  Uiso   1.00
C188   C     0.95075   0.24489   0.39531   0.00000  Uiso   1.00
C189   C     0.00367   0.18632   0.34984   0.00000  Uiso   1.00
C190   C     0.86036   0.26081   0.50220   0.00000  Uiso   1.00
C191   C     0.90296   0.28227   0.52972   0.00000  Uiso   1.00
C192   C     0.91091   0.22631   0.55419   0.00000  Uiso   1.00
C193   C     0.94074   0.15700   0.60068   0.00000  Uiso   1.00
C194   C     0.75545   0.31551   0.46873   0.00000  Uiso   1.00
C195   C     0.70983   0.38297   0.46813   0.00000  Uiso   1.00
C196   C     0.62945   0.37306   0.46444   0.00000  Uiso   1.00
C197   C     0.49639   0.38867   0.45897   0.00000  Uiso   1.00
C198   C     0.78276   0.17524   0.46707   0.00000  Uiso   1.00
C199   C     0.84171   0.19304   0.43999   0.00000  Uiso   1.00
C200   C     0.86208   0.14285   0.41463   0.00000  Uiso   1.00
C201   C     0.91720   0.17005   0.39232   0.00000  Uiso   1.00
C202   C     0.82687   0.18611   0.49922   0.00000  Uiso   1.00
C203   C     0.83475   0.13010   0.52366   0.00000  Uiso   1.00
C204   C     0.87736   0.15147   0.55121   0.00000  Uiso   1.00
C205   C     0.72196   0.24081   0.46575   0.00000  Uiso   1.00
C206   C     0.64163   0.23079   0.46206   0.00000  Uiso   1.00
C207   C     0.59590   0.29822   0.46145   0.00000  Uiso   1.00
H208   H     0.87049   0.37094   0.47487   0.00000  Uiso   1.00
H209   H     0.95620   0.35284   0.42301   0.00000  Uiso   1.00
H210   H     0.92886   0.34009   0.53202   0.00000  Uiso   1.00
H211   H     0.73577   0.44077   0.47044   0.00000  Uiso   1.00
H212   H     0.03648   0.29982   0.36421   0.00000  Uiso   1.00
H213   H     0.97882   0.27295   0.59407   0.00000  Uiso   1.00
H214   H     0.57164   0.48525   0.46421   0.00000  Uiso   1.00
H215   H     0.75669   0.11707   0.46475   0.00000  Uiso   1.00
H216   H     0.83616   0.08504   0.41233   0.00000  Uiso   1.00
H217   H     0.80883   0.07230   0.52134   0.00000  Uiso   1.00
H218   H     0.61573   0.17297   0.45976   0.00000  Uiso   1.00
H219   H     0.93906   0.08246   0.35554   0.00000  Uiso   1.00
H220   H     0.88139   0.05560   0.58540   0.00000  Uiso   1.00
H221   H     0.47421   0.26789   0.45554   0.00000  Uiso   1.00
O222   O     0.04212   0.17464   0.32558   0.00000  Uiso   1.00
O223   O     0.96645   0.13940   0.62715   0.00000  Uiso   1.00
O224   O     0.43225   0.41793   0.45677   0.00000  Uiso   1.00
N225   N     0.00264   0.25306   0.36936   0.00000  Uiso   1.00
N226   N     0.94873   0.22794   0.58426   0.00000  Uiso   1.00
N227   N     0.56805   0.42642   0.46286   0.00000  Uiso   1.00
N228   N     0.95021   0.13611   0.36470   0.00000  Uiso   1.00
N229   N     0.89631   0.11099   0.57960   0.00000  Uiso   1.00
N230   N     0.51563   0.30946   0.45820   0.00000  Uiso   1.00
C231   C     0.34441   0.81278   0.97255   0.00000  Uiso   1.00
C232   C     0.37520   0.76774   0.94297   0.00000  Uiso   1.00
C233   C     0.43029   0.79502   0.92070   0.00000  Uiso   1.00
C234   C     0.45075   0.74489   0.89531   0.00000  Uiso   1.00
C235   C     0.50367   0.68632   0.84984   0.00000  Uiso   1.00
C236   C     0.36036   0.76081   0.00220   0.00000  Uiso   1.00
C237   C     0.40296   0.78227   0.02972   0.00000  Uiso   1.00
C238   C     0.41091   0.72631   0.05419   0.00000  Uiso   1.00
C239   C     0.44074   0.65700   0.10068   0.00000  Uiso   1.00
C240   C     0.25545   0.81551   0.96873   0.00000  Uiso   1.00
C241   C     0.20983   0.88297   0.96813   0.00000  Uiso   1.00
C242   C     0.12945   0.87306   0.96444   0.00000  Uiso   1.00
C243   C     0.99639   0.88867   0.95897   0.00000  Uiso   1.00
C244   C     0.28276   0.67524   0.96707   0.00000  Uiso   1.00
C245   C     0.34171   0.69304   0.93999   0.00000  Uiso   1.00
C246   C     0.36208   0.64285   0.91463   0.00000  Uiso   1.00
C247   C     0.41720   0.67005   0.89232   0.00000  Uiso   1.00
C248   C     0.32687   0.68611   0.99922   0.00000  Uiso   1.00
C249   C     0.33475   0.63010   0.02366   0.00000  Uiso   1.00
C250   C     0.37736   0.65147   0.05121   0.00000  Uiso   1.00
C251   C     0.22196   0.74081   0.96575   0.00000  Uiso   1.00
C252   C     0.14163   0.73079   0.96206   0.00000  Uiso   1.00
C253   C     0.09590   0.79822   0.96145   0.00000  Uiso   1.00
H254   H     0.37049   0.87094   0.97487   0.00000  Uiso   1.00
H255   H     0.45620   0.85284   0.92301   0.00000  Uiso   1.00
H256   H     0.42886   0.84009   0.03202   0.00000  Uiso   1.00
H257   H     0.23577   0.94077   0.97044   0.00000  Uiso   1.00
H258   H     0.53648   0.79982   0.86421   0.00000  Uiso   1.00
H259   H     0.47882   0.77295   0.09407   0.00000  Uiso   1.00
H260   H     0.07164   0.98525   0.96421   0.00000  Uiso   1.00
H261   H     0.25669   0.61707   0.96475   0.00000  Uiso   1.00
H262   H     0.33616   0.58504   0.91233   0.00000  Uiso   1.00
H263   H     0.30883   0.57230   0.02134   0.00000  Uiso   1.00
H264   H     0.11573   0.67297   0.95976   0.00000  Uiso   1.00
H265   H     0.43906   0.58246   0.85554   0.00000  Uiso   1.00
H266   H     0.38139   0.55560   0.08540   0.00000  Uiso   1.00
H267   H     0.97421   0.76789   0.95554   0.00000  Uiso   1.00
O268   O     0.54212   0.67464   0.82558   0.00000  Uiso   1.00
O269   O     0.46645   0.63940   0.12715   0.00000  Uiso   1.00
O270   O     0.93225   0.91793   0.95677   0.00000  Uiso   1.00
N271   N     0.50264   0.75306   0.86936   0.00000  Uiso   1.00
N272   N     0.44873   0.72794   0.08426   0.00000  Uiso   1.00
N273   N     0.06805   0.92642   0.96286   0.00000  Uiso   1.00
N274   N     0.45021   0.63611   0.86470   0.00000  Uiso   1.00
N275   N     0.39631   0.61099   0.07960   0.00000  Uiso   1.00
N276   N     0.01563   0.80946   0.95820   0.00000  Uiso   1.00
C277   C     0.15559   0.68722   0.47255   0.00000  Uiso   1.00
C278   C     0.12480   0.73226   0.44297   0.00000  Uiso   1.00
C279   C     0.06971   0.70498   0.42070   0.00000  Uiso   1.00
C280   C     0.04925   0.75511   0.39531   0.00000  Uiso   1.00
C281   C     0.99633   0.81368   0.34984   0.00000  Uiso   1.00
C282   C     0.13964   0.73919   0.50220   0.00000  Uiso   1.00
C283   C     0.09704   0.71773   0.52972   0.00000  Uiso   1.00
C284   C     0.08909   0.77369   0.55419   0.00000  Uiso   1.00
C285   C     0.05926   0.84300   0.60068   0.00000  Uiso   1.00
C286   C     0.24455   0.68449   0.46873   0.00000  Uiso   1.00
C287   C     0.29017   0.61703   0.46813   0.00000  Uiso   1.00
C288   C     0.37055   0.62694   0.46444   0.00000  Uiso   1.00
C289   C     0.50361   0.61133   0.45897   0.00000  Uiso   1.00
C290   C     0.21724   0.82476   0.46707   0.00000  Uiso   1.00
C291   C     0.15829   0.80696   0.43999   0.00000  Uiso   1.00
C292   C     0.13792   0.85715   0.41463   0.00000  Uiso   1.00
C293   C     0.08280   0.82995   0.39232   0.00000  Uiso   1.00
C294   C     0.17313   0.81389   0.49922   0.00000  Uiso   1.00
C295   C     0.16525   0.86990   0.52366   0.00000  Uiso   1.00
C296   C     0.12264   0.84853   0.55121   0.00000  Uiso   1.00
C297   C     0.27804   0.75919   0.46575   0.00000  Uiso   1.00
C298   C     0.35837   0.76921   0.46206   0.00000  Uiso   1.00
C299   C     0.40410   0.70178   0.46145   0.00000  Uiso   1.00
H300   H     0.12951   0.62906   0.47487   0.00000  Uiso   1.00
H301   H     0.04380   0.64716   0.42301   0.00000  Uiso   1.00
H302   H     0.07114   0.65991   0.53202   0.00000  Uiso   1.00
H303   H     0.26423   0.55923   0.47044   0.00000  Uiso   1.00
H304   H     0.96352   0.70018   0.36421   0.00000  Uiso   1.00
H305   H     0.02118   0.72705   0.59407   0.00000  Uiso   1.00
H306   H     0.42836   0.51475   0.46421   0.00000  Uiso   1.00
H307   H     0.24331   0.88293   0.46475   0.00000  Uiso   1.00
H308   H     0.16384   0.91496   0.41233   0.00000  Uiso   1.00
H309   H     0.19117   0.92770   0.52134   0.00000  Uiso   1.00
H310   H     0.38427   0.82703   0.45976   0.00000  Uiso   1.00
H311   H     0.06094   0.91754   0.35554   0.00000  Uiso   1.00
H312   H     0.11861   0.94440   0.58540   0.00000  Uiso   1.00
H313   H     0.52579   0.73211   0.45554   0.00000  Uiso   1.00
O314   O     0.95788   0.82536   0.32558   0.00000  Uiso   1.00
O315   O     0.03355   0.86060   0.62715   0.00000  Uiso   1.00
O316   O     0.56775   0.58207   0.45677   0.00000  Uiso   1.00
N317   N     0.99736   0.74694   0.36936   0.00000  Uiso   1.00
N318   N     0.05127   0.77206   0.58426   0.00000  Uiso   1.00
N319   N     0.43195   0.57358   0.46286   0.00000  Uiso   1.00
N320   N     0.04979   0.86389   0.36470   0.00000  Uiso   1.00
N321   N     0.10369   0.88901   0.57960   0.00000  Uiso   1.00
N322   N     0.48437   0.69054   0.45820   0.00000  Uiso   1.00
C323   C     0.65559   0.18722   0.97255   0.00000  Uiso   1.00
C324   C     0.62480   0.23226   0.94297   0.00000  Uiso   1.00
C325   C     0.56971   0.20498   0.92070   0.00000  Uiso   1.00
C326   C     0.54925   0.25511   0.89531   0.00000  Uiso   1.00
C327   C     0.49633   0.31368   0.84984   0.00000  Uiso   1.00
C328   C     0.63964   0.23919   0.00220   0.00000  Uiso   1.00
C329   C     0.59704   0.21773   0.02972   0.00000  Uiso   1.00
C330   C     0.58909   0.27369   0.05419   0.00000  Uiso   1.00
C331   C     0.55926   0.34300   0.10068   0.00000  Uiso   1.00
C332   C     0.74455   0.18449   0.96873   0.00000  Uiso   1.00
C333   C     0.79017   0.11703   0.96813   0.00000  Uiso   1.00
C334   C     0.87055   0.12694   0.96444   0.00000  Uiso   1.00
C335   C     0.00361   0.11133   0.95897   0.00000  Uiso   1.00
C336   C     0.71724   0.32476   0.96707   0.00000  Uiso   1.00
C337   C     0.65829   0.30696   0.93999   0.00000  Uiso   1.00
C338   C     0.63792   0.35715   0.91463   0.00000  Uiso   1.00
C339   C     0.58280   0.32995   0.89232   0.00000  Uiso   1.00
C340   C     0.67313   0.31389   0.99922   0.00000  Uiso   1.00
C341   C     0.66525   0.36990   0.02366   0.00000  Uiso   1.00
C342   C     0.62264   0.34853   0.05121   0.00000  Uiso   1.00
C343   C     0.77804   0.25919   0.96575   0.00000  Uiso   1.00
C344   C     0.85837   0.26921   0.96206   0.00000  Uiso   1.00
C345   C     0.90410   0.20178   0.96145   0.00000  Uiso   1.00
H346   H     0.62951   0.12906   0.97487   0.00000  Uiso   1.00
H347   H     0.54380   0.14716   0.92301   0.00000  Uiso   1.00
H348   H     0.57114   0.15991   0.03202   0.00000  Uiso   1.00
H349   H     0.76423   0.05923   0.97044   0.00000  Uiso   1.00
H350   H     0.46352   0.20018   0.86421   0.00000  Uiso   1.00
H351   H     0.52118   0.22705   0.09407   0.00000  Uiso   1.00
H352   H     0.92836   0.01475   0.96421   0.00000  Uiso   1.00
H353   H     0.74331   0.38293   0.96475   0.00000  Uiso   1.00
H354   H     0.66384   0.41496   0.91233   0.00000  Uiso   1.00
H355   H     0.69117   0.42770   0.02134   0.00000  Uiso   1.00
H356   H     0.88427   0.32703   0.95976   0.00000  Uiso   1.00
H357   H     0.56094   0.41754   0.85554   0.00000  Uiso   1.00
H358   H     0.61861   0.44440   0.08540   0.00000  Uiso   1.00
H359   H     0.02579   0.23211   0.95554   0.00000  Uiso   1.00
O360   O     0.45788   0.32536   0.82558   0.00000  Uiso   1.00
O361   O     0.53355   0.36060   0.12715   0.00000  Uiso   1.00
O362   O     0.06775   0.08207   0.95677   0.00000  Uiso   1.00
N363   N     0.49736   0.24694   0.86936   0.00000  Uiso   1.00
N364   N     0.55127   0.27206   0.08426   0.00000  Uiso   1.00
N365   N     0.93195   0.07358   0.96286   0.00000  Uiso   1.00
N366   N     0.54979   0.36389   0.86470   0.00000  Uiso   1.00
N367   N     0.60369   0.38901   0.07960   0.00000  Uiso   1.00
N368   N     0.98437   0.19054   0.95820   0.00000  Uiso   1.00
C369   C     0.81278   0.84441   0.22255   0.00000  Uiso   1.00
C370   C     0.76774   0.87520   0.19297   0.00000  Uiso   1.00
C371   C     0.79502   0.93029   0.17070   0.00000  Uiso   1.00
C372   C     0.74489   0.95075   0.14531   0.00000  Uiso   1.00
C373   C     0.68632   0.00367   0.09984   0.00000  Uiso   1.00
C374   C     0.76081   0.86036   0.25220   0.00000  Uiso   1.00
C375   C     0.78227   0.90296   0.27972   0.00000  Uiso   1.00
C376   C     0.72631   0.91091   0.30419   0.00000  Uiso   1.00
C377   C     0.65700   0.94074   0.35068   0.00000  Uiso   1.00
C378   C     0.81551   0.75545   0.21873   0.00000  Uiso   1.00
C379   C     0.88297   0.70983   0.21813   0.00000  Uiso   1.00
C380   C     0.87306   0.62945   0.21444   0.00000  Uiso   1.00
C381   C     0.88867   0.49639   0.20897   0.00000  Uiso   1.00
C382   C     0.67524   0.78276   0.21707   0.00000  Uiso   1.00
C383   C     0.69304   0.84171   0.18999   0.00000  Uiso   1.00
C384   C     0.64285   0.86208   0.16463   0.00000  Uiso   1.00
C385   C     0.67005   0.91720   0.14232   0.00000  Uiso   1.00
C386   C     0.68611   0.82687   0.24922   0.00000  Uiso   1.00
C387   C     0.63010   0.83475   0.27366   0.00000  Uiso   1.00
C388   C     0.65147   0.87736   0.30121   0.00000  Uiso   1.00
C389   C     0.74081   0.72196   0.21575   0.00000  Uiso   1.00
C390   C     0.73079   0.64163   0.21206   0.00000  Uiso   1.00
C391   C     0.79822   0.59590   0.21145   0.00000  Uiso   1.00
H392   H     0.87094   0.87049   0.22487   0.00000  Uiso   1.00
H393   H     0.85284   0.95620   0.17301   0.00000  Uiso   1.00
H394   H     0.84009   0.92886   0.28202   0.00000  Uiso   1.00
H395   H     0.94077   0.73577   0.22044   0.00000  Uiso   1.00
H396   H     0.79982   0.03648   0.11421   0.00000  Uiso   1.00
H397   H     0.77295   0.97882   0.34407   0.00000  Uiso   1.00
H398   H     0.98525   0.57164   0.21421   0.00000  Uiso   1.00
H399   H     0.61707   0.75669   0.21475   0.00000  Uiso   1.00
H400   H     0.58504   0.83616   0.16233   0.00000  Uiso   1.00
H401   H     0.57230   0.80883   0.27134   0.00000  Uiso   1.00
H402   H     0.67297   0.61573   0.20976   0.00000  Uiso   1.00
H403   H     0.58246   0.93906   0.10554   0.00000  Uiso   1.00
H404   H     0.55560   0.88139   0.33540   0.00000  Uiso   1.00
H405   H     0.76789   0.47421   0.20554   0.00000  Uiso   1.00
O406   O     0.67464   0.04212   0.07558   0.00000  Uiso   1.00
O407   O     0.63940   0.96645   0.37715   0.00000  Uiso   1.00
O408   O     0.91793   0.43225   0.20677   0.00000  Uiso   1.00
N409   N     0.75306   0.00264   0.11936   0.00000  Uiso   1.00
N410   N     0.72794   0.94873   0.33426   0.00000  Uiso   1.00
N411   N     0.92642   0.56805   0.21286   0.00000  Uiso   1.00
N412   N     0.63611   0.95021   0.11470   0.00000  Uiso   1.00
N413   N     0.61099   0.89631   0.32960   0.00000  Uiso   1.00
N414   N     0.80946   0.51563   0.20820   0.00000  Uiso   1.00
C415   C     0.31278   0.34441   0.72255   0.00000  Uiso   1.00
C416   C     0.26774   0.37520   0.69297   0.00000  Uiso   1.00
C417   C     0.29502   0.43029   0.67070   0.00000  Uiso   1.00
C418   C     0.24489   0.45075   0.64531   0.00000  Uiso   1.00
C419   C     0.18632   0.50367   0.59984   0.00000  Uiso   1.00
C420   C     0.26081   0.36036   0.75220   0.00000  Uiso   1.00
C421   C     0.28227   0.40296   0.77972   0.00000  Uiso   1.00
C422   C     0.22631   0.41091   0.80419   0.00000  Uiso   1.00
C423   C     0.15700   0.44074   0.85068   0.00000  Uiso   1.00
C424   C     0.31551   0.25545   0.71873   0.00000  Uiso   1.00
C425   C     0.38297   0.20983   0.71813   0.00000  Uiso   1.00
C426   C     0.37306   0.12945   0.71444   0.00000  Uiso   1.00
C427   C     0.38867   0.99639   0.70897   0.00000  Uiso   1.00
C428   C     0.17524   0.28276   0.71707   0.00000  Uiso   1.00
C429   C     0.19304   0.34171   0.68999   0.00000  Uiso   1.00
C430   C     0.14285   0.36208   0.66463   0.00000  Uiso   1.00
C431   C     0.17005   0.41720   0.64232   0.00000  Uiso   1.00
C432   C     0.18611   0.32687   0.74922   0.00000  Uiso   1.00
C433   C     0.13010   0.33475   0.77366   0.00000  Uiso   1.00
C434   C     0.15147   0.37736   0.80121   0.00000  Uiso   1.00
C435   C     0.24081   0.22196   0.71575   0.00000  Uiso   1.00
C436   C     0.23079   0.14163   0.71206   0.00000  Uiso   1.00
C437   C     0.29822   0.09590   0.71145   0.00000  Uiso   1.00
H438   H     0.37094   0.37049   0.72487   0.00000  Uiso   1.00
H439   H     0.35284   0.45620   0.67301   0.00000  Uiso   1.00
H440   H     0.34009   0.42886   0.78202   0.00000  Uiso   1.00
H441   H     0.44077   0.23577   0.72044   0.00000  Uiso   1.00
H442   H     0.29982   0.53648   0.61421   0.00000  Uiso   1.00
H443   H     0.27295   0.47882   0.84407   0.00000  Uiso   1.00
H444   H     0.48525   0.07164   0.71421   0.00000  Uiso   1.00
H445   H     0.11707   0.25669   0.71475   0.00000  Uiso   1.00
H446   H     0.08504   0.33616   0.66233   0.00000  Uiso   1.00
H447   H     0.07230   0.30883   0.77134   0.00000  Uiso   1.00
H448   H     0.17297   0.11573   0.70976   0.00000  Uiso   1.00
H449   H     0.08246   0.43906   0.60554   0.00000  Uiso   1.00
H450   H     0.05560   0.38139   0.83540   0.00000  Uiso   1.00
H451   H     0.26789   0.97421   0.70554   0.00000  Uiso   1.00
O452   O     0.17464   0.54212   0.57558   0.00000  Uiso   1.00
O453   O     0.13940   0.46645   0.87715   0.00000  Uiso   1.00
O454   O     0.41793   0.93225   0.70677   0.00000  Uiso   1.00
N455   N     0.25306   0.50264   0.61936   0.00000  Uiso   1.00
N456   N     0.22794   0.44873   0.83426   0.00000  Uiso   1.00
N457   N     0.42642   0.06805   0.71286   0.00000  Uiso   1.00
N458   N     0.13611   0.45021   0.61470   0.00000  Uiso   1.00
N459   N     0.11099   0.39631   0.82960   0.00000  Uiso   1.00
N460   N     0.30946   0.01563   0.70820   0.00000  Uiso   1.00
C461   C     0.18722   0.15559   0.22255   0.00000  Uiso   1.00
C462   C     0.23226   0.12480   0.19297   0.00000  Uiso   1.00
C463   C     0.20498   0.06971   0.17070   0.00000  Uiso   1.00
C464   C     0.25511   0.04925   0.14531   0.00000  Uiso   1.00
C465   C     0.31368   0.99633   0.09984   0.00000  Uiso   1.00
C466   C     0.23919   0.13964   0.25220   0.00000  Uiso   1.00
C467   C     0.21773   0.09704   0.27972   0.00000  Uiso   1.00
C468   C     0.27369   0.08909   0.30419   0.00000  Uiso   1.00
C469   C     0.34300   0.05926   0.35068   0.00000  Uiso   1.00
C470   C     0.18449   0.24455   0.21873   0.00000  Uiso   1.00
C471   C     0.11703   0.29017   0.21813   0.00000  Uiso   1.00
C472   C     0.12694   0.37055   0.21444   0.00000  Uiso   1.00
C473   C     0.11133   0.50361   0.20897   0.00000  Uiso   1.00
C474   C     0.32476   0.21724   0.21707   0.00000  Uiso   1.00
C475   C     0.30696   0.15829   0.18999   0.00000  Uiso   1.00
C476   C     0.35715   0.13792   0.16463   0.00000  Uiso   1.00
C477   C     0.32995   0.08280   0.14232   0.00000  Uiso   1.00
C478   C     0.31389   0.17313   0.24922   0.00000  Uiso   1.00
C479   C     0.36990   0.16525   0.27366   0.00000  Uiso   1.00
C480   C     0.34853   0.12264   0.30121   0.00000  Uiso   1.00
C481   C     0.25919   0.27804   0.21575   0.00000  Uiso   1.00
C482   C     0.26921   0.35837   0.21206   0.00000  Uiso   1.00
C483   C     0.20178   0.40410   0.21145   0.00000  Uiso   1.00
H484   H     0.12906   0.12951   0.22487   0.00000  Uiso   1.00
H485   H     0.14716   0.04380   0.17301   0.00000  Uiso   1.00
H486   H     0.15991   0.07114   0.28202   0.00000  Uiso   1.00
H487   H     0.05923   0.26423   0.22044   0.00000  Uiso   1.00
H488   H     0.20018   0.96352   0.11421   0.00000  Uiso   1.00
H489   H     0.22705   0.02118   0.34407   0.00000  Uiso   1.00
H490   H     0.01475   0.42836   0.21421   0.00000  Uiso   1.00
H491   H     0.38293   0.24331   0.21475   0.00000  Uiso   1.00
H492   H     0.41496   0.16384   0.16233   0.00000  Uiso   1.00
H493   H     0.42770   0.19117   0.27134   0.00000  Uiso   1.00
H494   H     0.32703   0.38427   0.20976   0.00000  Uiso   1.00
H495   H     0.41754   0.06094   0.10554   0.00000  Uiso   1.00
H496   H     0.44440   0.11861   0.33540   0.00000  Uiso   1.00
H497   H     0.23211   0.52579   0.20554   0.00000  Uiso   1.00
O498   O     0.32536   0.95788   0.07558   0.00000  Uiso   1.00
O499   O     0.36060   0.03355   0.37715   0.00000  Uiso   1.00
O500   O     0.08207   0.56775   0.20677   0.00000  Uiso   1.00
N501   N     0.24694   0.99736   0.11936   0.00000  Uiso   1.00
N502   N     0.27206   0.05127   0.33426   0.00000  Uiso   1.00
N503   N     0.07358   0.43195   0.21286   0.00000  Uiso   1.00
N504   N     0.36389   0.04979   0.11470   0.00000  Uiso   1.00
N505   N     0.38901   0.10369   0.32960   0.00000  Uiso   1.00
N506   N     0.19054   0.48437   0.20820   0.00000  Uiso   1.00
C507   C     0.68722   0.65559   0.72255   0.00000  Uiso   1.00
C508   C     0.73226   0.62480   0.69297   0.00000  Uiso   1.00
C509   C     0.70498   0.56971   0.67070   0.00000  Uiso   1.00
C510   C     0.75511   0.54925   0.64531   0.00000  Uiso   1.00
C511   C     0.81368   0.49633   0.59984   0.00000  Uiso   1.00
C512   C     0.73919   0.63964   0.75220   0.00000  Uiso   1.00
C513   C     0.71773   0.59704   0.77972   0.00000  Uiso   1.00
C514   C     0.77369   0.58909   0.80419   0.00000  Uiso   1.00
C515   C     0.84300   0.55926   0.85068   0.00000  Uiso   1.00
C516   C     0.68449   0.74455   0.71873   0.00000  Uiso   1.00
C517   C     0.61703   0.79017   0.71813   0.00000  Uiso   1.00
C518   C     0.62694   0.87055   0.71444   0.00000  Uiso   1.00
C519   C     0.61133   0.00361   0.70897   0.00000  Uiso   1.00
C520   C     0.82476   0.71724   0.71707   0.00000  Uiso   1.00
C521   C     0.80696   0.65829   0.68999   0.00000  Uiso   1.00
C522   C     0.85715   0.63792   0.66463   0.00000  Uiso   1.00
C523   C     0.82995   0.58280   0.64232   0.00000  Uiso   1.00
C524   C     0.81389   0.67313   0.74922   0.00000  Uiso   1.00
C525   C     0.86990   0.66525   0.77366   0.00000  Uiso   1.00
C526   C     0.84853   0.62264   0.80121   0.00000  Uiso   1.00
C527   C     0.75919   0.77804   0.71575   0.00000  Uiso   1.00
C528   C     0.76921   0.85837   0.71206   0.00000  Uiso   1.00
C529   C     0.70178   0.90410   0.71145   0.00000  Uiso   1.00
H530   H     0.62906   0.62951   0.72487   0.00000  Uiso   1.00
H531   H     0.64716   0.54380   0.67301   0.00000  Uiso   1.00
H532   H     0.65991   0.57114   0.78202   0.00000  Uiso   1.00
H533   H     0.55923   0.76423   0.72044   0.00000  Uiso   1.00
H534   H     0.70018   0.46352   0.61421   0.00000  Uiso   1.00
H535   H     0.72705   0.52118   0.84407   0.00000  Uiso   1.00
H536   H     0.51475   0.92836   0.71421   0.00000  Uiso   1.00
H537   H     0.88293   0.74331   0.71475   0.00000  Uiso   1.00
H538   H     0.91496   0.66384   0.66233   0.00000  Uiso   1.00
H539   H     0.92770   0.69117   0.77134   0.00000  Uiso   1.00
H540   H     0.82703   0.88427   0.70976   0.00000  Uiso   1.00
H541   H     0.91754   0.56094   0.60554   0.00000  Uiso   1.00
H542   H     0.94440   0.61861   0.83540   0.00000  Uiso   1.00
H543   H     0.73211   0.02579   0.70554   0.00000  Uiso   1.00
O544   O     0.82536   0.45788   0.57558   0.00000  Uiso   1.00
O545   O     0.86060   0.53355   0.87715   0.00000  Uiso   1.00
O546   O     0.58207   0.06775   0.70677   0.00000  Uiso   1.00
N547   N     0.74694   0.49736   0.61936   0.00000  Uiso   1.00
N548   N     0.77206   0.55127   0.83426   0.00000  Uiso   1.00
N549   N     0.57358   0.93195   0.71286   0.00000  Uiso   1.00
N550   N     0.86389   0.54979   0.61470   0.00000  Uiso   1.00
N551   N     0.88901   0.60369   0.82960   0.00000  Uiso   1.00
N552   N     0.69054   0.98437   0.70820   0.00000  Uiso   1.00
C553   C     0.65559   0.31278   0.27745   0.00000  Uiso   1.00
C554   C     0.62480   0.26774   0.30703   0.00000  Uiso   1.00
C555   C     0.56971   0.29502   0.32930   0.00000  Uiso   1.00
C556   C     0.54925   0.24489   0.35469   0.00000  Uiso   1.00
C557   C     0.49633   0.18632   0.40016   0.00000  Uiso   1.00
C558   C     0.63964   0.26081   0.24780   0.00000  Uiso   1.00
C559   C     0.59704   0.28227   0.22028   0.00000  Uiso   1.00
C560   C     0.58909   0.22631   0.19581   0.00000  Uiso   1.00
C561   C     0.55926   0.15700   0.14932   0.00000  Uiso   1.00
C562   C     0.74455   0.31551   0.28127   0.00000  Uiso   1.00
C563   C     0.79017   0.38297   0.28187   0.00000  Uiso   1.00
C564   C     0.87055   0.37306   0.28556   0.00000  Uiso   1.00
C565   C     0.00361   0.38867   0.29103   0.00000  Uiso   1.00
C566   C     0.71724   0.17524   0.28293   0.00000  Uiso   1.00
C567   C     0.65829   0.19304   0.31001   0.00000  Uiso   1.00
C568   C     0.63792   0.14285   0.33537   0.00000  Uiso   1.00
C569   C     0.58280   0.17005   0.35768   0.00000  Uiso   1.00
C570   C     0.67313   0.18611   0.25078   0.00000  Uiso   1.00
C571   C     0.66525   0.13010   0.22634   0.00000  Uiso   1.00
C572   C     0.62264   0.15147   0.19879   0.00000  Uiso   1.00
C573   C     0.77804   0.24081   0.28425   0.00000  Uiso   1.00
C574   C     0.85837   0.23079   0.28794   0.00000  Uiso   1.00
C575   C     0.90410   0.29822   0.28855   0.00000  Uiso   1.00
H576   H     0.62951   0.37094   0.27513   0.00000  Uiso   1.00
H577   H     0.54380   0.35284   0.32699   0.00000  Uiso   1.00
H578   H     0.57114   0.34009   0.21798   0.00000  Uiso   1.00
H579   H     0.76423   0.44077   0.27956   0.00000  Uiso   1.00
H580   H     0.46352   0.29982   0.38579   0.00000  Uiso   1.00
H581   H     0.52118   0.27295   0.15593   0.00000  Uiso   1.00
H582   H     0.92836   0.48525   0.28579   0.00000  Uiso   1.00
H583   H     0.74331   0.11707   0.28525   0.00000  Uiso   1.00
H584   H     0.66384   0.08504   0.33767   0.00000  Uiso   1.00
H585   H     0.69117   0.07230   0.22866   0.00000  Uiso   1.00
H586   H     0.88427   0.17297   0.29024   0.00000  Uiso   1.00
H587   H     0.56094   0.08246   0.39446   0.00000  Uiso   1.00
H588   H     0.61861   0.05560   0.16460   0.00000  Uiso   1.00
H589   H     0.02579   0.26789   0.29446   0.00000  Uiso   1.00
O590   O     0.45788   0.17464   0.42442   0.00000  Uiso   1.00
O591   O     0.53355   0.13940   0.12285   0.00000  Uiso   1.00
O592   O     0.06775   0.41793   0.29323   0.00000  Uiso   1.00
N593   N     0.49736   0.25306   0.38064   0.00000  Uiso   1.00
N594   N     0.55127   0.22794   0.16574   0.00000  Uiso   1.00
N595   N     0.93195   0.42642   0.28714   0.00000  Uiso   1.00
N596   N     0.54979   0.13611   0.38530   0.00000  Uiso   1.00
N597   N     0.60369   0.11099   0.17040   0.00000  Uiso   1.00
N598   N     0.98437   0.30946   0.29180   0.00000  Uiso   1.00
C599   C     0.15559   0.81278   0.77745   0.00000  Uiso   1.00
C600   C     0.12480   0.76774   0.80703   0.00000  Uiso   1.00
C601   C     0.06971   0.79502   0.82930   0.00000  Uiso   1.00
C602   C     0.04925   0.74489   0.85469   0.00000  Uiso   1.00
C603   C     0.99633   0.68632   0.90016   0.00000  Uiso   1.00
C604   C     0.13964   0.76081   0.74780   0.00000  Uiso   1.00
C605   C     0.09704   0.78227   0.72028   0.00000  Uiso   1.00
C606   C     0.08909   0.72631   0.69581   0.00000  Uiso   1.00
C607   C     0.05926   0.65700   0.64932   0.00000  Uiso   1.00
C608   C     0.24455   0.81551   0.78127   0.00000  Uiso   1.00
C609   C     0.29017   0.88297   0.78187   0.00000  Uiso   1.00
C610   C     0.37055   0.87306   0.78556   0.00000  Uiso   1.00
C611   C     0.50361   0.88867   0.79103   0.00000  Uiso   1.00
C612   C     0.21724   0.67524   0.78293   0.00000  Uiso   1.00
C613   C     0.15829   0.69304   0.81001   0.00000  Uiso   1.00
C614   C     0.13792   0.64285   0.83537   0.00000  Uiso   1.00
C615   C     0.08280   0.67005   0.85768   0.00000  Uiso   1.00
C616   C     0.17313   0.68611   0.75078   0.00000  Uiso   1.00
C617   C     0.16525   0.63010   0.72634   0.00000  Uiso   1.00
C618   C     0.12264   0.65147   0.69879   0.00000  Uiso   1.00
C619   C     0.27804   0.74081   0.78425   0.00000  Uiso   1.00
C620   C     0.35837   0.73079   0.78794   0.00000  Uiso   1.00
C621   C     0.40410   0.79822   0.78855   0.00000  Uiso   1.00
H622   H     0.12951   0.87094   0.77513   0.00000  Uiso   1.00
H623   H     0.04380   0.85284   0.82699   0.00000  Uiso   1.00
H624   H     0.07114   0.84009   0.71798   0.00000  Uiso   1.00
H625   H     0.26423   0.94077   0.77956   0.00000  Uiso   1.00
H626   H     0.96352   0.79982   0.88579   0.00000  Uiso   1.00
H627   H     0.02118   0.77295   0.65593   0.00000  Uiso   1.00
H628   H     0.42836   0.98525   0.78579   0.00000  Uiso   1.00
H629   H     0.24331   0.61707   0.78525   0.00000  Uiso   1.00
H630   H     0.16384   0.58504   0.83767   0.00000  Uiso   1.00
H631   H     0.19117   0.57230   0.72866   0.00000  Uiso   1.00
H632   H     0.38427   0.67297   0.79024   0.00000  Uiso   1.00
H633   H     0.06094   0.58246   0.89446   0.00000  Uiso   1.00
H634   H     0.11861   0.55560   0.66460   0.00000  Uiso   1.00
H635   H     0.52579   0.76789   0.79446   0.00000  Uiso   1.00
O636   O     0.95788   0.67464   0.92442   0.00000  Uiso   1.00
O637   O     0.03355   0.63940   0.62285   0.00000  Uiso   1.00
O638   O     0.56775   0.91793   0.79323   0.00000  Uiso   1.00
N639   N     0.99736   0.75306   0.88064   0.00000  Uiso   1.00
N640   N     0.05127   0.72794   0.66574   0.00000  Uiso   1.00
N641   N     0.43195   0.92642   0.78714   0.00000  Uiso   1.00
N642   N     0.04979   0.63611   0.88530   0.00000  Uiso   1.00
N643   N     0.10369   0.61099   0.67040   0.00000  Uiso   1.00
N644   N     0.48437   0.80946   0.79180   0.00000  Uiso   1.00
C645   C     0.34441   0.68722   0.27745   0.00000  Uiso   1.00
C646   C     0.37520   0.73226   0.30703   0.00000  Uiso   1.00
C647   C     0.43029   0.70498   0.32930   0.00000  Uiso   1.00
C648   C     0.45075   0.75511   0.35469   0.00000  Uiso   1.00
C649   C     0.50367   0.81368   0.40016   0.00000  Uiso   1.00
C650   C     0.36036   0.73919   0.24780   0.00000  Uiso   1.00
C651   C     0.40296   0.71773   0.22028   0.00000  Uiso   1.00
C652   C     0.41091   0.77369   0.19581   0.00000  Uiso   1.00
C653   C     0.44074   0.84300   0.14932   0.00000  Uiso   1.00
C654   C     0.25545   0.68449   0.28127   0.00000  Uiso   1.00
C655   C     0.20983   0.61703   0.28187   0.00000  Uiso   1.00
C656   C     0.12945   0.62694   0.28556   0.00000  Uiso   1.00
C657   C     0.99639   0.61133   0.29103   0.00000  Uiso   1.00
C658   C     0.28276   0.82476   0.28293   0.00000  Uiso   1.00
C659   C     0.34171   0.80696   0.31001   0.00000  Uiso   1.00
C660   C     0.36208   0.85715   0.33537   0.00000  Uiso   1.00
C661   C     0.41720   0.82995   0.35768   0.00000  Uiso   1.00
C662   C     0.32687   0.81389   0.25078   0.00000  Uiso   1.00
C663   C     0.33475   0.86990   0.22634   0.00000  Uiso   1.00
C664   C     0.37736   0.84853   0.19879   0.00000  Uiso   1.00
C665   C     0.22196   0.75919   0.28425   0.00000  Uiso   1.00
C666   C     0.14163   0.76921   0.28794   0.00000  Uiso   1.00
C667   C     0.09590   0.70178   0.28855   0.00000  Uiso   1.00
H668   H     0.37049   0.62906   0.27513   0.00000  Uiso   1.00
H669   H     0.45620   0.64716   0.32699   0.00000  Uiso   1.00
H670   H     0.42886   0.65991   0.21798   0.00000  Uiso   1.00
H671   H     0.23577   0.55923   0.27956   0.00000  Uiso   1.00
H672   H     0.53648   0.70018   0.38579   0.00000  Uiso   1.00
H673   H     0.47882   0.72705   0.15593   0.00000  Uiso   1.00
H674   H     0.07164   0.51475   0.28579   0.00000  Uiso   1.00
H675   H     0.25669   0.88293   0.28525   0.00000  Uiso   1.00
H676   H     0.33616   0.91496   0.33767   0.00000  Uiso   1.00
H677   H     0.30883   0.92770   0.22866   0.00000  Uiso   1.00
H678   H     0.11573   0.82703   0.29024   0.00000  Uiso   1.00
H679   H     0.43906   0.91754   0.39446   0.00000  Uiso   1.00
H680   H     0.38139   0.94440   0.16460   0.00000  Uiso   1.00
H681   H     0.97421   0.73211   0.29446   0.00000  Uiso   1.00
O682   O     0.54212   0.82536   0.42442   0.00000  Uiso   1.00
O683   O     0.46645   0.86060   0.12285   0.00000  Uiso   1.00
O684   O     0.93225   0.58207   0.29323   0.00000  Uiso   1.00
N685   N     0.50264   0.74694   0.38064   0.00000  Uiso   1.00
N686   N     0.44873   0.77206   0.16574   0.00000  Uiso   1.00
N687   N     0.06805   0.57358   0.28714   0.00000  Uiso   1.00
N688   N     0.45021   0.86389   0.38530   0.00000  Uiso   1.00
N689   N     0.39631   0.88901   0.17040   0.00000  Uiso   1.00
N690   N     0.01563   0.69054   0.29180   0.00000  Uiso   1.00
C691   C     0.84441   0.18722   0.77745   0.00000  Uiso   1.00
C692   C     0.87520   0.23226   0.80703   0.00000  Uiso   1.00
C693   C     0.93029   0.20498   0.82930   0.00000  Uiso   1.00
C694   C     0.95075   0.25511   0.85469   0.00000  Uiso   1.00
C695   C     0.00367   0.31368   0.90016   0.00000  Uiso   1.00
C696   C     0.86036   0.23919   0.74780   0.00000  Uiso   1.00
C697   C     0.90296   0.21773   0.72028   0.00000  Uiso   1.00
C698   C     0.91091   0.27369   0.69581   0.00000  Uiso   1.00
C699   C     0.94074   0.34300   0.64932   0.00000  Uiso   1.00
C700   C     0.75545   0.18449   0.78127   0.00000  Uiso   1.00
C701   C     0.70983   0.11703   0.78187   0.00000  Uiso   1.00
C702   C     0.62945   0.12694   0.78556   0.00000  Uiso   1.00
C703   C     0.49639   0.11133   0.79103   0.00000  Uiso   1.00
C704   C     0.78276   0.32476   0.78293   0.00000  Uiso   1.00
C705   C     0.84171   0.30696   0.81001   0.00000  Uiso   1.00
C706   C     0.86208   0.35715   0.83537   0.00000  Uiso   1.00
C707   C     0.91720   0.32995   0.85768   0.00000  Uiso   1.00
C708   C     0.82687   0.31389   0.75078   0.00000  Uiso   1.00
C709   C     0.83475   0.36990   0.72634   0.00000  Uiso   1.00
C710   C     0.87736   0.34853   0.69879   0.00000  Uiso   1.00
C711   C     0.72196   0.25919   0.78425   0.00000  Uiso   1.00
C712   C     0.64163   0.26921   0.78794   0.00000  Uiso   1.00
C713   C     0.59590   0.20178   0.78855   0.00000  Uiso   1.00
H714   H     0.87049   0.12906   0.77513   0.00000  Uiso   1.00
H715   H     0.95620   0.14716   0.82699   0.00000  Uiso   1.00
H716   H     0.92886   0.15991   0.71798   0.00000  Uiso   1.00
H717   H     0.73577   0.05923   0.77956   0.00000  Uiso   1.00
H718   H     0.03648   0.20018   0.88579   0.00000  Uiso   1.00
H719   H     0.97882   0.22705   0.65593   0.00000  Uiso   1.00
H720   H     0.57164   0.01475   0.78579   0.00000  Uiso   1.00
H721   H     0.75669   0.38293   0.78525   0.00000  Uiso   1.00
H722   H     0.83616   0.41496   0.83767   0.00000  Uiso   1.00
H723   H     0.80883   0.42770   0.72866   0.00000  Uiso   1.00
H724   H     0.61573   0.32703   0.79024   0.00000  Uiso   1.00
H725   H     0.93906   0.41754   0.89446   0.00000  Uiso   1.00
H726   H     0.88139   0.44440   0.66460   0.00000  Uiso   1.00
H727   H     0.47421   0.23211   0.79446   0.00000  Uiso   1.00
O728   O     0.04212   0.32536   0.92442   0.00000  Uiso   1.00
O729   O     0.96645   0.36060   0.62285   0.00000  Uiso   1.00
O730   O     0.43225   0.08207   0.79323   0.00000  Uiso   1.00
N731   N     0.00264   0.24694   0.88064   0.00000  Uiso   1.00
N732   N     0.94873   0.27206   0.66574   0.00000  Uiso   1.00
N733   N     0.56805   0.07358   0.78714   0.00000  Uiso   1.00
N734   N     0.95021   0.36389   0.88530   0.00000  Uiso   1.00
N735   N     0.89631   0.38901   0.67040   0.00000  Uiso   1.00
N736   N     0.51563   0.19054   0.79180   0.00000  Uiso   1.00
