data_job_06683
_audit_creation_date              2018-12-19
_audit_creation_method            'Materials Studio'
_symmetry_space_group_name_H-M    'P1'
_symmetry_Int_Tables_number       1
_symmetry_cell_setting            triclinic
loop_
_symmetry_equiv_pos_as_xyz
  x,y,z
_cell_length_a                    42.1305
_cell_length_b                    20.8089
_cell_length_c                    31.0104
_cell_angle_alpha                 90.0000
_cell_angle_beta                  146.6464
_cell_angle_gamma                 90.0000
loop_
_atom_site_label
_atom_site_type_symbol
_atom_site_fract_x
_atom_site_fract_y
_atom_site_fract_z
_atom_site_U_iso_or_equiv
_atom_site_adp_type
_atom_site_occupancy
C1     C     0.16251   0.48858   0.63473   0.00000  Uiso   1.00
C2     C     0.12220   0.48297   0.55029   0.00000  Uiso   1.00
C3     C     0.07611   0.44071   0.49432   0.00000  Uiso   1.00
C4     C     0.54447   0.94301   0.42042   0.00000  Uiso   1.00
C5     C     0.47978   0.92773   0.29194   0.00000  Uiso   1.00
C6     C     0.22338   0.47849   0.68635   0.00000  Uiso   1.00
C7     C     0.26236   0.43247   0.74479   0.00000  Uiso   1.00
C8     C     0.31590   0.43100   0.78543   0.00000  Uiso   1.00
C9     C     0.40830   0.40879   0.86824   0.00000  Uiso   1.00
C10    C     0.15960   0.55858   0.64581   0.00000  Uiso   1.00
C11    C     0.64497   0.07991   0.67018   0.00000  Uiso   1.00
C12    C     0.14483   0.64589   0.67672   0.00000  Uiso   1.00
C13    C     0.13821   0.74804   0.69657   0.00000  Uiso   1.00
C14    C     0.68828   0.06781   0.60302   0.00000  Uiso   1.00
C15    C     0.63620   0.02600   0.53307   0.00000  Uiso   1.00
C16    C     0.60462   0.02837   0.45924   0.00000  Uiso   1.00
C17    C     0.55849   0.98613   0.40316   0.00000  Uiso   1.00
C18    C     0.73738   0.02152   0.66913   0.00000  Uiso   1.00
C19    C     0.79087   0.02013   0.70971   0.00000  Uiso   1.00
C20    C     0.32992   0.47412   0.76818   0.00000  Uiso   1.00
C21    C     0.17360   0.60162   0.62859   0.00000  Uiso   1.00
C22    C     0.17348   0.66757   0.63510   0.00000  Uiso   1.00
C23    C     0.15885   0.68900   0.65947   0.00000  Uiso   1.00
H24    H     0.15161   0.45508   0.64814   0.00000  Uiso   1.00
H25    H     0.06530   0.40741   0.50767   0.00000  Uiso   1.00
H26    H     0.25152   0.39917   0.75811   0.00000  Uiso   1.00
H27    H     0.63414   0.04660   0.68351   0.00000  Uiso   1.00
H28    H     0.97578   0.37353   0.34435   0.00000  Uiso   1.00
H29    H     0.36845   0.35617   0.87242   0.00000  Uiso   1.00
H30    H     0.12095   0.66704   0.71512   0.00000  Uiso   1.00
H31    H     0.69918   0.10132   0.58961   0.00000  Uiso   1.00
H32    H     0.61547   0.06168   0.44593   0.00000  Uiso   1.00
H33    H     0.80169   0.05344   0.69637   0.00000  Uiso   1.00
H34    H     0.18432   0.70086   0.62176   0.00000  Uiso   1.00
H35    H     0.51651   0.99873   0.29423   0.00000  Uiso   1.00
H36    H     0.90918   0.98138   0.82232   0.00000  Uiso   1.00
H37    H     0.16167   0.79225   0.66501   0.00000  Uiso   1.00
O38    O     0.44023   0.90740   0.22583   0.00000  Uiso   1.00
O39    O     0.45540   0.38464   0.91866   0.00000  Uiso   1.00
O40    O     0.13068   0.79249   0.71227   0.00000  Uiso   1.00
N41    N     0.99685   0.40844   0.35227   0.00000  Uiso   1.00
N42    N     0.36397   0.39221   0.84598   0.00000  Uiso   1.00
N43    N     0.13259   0.68285   0.69893   0.00000  Uiso   1.00
N44    N     0.51876   0.97582   0.32530   0.00000  Uiso   1.00
N45    N     0.38588   0.45959   0.81901   0.00000  Uiso   1.00
N46    N     0.15450   0.75022   0.67197   0.00000  Uiso   1.00
C47    C     0.78582   0.16994   0.90457   0.00000  Uiso   1.00
C48    C     0.30372   0.73300   0.94606   0.00000  Uiso   1.00
C49    C     0.26892   0.78677   0.91157   0.00000  Uiso   1.00
C50    C     0.29333   0.83973   0.95950   0.00000  Uiso   1.00
C51    C     0.31244   0.93780   0.01181   0.00000  Uiso   1.00
C52    C     0.32920   0.65811   0.91767   0.00000  Uiso   1.00
C53    C     0.31581   0.64890   0.85929   0.00000  Uiso   1.00
C54    C     0.36168   0.63880   0.88333   0.00000  Uiso   1.00
C55    C     0.42033   0.62055   0.89155   0.00000  Uiso   1.00
C56    C     0.79668   0.11763   0.95036   0.00000  Uiso   1.00
C57    C     0.75595   0.07437   0.91948   0.00000  Uiso   1.00
C58    C     0.77445   0.03018   0.97104   0.00000  Uiso   1.00
C59    C     0.78261   0.94908   0.03003   0.00000  Uiso   1.00
C60    C     0.89108   0.16837   0.05105   0.00000  Uiso   1.00
C61    C     0.36089   0.73215   0.02562   0.00000  Uiso   1.00
C62    C     0.38537   0.78504   0.07362   0.00000  Uiso   1.00
C63    C     0.35061   0.83888   0.03920   0.00000  Uiso   1.00
C64    C     0.88637   0.15726   0.99722   0.00000  Uiso   1.00
C65    C     0.43226   0.64717   0.02135   0.00000  Uiso   1.00
C66    C     0.41895   0.63795   0.96303   0.00000  Uiso   1.00
C67    C     0.85385   0.11678   0.02992   0.00000  Uiso   1.00
C68    C     0.87241   0.07264   0.08153   0.00000  Uiso   1.00
C69    C     0.83172   0.02933   0.05074   0.00000  Uiso   1.00
H70    H     0.24131   0.67060   0.84263   0.00000  Uiso   1.00
H71    H     0.22468   0.78742   0.84999   0.00000  Uiso   1.00
H72    H     0.27156   0.64956   0.79773   0.00000  Uiso   1.00
H73    H     0.71172   0.07504   0.85791   0.00000  Uiso   1.00
H74    H     0.23145   0.91656   0.89323   0.00000  Uiso   1.00
H75    H     0.33031   0.62585   0.78304   0.00000  Uiso   1.00
H76    H     0.70412   0.96873   0.90993   0.00000  Uiso   1.00
H77    H     0.93559   0.16771   0.11299   0.00000  Uiso   1.00
H78    H     0.42961   0.78437   0.13519   0.00000  Uiso   1.00
H79    H     0.97650   0.14651   0.08292   0.00000  Uiso   1.00
H80    H     0.91665   0.07200   0.14310   0.00000  Uiso   1.00
H81    H     0.39778   0.91409   0.12470   0.00000  Uiso   1.00
H82    H     0.49665   0.62338   0.01450   0.00000  Uiso   1.00
H83    H     0.87045   0.96626   0.14140   0.00000  Uiso   1.00
O84    O     0.30719   0.99213   0.01869   0.00000  Uiso   1.00
O85    O     0.43689   0.61072   0.87411   0.00000  Uiso   1.00
O86    O     0.77132   0.90458   0.04059   0.00000  Uiso   1.00
N87    N     0.27141   0.89997   0.94467   0.00000  Uiso   1.00
N88    N     0.36385   0.62818   0.84164   0.00000  Uiso   1.00
N89    N     0.74586   0.98127   0.96027   0.00000  Uiso   1.00
N90    N     0.36092   0.89864   0.06922   0.00000  Uiso   1.00
N91    N     0.45335   0.62685   0.96619   0.00000  Uiso   1.00
N92    N     0.83537   0.97994   0.08482   0.00000  Uiso   1.00
C93    C     0.33597   0.35076   0.98150   0.00000  Uiso   1.00
C94    C     0.35767   0.28868   0.02664   0.00000  Uiso   1.00
C95    C     0.36115   0.27643   0.07449   0.00000  Uiso   1.00
C96    C     0.38219   0.21669   0.11064   0.00000  Uiso   1.00
C97    C     0.41334   0.12728   0.18248   0.00000  Uiso   1.00
C98    C     0.38469   0.37449   0.00781   0.00000  Uiso   1.00
C99    C     0.91088   0.93438   0.03982   0.00000  Uiso   1.00
C100   C     0.95467   0.94687   0.06011   0.00000  Uiso   1.00
C101   C     0.02773   0.99070   0.10266   0.00000  Uiso   1.00
C102   C     0.28693   0.33133   0.89575   0.00000  Uiso   1.00
C103   C     0.23093   0.35495   0.83354   0.00000  Uiso   1.00
C104   C     0.19242   0.33112   0.75948   0.00000  Uiso   1.00
C105   C     0.11370   0.30794   0.62804   0.00000  Uiso   1.00
C106   C     0.36716   0.26646   0.96060   0.00000  Uiso   1.00
C107   C     0.37461   0.24290   0.01528   0.00000  Uiso   1.00
C108   C     0.39566   0.18316   0.05136   0.00000  Uiso   1.00
C109   C     0.39917   0.17082   0.09926   0.00000  Uiso   1.00
C110   C     0.40163   0.32871   0.99645   0.00000  Uiso   1.00
C111   C     0.44539   0.34112   0.01669   0.00000  Uiso   1.00
C112   C     0.47164   0.40101   0.04873   0.00000  Uiso   1.00
C113   C     0.30388   0.28555   0.88439   0.00000  Uiso   1.00
C114   C     0.26544   0.26168   0.81041   0.00000  Uiso   1.00
C115   C     0.20939   0.28525   0.74810   0.00000  Uiso   1.00
H116   H     0.82278   0.88641   0.99035   0.00000  Uiso   1.00
H117   H     0.84804   0.81187   0.08327   0.00000  Uiso   1.00
H118   H     0.89775   0.96980   0.04860   0.00000  Uiso   1.00
H119   H     0.21783   0.39038   0.84235   0.00000  Uiso   1.00
H120   H     0.38353   0.20906   0.18131   0.00000  Uiso   1.00
H121   H     0.98835   0.04207   0.10817   0.00000  Uiso   1.00
H122   H     0.10895   0.37459   0.67326   0.00000  Uiso   1.00
H123   H     0.38036   0.23082   0.95175   0.00000  Uiso   1.00
H124   H     0.40877   0.14774   0.04256   0.00000  Uiso   1.00
H125   H     0.45849   0.30568   0.00789   0.00000  Uiso   1.00
H126   H     0.27857   0.22625   0.80164   0.00000  Uiso   1.00
H127   H     0.43282   0.07584   0.14828   0.00000  Uiso   1.00
H128   H     0.53764   0.40886   0.07513   0.00000  Uiso   1.00
H129   H     0.15824   0.24138   0.64022   0.00000  Uiso   1.00
O130   O     0.42584   0.09062   0.22525   0.00000  Uiso   1.00
O131   O     0.06335   0.02752   0.12928   0.00000  Uiso   1.00
O132   O     0.06560   0.30779   0.55868   0.00000  Uiso   1.00
N133   N     0.39122   0.18910   0.16106   0.00000  Uiso   1.00
N134   N     0.98922   0.00045   0.09269   0.00000  Uiso   1.00
N135   N     0.13452   0.34388   0.68608   0.00000  Uiso   1.00
N136   N     0.41774   0.11742   0.14329   0.00000  Uiso   1.00
N137   N     0.51575   0.42877   0.07492   0.00000  Uiso   1.00
N138   N     0.16105   0.27220   0.66830   0.00000  Uiso   1.00
C139   C     0.34516   0.02741   0.29386   0.00000  Uiso   1.00
C140   C     0.89063   0.53084   0.38095   0.00000  Uiso   1.00
C141   C     0.93631   0.57392   0.43448   0.00000  Uiso   1.00
C142   C     0.47319   0.06928   0.51148   0.00000  Uiso   1.00
C143   C     0.54507   0.08163   0.64326   0.00000  Uiso   1.00
C144   C     0.28696   0.03444   0.25029   0.00000  Uiso   1.00
C145   C     0.74546   0.58053   0.19396   0.00000  Uiso   1.00
C146   C     0.69506   0.57891   0.16097   0.00000  Uiso   1.00
C147   C     0.60597   0.59682   0.08986   0.00000  Uiso   1.00
C148   C     0.84711   0.45882   0.27884   0.00000  Uiso   1.00
C149   C     0.85618   0.44133   0.24648   0.00000  Uiso   1.00
C150   C     0.85642   0.37604   0.23750   0.00000  Uiso   1.00
C151   C     0.86073   0.27655   0.21071   0.00000  Uiso   1.00
C152   C     0.82943   0.44256   0.33544   0.00000  Uiso   1.00
C153   C     0.88208   0.48475   0.40353   0.00000  Uiso   1.00
C154   C     0.41890   0.98004   0.48048   0.00000  Uiso   1.00
C155   C     0.46463   0.02310   0.53411   0.00000  Uiso   1.00
C156   C     0.77841   0.48835   0.27287   0.00000  Uiso   1.00
C157   C     0.72805   0.48666   0.23996   0.00000  Uiso   1.00
C158   C     0.18650   0.03274   0.18359   0.00000  Uiso   1.00
C159   C     0.83857   0.41273   0.30142   0.00000  Uiso   1.00
C160   C     0.83878   0.34746   0.29248   0.00000  Uiso   1.00
C161   C     0.84785   0.32987   0.26012   0.00000  Uiso   1.00
H162   H     0.35181   0.06330   0.27628   0.00000  Uiso   1.00
H163   H     0.94291   0.60958   0.41698   0.00000  Uiso   1.00
H164   H     0.75209   0.61619   0.17649   0.00000  Uiso   1.00
H165   H     0.36280   0.97701   0.22901   0.00000  Uiso   1.00
H166   H     0.04012   0.64059   0.58292   0.00000  Uiso   1.00
H167   H     0.63776   0.65451   0.07582   0.00000  Uiso   1.00
H168   H     0.87121   0.36103   0.18656   0.00000  Uiso   1.00
H169   H     0.82277   0.40668   0.35302   0.00000  Uiso   1.00
H170   H     0.41227   0.94437   0.49793   0.00000  Uiso   1.00
H171   H     0.72145   0.45098   0.25744   0.00000  Uiso   1.00
H172   H     0.83216   0.31180   0.30996   0.00000  Uiso   1.00
H173   H     0.51526   0.00650   0.64863   0.00000  Uiso   1.00
H174   H     0.11289   0.02042   0.14152   0.00000  Uiso   1.00
H175   H     0.84634   0.22694   0.25227   0.00000  Uiso   1.00
O176   O     0.58708   0.10118   0.70971   0.00000  Uiso   1.00
O177   O     0.55919   0.61944   0.04441   0.00000  Uiso   1.00
O178   O     0.86547   0.23439   0.18970   0.00000  Uiso   1.00
N179   N     0.52199   0.10385   0.57850   0.00000  Uiso   1.00
N180   N     0.64581   0.61687   0.10440   0.00000  Uiso   1.00
N181   N     0.86405   0.34249   0.20792   0.00000  Uiso   1.00
N182   N     0.50861   0.03170   0.61386   0.00000  Uiso   1.00
N183   N     0.13243   0.04472   0.13976   0.00000  Uiso   1.00
N184   N     0.85067   0.27034   0.24327   0.00000  Uiso   1.00
C185   C     0.67453   0.32492   0.97807   0.00000  Uiso   1.00
C186   C     0.64623   0.26356   0.92934   0.00000  Uiso   1.00
C187   C     0.67483   0.20726   0.95088   0.00000  Uiso   1.00
C188   C     0.64118   0.15648   0.89814   0.00000  Uiso   1.00
C189   C     0.60636   0.06038   0.83340   0.00000  Uiso   1.00
C190   C     0.64555   0.33981   0.98818   0.00000  Uiso   1.00
C191   C     0.67357   0.34763   0.05920   0.00000  Uiso   1.00
C192   C     0.63935   0.36104   0.05599   0.00000  Uiso   1.00
C193   C     0.60348   0.38335   0.08260   0.00000  Uiso   1.00
C194   C     0.15602   0.87820   0.92626   0.00000  Uiso   1.00
C195   C     0.19285   0.91832   0.94522   0.00000  Uiso   1.00
C196   C     0.16743   0.96407   0.88989   0.00000  Uiso   1.00
C197   C     0.14783   0.04599   0.82035   0.00000  Uiso   1.00
C198   C     0.56392   0.33486   0.84611   0.00000  Uiso   1.00
C199   C     0.58615   0.26896   0.85767   0.00000  Uiso   1.00
C200   C     0.55244   0.21826   0.80488   0.00000  Uiso   1.00
C201   C     0.58099   0.16189   0.82634   0.00000  Uiso   1.00
C202   C     0.58547   0.34521   0.91651   0.00000  Uiso   1.00
C203   C     0.55119   0.35862   0.91320   0.00000  Uiso   1.00
C204   C     0.57915   0.36645   0.98419   0.00000  Uiso   1.00
C205   C     0.09594   0.88360   0.85459   0.00000  Uiso   1.00
C206   C     0.07046   0.92931   0.79922   0.00000  Uiso   1.00
C207   C     0.10724   0.96948   0.81808   0.00000  Uiso   1.00
H208   H     0.72131   0.32072   0.03387   0.00000  Uiso   1.00
H209   H     0.72132   0.20310   0.00635   0.00000  Uiso   1.00
H210   H     0.72007   0.34345   0.11465   0.00000  Uiso   1.00
H211   H     0.23934   0.91413   0.00069   0.00000  Uiso   1.00
H212   H     0.69484   0.07507   0.94425   0.00000  Uiso   1.00
H213   H     0.69220   0.37102   0.17260   0.00000  Uiso   1.00
H214   H     0.23283   0.02006   0.93229   0.00000  Uiso   1.00
H215   H     0.01714   0.83907   0.79031   0.00000  Uiso   1.00
H216   H     0.50595   0.22245   0.74942   0.00000  Uiso   1.00
H217   H     0.50470   0.36280   0.85773   0.00000  Uiso   1.00
H218   H     0.02396   0.93347   0.74376   0.00000  Uiso   1.00
H219   H     0.52003   0.09077   0.73572   0.00000  Uiso   1.00
H220   H     0.51739   0.38673   0.96407   0.00000  Uiso   1.00
H221   H     0.05803   0.03576   0.72376   0.00000  Uiso   1.00
O222   O     0.60376   0.00587   0.81749   0.00000  Uiso   1.00
O223   O     0.60030   0.39416   0.11708   0.00000  Uiso   1.00
O224   O     0.15361   0.08969   0.80180   0.00000  Uiso   1.00
N225   N     0.65524   0.09478   0.90077   0.00000  Uiso   1.00
N226   N     0.65277   0.37146   0.11427   0.00000  Uiso   1.00
N227   N     0.19076   0.01081   0.88961   0.00000  Uiso   1.00
N228   N     0.56118   0.10322   0.78856   0.00000  Uiso   1.00
N229   N     0.55870   0.37991   0.00206   0.00000  Uiso   1.00
N230   N     0.09669   0.01926   0.77740   0.00000  Uiso   1.00
C231   C     0.18597   0.14999   0.97127   0.00000  Uiso   1.00
C232   C     0.16430   0.21052   0.92417   0.00000  Uiso   1.00
C233   C     0.15806   0.21842   0.87290   0.00000  Uiso   1.00
C234   C     0.13756   0.27743   0.83542   0.00000  Uiso   1.00
C235   C     0.10597   0.36391   0.76022   0.00000  Uiso   1.00
C236   C     0.13881   0.13081   0.94954   0.00000  Uiso   1.00
C237   C     0.11114   0.07169   0.91961   0.00000  Uiso   1.00
C238   C     0.06918   0.06361   0.90350   0.00000  Uiso   1.00
C239   C     0.99804   0.02632   0.86775   0.00000  Uiso   1.00
C240   C     0.23746   0.17083   0.05696   0.00000  Uiso   1.00
C241   C     0.29274   0.14535   0.11736   0.00000  Uiso   1.00
C242   C     0.83384   0.67095   0.19170   0.00000  Uiso   1.00
C243   C     0.91587   0.69580   0.32273   0.00000  Uiso   1.00
C244   C     0.66065   0.74075   0.99588   0.00000  Uiso   1.00
C245   C     0.65054   0.75981   0.93754   0.00000  Uiso   1.00
C246   C     0.63005   0.81883   0.90013   0.00000  Uiso   1.00
C247   C     0.62378   0.82682   0.84881   0.00000  Uiso   1.00
C248   C     0.12505   0.18010   0.96291   0.00000  Uiso   1.00
C249   C     0.58313   0.67210   0.94685   0.00000  Uiso   1.00
C250   C     0.05540   0.11299   0.91690   0.00000  Uiso   1.00
C251   C     0.72371   0.72013   0.07033   0.00000  Uiso   1.00
C252   C     0.76472   0.74577   0.14459   0.00000  Uiso   1.00
C253   C     0.82006   0.72033   0.20509   0.00000  Uiso   1.00
H254   H     0.19668   0.11161   0.96086   0.00000  Uiso   1.00
H255   H     0.16870   0.18026   0.86256   0.00000  Uiso   1.00
H256   H     0.12180   0.03355   0.90928   0.00000  Uiso   1.00
H257   H     0.30337   0.10721   0.10699   0.00000  Uiso   1.00
H258   H     0.13160   0.27809   0.75945   0.00000  Uiso   1.00
H259   H     0.03271   0.96875   0.85799   0.00000  Uiso   1.00
H260   H     0.41559   0.12406   0.27491   0.00000  Uiso   1.00
H261   H     0.64994   0.77912   0.00629   0.00000  Uiso   1.00
H262   H     0.61941   0.85697   0.91049   0.00000  Uiso   1.00
H263   H     0.57250   0.71026   0.95721   0.00000  Uiso   1.00
H264   H     0.75406   0.78391   0.15492   0.00000  Uiso   1.00
H265   H     0.59159   0.92152   0.79835   0.00000  Uiso   1.00
H266   H     0.99270   0.11217   0.89689   0.00000  Uiso   1.00
H267   H     0.87557   0.76749   0.31380   0.00000  Uiso   1.00
O268   O     0.09233   0.39798   0.71504   0.00000  Uiso   1.00
O269   O     0.96260   0.99213   0.84433   0.00000  Uiso   1.00
O270   O     0.96492   0.69590   0.39131   0.00000  Uiso   1.00
N271   N     0.12639   0.30117   0.78177   0.00000  Uiso   1.00
N272   N     0.03392   0.01196   0.87388   0.00000  Uiso   1.00
N273   N     0.89187   0.65715   0.26367   0.00000  Uiso   1.00
N274   N     0.60486   0.87835   0.80270   0.00000  Uiso   1.00
N275   N     0.01239   0.08913   0.89481   0.00000  Uiso   1.00
N276   N     0.87034   0.73432   0.28460   0.00000  Uiso   1.00
C277   C     0.66251   0.98858   0.63473   0.00000  Uiso   1.00
C278   C     0.62220   0.98297   0.55029   0.00000  Uiso   1.00
C279   C     0.57611   0.94071   0.49432   0.00000  Uiso   1.00
C280   C     0.04447   0.44301   0.42042   0.00000  Uiso   1.00
C281   C     0.97978   0.42773   0.29194   0.00000  Uiso   1.00
C282   C     0.72338   0.97849   0.68635   0.00000  Uiso   1.00
C283   C     0.76236   0.93247   0.74479   0.00000  Uiso   1.00
C284   C     0.81590   0.93100   0.78543   0.00000  Uiso   1.00
C285   C     0.90830   0.90879   0.86824   0.00000  Uiso   1.00
C286   C     0.65960   0.05858   0.64581   0.00000  Uiso   1.00
C287   C     0.14497   0.57991   0.67018   0.00000  Uiso   1.00
C288   C     0.64483   0.14589   0.67672   0.00000  Uiso   1.00
C289   C     0.63821   0.24804   0.69657   0.00000  Uiso   1.00
C290   C     0.18828   0.56781   0.60302   0.00000  Uiso   1.00
C291   C     0.13620   0.52600   0.53307   0.00000  Uiso   1.00
C292   C     0.10462   0.52837   0.45924   0.00000  Uiso   1.00
C293   C     0.05849   0.48613   0.40316   0.00000  Uiso   1.00
C294   C     0.23738   0.52152   0.66913   0.00000  Uiso   1.00
C295   C     0.29087   0.52013   0.70971   0.00000  Uiso   1.00
C296   C     0.82992   0.97412   0.76818   0.00000  Uiso   1.00
C297   C     0.67360   0.10162   0.62859   0.00000  Uiso   1.00
C298   C     0.67348   0.16757   0.63510   0.00000  Uiso   1.00
C299   C     0.65885   0.18900   0.65947   0.00000  Uiso   1.00
H300   H     0.65161   0.95508   0.64814   0.00000  Uiso   1.00
H301   H     0.56530   0.90741   0.50767   0.00000  Uiso   1.00
H302   H     0.75152   0.89917   0.75811   0.00000  Uiso   1.00
H303   H     0.13414   0.54660   0.68351   0.00000  Uiso   1.00
H304   H     0.47578   0.87353   0.34435   0.00000  Uiso   1.00
H305   H     0.86845   0.85617   0.87242   0.00000  Uiso   1.00
H306   H     0.62095   0.16704   0.71512   0.00000  Uiso   1.00
H307   H     0.19918   0.60132   0.58961   0.00000  Uiso   1.00
H308   H     0.11547   0.56168   0.44593   0.00000  Uiso   1.00
H309   H     0.30169   0.55344   0.69637   0.00000  Uiso   1.00
H310   H     0.68432   0.20086   0.62176   0.00000  Uiso   1.00
H311   H     0.01651   0.49873   0.29423   0.00000  Uiso   1.00
H312   H     0.40918   0.48138   0.82232   0.00000  Uiso   1.00
H313   H     0.66167   0.29225   0.66501   0.00000  Uiso   1.00
O314   O     0.94023   0.40740   0.22583   0.00000  Uiso   1.00
O315   O     0.95540   0.88464   0.91866   0.00000  Uiso   1.00
O316   O     0.63068   0.29249   0.71227   0.00000  Uiso   1.00
N317   N     0.49685   0.90844   0.35227   0.00000  Uiso   1.00
N318   N     0.86397   0.89221   0.84598   0.00000  Uiso   1.00
N319   N     0.63259   0.18285   0.69893   0.00000  Uiso   1.00
N320   N     0.01876   0.47582   0.32530   0.00000  Uiso   1.00
N321   N     0.88588   0.95959   0.81901   0.00000  Uiso   1.00
N322   N     0.65450   0.25022   0.67197   0.00000  Uiso   1.00
C323   C     0.28582   0.66994   0.90457   0.00000  Uiso   1.00
C324   C     0.80372   0.23300   0.94606   0.00000  Uiso   1.00
C325   C     0.76892   0.28677   0.91157   0.00000  Uiso   1.00
C326   C     0.79333   0.33973   0.95950   0.00000  Uiso   1.00
C327   C     0.81244   0.43780   0.01181   0.00000  Uiso   1.00
C328   C     0.82920   0.15811   0.91767   0.00000  Uiso   1.00
C329   C     0.81581   0.14890   0.85929   0.00000  Uiso   1.00
C330   C     0.86168   0.13880   0.88333   0.00000  Uiso   1.00
C331   C     0.92033   0.12055   0.89155   0.00000  Uiso   1.00
C332   C     0.29668   0.61763   0.95036   0.00000  Uiso   1.00
C333   C     0.25595   0.57437   0.91948   0.00000  Uiso   1.00
C334   C     0.27445   0.53018   0.97104   0.00000  Uiso   1.00
C335   C     0.28261   0.44908   0.03003   0.00000  Uiso   1.00
C336   C     0.39108   0.66837   0.05105   0.00000  Uiso   1.00
C337   C     0.86089   0.23215   0.02562   0.00000  Uiso   1.00
C338   C     0.88537   0.28504   0.07362   0.00000  Uiso   1.00
C339   C     0.85061   0.33888   0.03920   0.00000  Uiso   1.00
C340   C     0.38637   0.65726   0.99722   0.00000  Uiso   1.00
C341   C     0.93226   0.14717   0.02135   0.00000  Uiso   1.00
C342   C     0.91895   0.13795   0.96303   0.00000  Uiso   1.00
C343   C     0.35385   0.61678   0.02992   0.00000  Uiso   1.00
C344   C     0.37241   0.57264   0.08153   0.00000  Uiso   1.00
C345   C     0.33172   0.52933   0.05074   0.00000  Uiso   1.00
H346   H     0.74131   0.17060   0.84263   0.00000  Uiso   1.00
H347   H     0.72468   0.28742   0.84999   0.00000  Uiso   1.00
H348   H     0.77156   0.14956   0.79773   0.00000  Uiso   1.00
H349   H     0.21172   0.57504   0.85791   0.00000  Uiso   1.00
H350   H     0.73145   0.41656   0.89323   0.00000  Uiso   1.00
H351   H     0.83031   0.12585   0.78304   0.00000  Uiso   1.00
H352   H     0.20412   0.46873   0.90993   0.00000  Uiso   1.00
H353   H     0.43559   0.66771   0.11299   0.00000  Uiso   1.00
H354   H     0.92961   0.28437   0.13519   0.00000  Uiso   1.00
H355   H     0.47650   0.64651   0.08292   0.00000  Uiso   1.00
H356   H     0.41665   0.57200   0.14310   0.00000  Uiso   1.00
H357   H     0.89778   0.41409   0.12470   0.00000  Uiso   1.00
H358   H     0.99665   0.12338   0.01450   0.00000  Uiso   1.00
H359   H     0.37045   0.46626   0.14140   0.00000  Uiso   1.00
O360   O     0.80719   0.49213   0.01869   0.00000  Uiso   1.00
O361   O     0.93689   0.11072   0.87411   0.00000  Uiso   1.00
O362   O     0.27132   0.40458   0.04059   0.00000  Uiso   1.00
N363   N     0.77141   0.39997   0.94467   0.00000  Uiso   1.00
N364   N     0.86385   0.12818   0.84164   0.00000  Uiso   1.00
N365   N     0.24586   0.48127   0.96027   0.00000  Uiso   1.00
N366   N     0.86092   0.39864   0.06922   0.00000  Uiso   1.00
N367   N     0.95335   0.12685   0.96619   0.00000  Uiso   1.00
N368   N     0.33537   0.47994   0.08482   0.00000  Uiso   1.00
C369   C     0.83597   0.85076   0.98150   0.00000  Uiso   1.00
C370   C     0.85767   0.78868   0.02664   0.00000  Uiso   1.00
C371   C     0.86115   0.77643   0.07449   0.00000  Uiso   1.00
C372   C     0.88219   0.71669   0.11064   0.00000  Uiso   1.00
C373   C     0.91334   0.62728   0.18248   0.00000  Uiso   1.00
C374   C     0.88469   0.87449   0.00781   0.00000  Uiso   1.00
C375   C     0.41088   0.43438   0.03982   0.00000  Uiso   1.00
C376   C     0.45467   0.44687   0.06011   0.00000  Uiso   1.00
C377   C     0.52773   0.49070   0.10266   0.00000  Uiso   1.00
C378   C     0.78693   0.83133   0.89575   0.00000  Uiso   1.00
C379   C     0.73093   0.85495   0.83354   0.00000  Uiso   1.00
C380   C     0.69242   0.83112   0.75948   0.00000  Uiso   1.00
C381   C     0.61370   0.80794   0.62804   0.00000  Uiso   1.00
C382   C     0.86716   0.76646   0.96060   0.00000  Uiso   1.00
C383   C     0.87461   0.74290   0.01528   0.00000  Uiso   1.00
C384   C     0.89566   0.68316   0.05136   0.00000  Uiso   1.00
C385   C     0.89917   0.67082   0.09926   0.00000  Uiso   1.00
C386   C     0.90163   0.82871   0.99645   0.00000  Uiso   1.00
C387   C     0.94539   0.84112   0.01669   0.00000  Uiso   1.00
C388   C     0.97164   0.90101   0.04873   0.00000  Uiso   1.00
C389   C     0.80388   0.78555   0.88439   0.00000  Uiso   1.00
C390   C     0.76544   0.76168   0.81041   0.00000  Uiso   1.00
C391   C     0.70939   0.78525   0.74810   0.00000  Uiso   1.00
H392   H     0.32278   0.38641   0.99035   0.00000  Uiso   1.00
H393   H     0.34804   0.31187   0.08327   0.00000  Uiso   1.00
H394   H     0.39775   0.46980   0.04860   0.00000  Uiso   1.00
H395   H     0.71783   0.89038   0.84235   0.00000  Uiso   1.00
H396   H     0.88353   0.70906   0.18131   0.00000  Uiso   1.00
H397   H     0.48835   0.54207   0.10817   0.00000  Uiso   1.00
H398   H     0.60895   0.87459   0.67326   0.00000  Uiso   1.00
H399   H     0.88036   0.73082   0.95175   0.00000  Uiso   1.00
H400   H     0.90877   0.64774   0.04256   0.00000  Uiso   1.00
H401   H     0.95849   0.80568   0.00789   0.00000  Uiso   1.00
H402   H     0.77857   0.72625   0.80164   0.00000  Uiso   1.00
H403   H     0.93282   0.57584   0.14828   0.00000  Uiso   1.00
H404   H     0.03764   0.90886   0.07513   0.00000  Uiso   1.00
H405   H     0.65824   0.74138   0.64022   0.00000  Uiso   1.00
O406   O     0.92584   0.59062   0.22525   0.00000  Uiso   1.00
O407   O     0.56335   0.52752   0.12928   0.00000  Uiso   1.00
O408   O     0.56560   0.80779   0.55868   0.00000  Uiso   1.00
N409   N     0.89122   0.68910   0.16106   0.00000  Uiso   1.00
N410   N     0.48922   0.50045   0.09269   0.00000  Uiso   1.00
N411   N     0.63452   0.84388   0.68608   0.00000  Uiso   1.00
N412   N     0.91774   0.61742   0.14329   0.00000  Uiso   1.00
N413   N     0.01575   0.92877   0.07492   0.00000  Uiso   1.00
N414   N     0.66105   0.77220   0.66830   0.00000  Uiso   1.00
C415   C     0.84516   0.52741   0.29386   0.00000  Uiso   1.00
C416   C     0.39063   0.03084   0.38095   0.00000  Uiso   1.00
C417   C     0.43631   0.07392   0.43448   0.00000  Uiso   1.00
C418   C     0.97319   0.56928   0.51148   0.00000  Uiso   1.00
C419   C     0.04507   0.58163   0.64326   0.00000  Uiso   1.00
C420   C     0.78696   0.53444   0.25029   0.00000  Uiso   1.00
C421   C     0.24546   0.08053   0.19396   0.00000  Uiso   1.00
C422   C     0.19506   0.07891   0.16097   0.00000  Uiso   1.00
C423   C     0.10597   0.09682   0.08986   0.00000  Uiso   1.00
C424   C     0.34711   0.95882   0.27884   0.00000  Uiso   1.00
C425   C     0.35618   0.94133   0.24648   0.00000  Uiso   1.00
C426   C     0.35642   0.87604   0.23750   0.00000  Uiso   1.00
C427   C     0.36073   0.77655   0.21071   0.00000  Uiso   1.00
C428   C     0.32943   0.94256   0.33544   0.00000  Uiso   1.00
C429   C     0.38208   0.98475   0.40353   0.00000  Uiso   1.00
C430   C     0.91890   0.48004   0.48048   0.00000  Uiso   1.00
C431   C     0.96463   0.52310   0.53411   0.00000  Uiso   1.00
C432   C     0.27841   0.98835   0.27287   0.00000  Uiso   1.00
C433   C     0.22805   0.98666   0.23996   0.00000  Uiso   1.00
C434   C     0.68650   0.53274   0.18359   0.00000  Uiso   1.00
C435   C     0.33857   0.91273   0.30142   0.00000  Uiso   1.00
C436   C     0.33878   0.84746   0.29248   0.00000  Uiso   1.00
C437   C     0.34785   0.82987   0.26012   0.00000  Uiso   1.00
H438   H     0.85181   0.56330   0.27628   0.00000  Uiso   1.00
H439   H     0.44291   0.10958   0.41698   0.00000  Uiso   1.00
H440   H     0.25209   0.11619   0.17649   0.00000  Uiso   1.00
H441   H     0.86280   0.47701   0.22901   0.00000  Uiso   1.00
H442   H     0.54012   0.14059   0.58292   0.00000  Uiso   1.00
H443   H     0.13776   0.15451   0.07582   0.00000  Uiso   1.00
H444   H     0.37121   0.86103   0.18656   0.00000  Uiso   1.00
H445   H     0.32277   0.90668   0.35302   0.00000  Uiso   1.00
H446   H     0.91227   0.44437   0.49793   0.00000  Uiso   1.00
H447   H     0.22145   0.95098   0.25744   0.00000  Uiso   1.00
H448   H     0.33216   0.81180   0.30996   0.00000  Uiso   1.00
H449   H     0.01526   0.50650   0.64863   0.00000  Uiso   1.00
H450   H     0.61289   0.52042   0.14152   0.00000  Uiso   1.00
H451   H     0.34634   0.72694   0.25227   0.00000  Uiso   1.00
O452   O     0.08708   0.60118   0.70971   0.00000  Uiso   1.00
O453   O     0.05919   0.11944   0.04441   0.00000  Uiso   1.00
O454   O     0.36547   0.73439   0.18970   0.00000  Uiso   1.00
N455   N     0.02199   0.60385   0.57850   0.00000  Uiso   1.00
N456   N     0.14581   0.11687   0.10440   0.00000  Uiso   1.00
N457   N     0.36405   0.84249   0.20792   0.00000  Uiso   1.00
N458   N     0.00861   0.53170   0.61386   0.00000  Uiso   1.00
N459   N     0.63243   0.54472   0.13976   0.00000  Uiso   1.00
N460   N     0.35067   0.77034   0.24327   0.00000  Uiso   1.00
C461   C     0.17453   0.82492   0.97807   0.00000  Uiso   1.00
C462   C     0.14623   0.76356   0.92934   0.00000  Uiso   1.00
C463   C     0.17483   0.70726   0.95088   0.00000  Uiso   1.00
C464   C     0.14118   0.65648   0.89814   0.00000  Uiso   1.00
C465   C     0.10636   0.56038   0.83340   0.00000  Uiso   1.00
C466   C     0.14555   0.83981   0.98818   0.00000  Uiso   1.00
C467   C     0.17357   0.84763   0.05920   0.00000  Uiso   1.00
C468   C     0.13935   0.86104   0.05599   0.00000  Uiso   1.00
C469   C     0.10348   0.88335   0.08260   0.00000  Uiso   1.00
C470   C     0.65602   0.37820   0.92626   0.00000  Uiso   1.00
C471   C     0.69285   0.41832   0.94522   0.00000  Uiso   1.00
C472   C     0.66743   0.46407   0.88989   0.00000  Uiso   1.00
C473   C     0.64783   0.54599   0.82035   0.00000  Uiso   1.00
C474   C     0.06392   0.83486   0.84611   0.00000  Uiso   1.00
C475   C     0.08615   0.76896   0.85767   0.00000  Uiso   1.00
C476   C     0.05244   0.71826   0.80488   0.00000  Uiso   1.00
C477   C     0.08099   0.66189   0.82634   0.00000  Uiso   1.00
C478   C     0.08547   0.84521   0.91651   0.00000  Uiso   1.00
C479   C     0.05119   0.85862   0.91320   0.00000  Uiso   1.00
C480   C     0.07915   0.86645   0.98419   0.00000  Uiso   1.00
C481   C     0.59594   0.38360   0.85459   0.00000  Uiso   1.00
C482   C     0.57046   0.42931   0.79922   0.00000  Uiso   1.00
C483   C     0.60724   0.46948   0.81808   0.00000  Uiso   1.00
H484   H     0.22131   0.82072   0.03387   0.00000  Uiso   1.00
H485   H     0.22132   0.70310   0.00635   0.00000  Uiso   1.00
H486   H     0.22007   0.84345   0.11465   0.00000  Uiso   1.00
H487   H     0.73934   0.41413   0.00069   0.00000  Uiso   1.00
H488   H     0.19484   0.57507   0.94425   0.00000  Uiso   1.00
H489   H     0.19220   0.87102   0.17260   0.00000  Uiso   1.00
H490   H     0.73283   0.52006   0.93229   0.00000  Uiso   1.00
H491   H     0.51714   0.33907   0.79031   0.00000  Uiso   1.00
H492   H     0.00595   0.72245   0.74942   0.00000  Uiso   1.00
H493   H     0.00470   0.86280   0.85773   0.00000  Uiso   1.00
H494   H     0.52396   0.43347   0.74376   0.00000  Uiso   1.00
H495   H     0.02003   0.59077   0.73572   0.00000  Uiso   1.00
H496   H     0.01739   0.88673   0.96407   0.00000  Uiso   1.00
H497   H     0.55803   0.53576   0.72376   0.00000  Uiso   1.00
O498   O     0.10376   0.50587   0.81749   0.00000  Uiso   1.00
O499   O     0.10030   0.89416   0.11708   0.00000  Uiso   1.00
O500   O     0.65361   0.58969   0.80180   0.00000  Uiso   1.00
N501   N     0.15524   0.59478   0.90077   0.00000  Uiso   1.00
N502   N     0.15277   0.87146   0.11427   0.00000  Uiso   1.00
N503   N     0.69076   0.51081   0.88961   0.00000  Uiso   1.00
N504   N     0.06118   0.60322   0.78856   0.00000  Uiso   1.00
N505   N     0.05870   0.87991   0.00206   0.00000  Uiso   1.00
N506   N     0.59669   0.51926   0.77740   0.00000  Uiso   1.00
C507   C     0.68597   0.64999   0.97127   0.00000  Uiso   1.00
C508   C     0.66430   0.71052   0.92417   0.00000  Uiso   1.00
C509   C     0.65806   0.71842   0.87290   0.00000  Uiso   1.00
C510   C     0.63756   0.77743   0.83542   0.00000  Uiso   1.00
C511   C     0.60597   0.86391   0.76022   0.00000  Uiso   1.00
C512   C     0.63881   0.63081   0.94954   0.00000  Uiso   1.00
C513   C     0.61114   0.57169   0.91961   0.00000  Uiso   1.00
C514   C     0.56918   0.56361   0.90350   0.00000  Uiso   1.00
C515   C     0.49804   0.52632   0.86775   0.00000  Uiso   1.00
C516   C     0.73746   0.67083   0.05696   0.00000  Uiso   1.00
C517   C     0.79274   0.64535   0.11736   0.00000  Uiso   1.00
C518   C     0.33384   0.17095   0.19170   0.00000  Uiso   1.00
C519   C     0.41587   0.19580   0.32273   0.00000  Uiso   1.00
C520   C     0.16065   0.24075   0.99588   0.00000  Uiso   1.00
C521   C     0.15054   0.25981   0.93754   0.00000  Uiso   1.00
C522   C     0.13005   0.31883   0.90013   0.00000  Uiso   1.00
C523   C     0.12378   0.32682   0.84881   0.00000  Uiso   1.00
C524   C     0.62505   0.68010   0.96291   0.00000  Uiso   1.00
C525   C     0.08313   0.17210   0.94685   0.00000  Uiso   1.00
C526   C     0.55540   0.61299   0.91690   0.00000  Uiso   1.00
C527   C     0.22371   0.22013   0.07033   0.00000  Uiso   1.00
C528   C     0.26472   0.24577   0.14459   0.00000  Uiso   1.00
C529   C     0.32006   0.22033   0.20509   0.00000  Uiso   1.00
H530   H     0.69668   0.61161   0.96086   0.00000  Uiso   1.00
H531   H     0.66870   0.68026   0.86256   0.00000  Uiso   1.00
H532   H     0.62180   0.53355   0.90928   0.00000  Uiso   1.00
H533   H     0.80337   0.60721   0.10699   0.00000  Uiso   1.00
H534   H     0.63160   0.77809   0.75945   0.00000  Uiso   1.00
H535   H     0.53271   0.46875   0.85799   0.00000  Uiso   1.00
H536   H     0.91559   0.62406   0.27491   0.00000  Uiso   1.00
H537   H     0.14994   0.27912   0.00629   0.00000  Uiso   1.00
H538   H     0.11941   0.35697   0.91049   0.00000  Uiso   1.00
H539   H     0.07250   0.21026   0.95721   0.00000  Uiso   1.00
H540   H     0.25406   0.28391   0.15492   0.00000  Uiso   1.00
H541   H     0.09159   0.42152   0.79835   0.00000  Uiso   1.00
H542   H     0.49270   0.61217   0.89689   0.00000  Uiso   1.00
H543   H     0.37557   0.26749   0.31380   0.00000  Uiso   1.00
O544   O     0.59233   0.89798   0.71504   0.00000  Uiso   1.00
O545   O     0.46260   0.49213   0.84433   0.00000  Uiso   1.00
O546   O     0.46492   0.19590   0.39131   0.00000  Uiso   1.00
N547   N     0.62639   0.80117   0.78177   0.00000  Uiso   1.00
N548   N     0.53392   0.51196   0.87388   0.00000  Uiso   1.00
N549   N     0.39187   0.15715   0.26367   0.00000  Uiso   1.00
N550   N     0.10486   0.37835   0.80270   0.00000  Uiso   1.00
N551   N     0.51239   0.58913   0.89481   0.00000  Uiso   1.00
N552   N     0.37034   0.23432   0.28460   0.00000  Uiso   1.00
C553   C     0.16251   0.51142   0.13473   0.00000  Uiso   1.00
C554   C     0.12220   0.51703   0.05029   0.00000  Uiso   1.00
C555   C     0.07611   0.55929   0.99432   0.00000  Uiso   1.00
C556   C     0.54447   0.05699   0.92042   0.00000  Uiso   1.00
C557   C     0.47978   0.07227   0.79194   0.00000  Uiso   1.00
C558   C     0.22338   0.52151   0.18635   0.00000  Uiso   1.00
C559   C     0.26236   0.56753   0.24479   0.00000  Uiso   1.00
C560   C     0.31590   0.56900   0.28543   0.00000  Uiso   1.00
C561   C     0.40830   0.59121   0.36824   0.00000  Uiso   1.00
C562   C     0.15960   0.44142   0.14581   0.00000  Uiso   1.00
C563   C     0.64497   0.92009   0.17018   0.00000  Uiso   1.00
C564   C     0.14483   0.35411   0.17672   0.00000  Uiso   1.00
C565   C     0.13821   0.25196   0.19657   0.00000  Uiso   1.00
C566   C     0.68828   0.93219   0.10302   0.00000  Uiso   1.00
C567   C     0.63620   0.97400   0.03307   0.00000  Uiso   1.00
C568   C     0.60462   0.97163   0.95924   0.00000  Uiso   1.00
C569   C     0.55849   0.01387   0.90316   0.00000  Uiso   1.00
C570   C     0.73738   0.97848   0.16913   0.00000  Uiso   1.00
C571   C     0.79087   0.97987   0.20971   0.00000  Uiso   1.00
C572   C     0.32992   0.52588   0.26818   0.00000  Uiso   1.00
C573   C     0.17360   0.39838   0.12859   0.00000  Uiso   1.00
C574   C     0.17348   0.33243   0.13510   0.00000  Uiso   1.00
C575   C     0.15885   0.31100   0.15947   0.00000  Uiso   1.00
H576   H     0.15161   0.54492   0.14814   0.00000  Uiso   1.00
H577   H     0.06530   0.59259   0.00767   0.00000  Uiso   1.00
H578   H     0.25152   0.60083   0.25811   0.00000  Uiso   1.00
H579   H     0.63414   0.95340   0.18351   0.00000  Uiso   1.00
H580   H     0.97578   0.62647   0.84435   0.00000  Uiso   1.00
H581   H     0.36845   0.64383   0.37242   0.00000  Uiso   1.00
H582   H     0.12095   0.33296   0.21512   0.00000  Uiso   1.00
H583   H     0.69918   0.89868   0.08961   0.00000  Uiso   1.00
H584   H     0.61547   0.93832   0.94593   0.00000  Uiso   1.00
H585   H     0.80169   0.94656   0.19637   0.00000  Uiso   1.00
H586   H     0.18432   0.29914   0.12176   0.00000  Uiso   1.00
H587   H     0.51651   0.00127   0.79423   0.00000  Uiso   1.00
H588   H     0.90918   0.01862   0.32232   0.00000  Uiso   1.00
H589   H     0.16167   0.20775   0.16501   0.00000  Uiso   1.00
O590   O     0.44023   0.09260   0.72583   0.00000  Uiso   1.00
O591   O     0.45540   0.61536   0.41866   0.00000  Uiso   1.00
O592   O     0.13068   0.20751   0.21227   0.00000  Uiso   1.00
N593   N     0.99685   0.59156   0.85227   0.00000  Uiso   1.00
N594   N     0.36397   0.60779   0.34598   0.00000  Uiso   1.00
N595   N     0.13259   0.31715   0.19893   0.00000  Uiso   1.00
N596   N     0.51876   0.02418   0.82530   0.00000  Uiso   1.00
N597   N     0.38588   0.54041   0.31901   0.00000  Uiso   1.00
N598   N     0.15450   0.24978   0.17197   0.00000  Uiso   1.00
C599   C     0.78582   0.83006   0.40457   0.00000  Uiso   1.00
C600   C     0.30372   0.26700   0.44606   0.00000  Uiso   1.00
C601   C     0.26892   0.21323   0.41157   0.00000  Uiso   1.00
C602   C     0.29333   0.16027   0.45950   0.00000  Uiso   1.00
C603   C     0.31244   0.06220   0.51181   0.00000  Uiso   1.00
C604   C     0.32920   0.34189   0.41767   0.00000  Uiso   1.00
C605   C     0.31581   0.35110   0.35929   0.00000  Uiso   1.00
C606   C     0.36168   0.36120   0.38333   0.00000  Uiso   1.00
C607   C     0.42033   0.37945   0.39155   0.00000  Uiso   1.00
C608   C     0.79668   0.88237   0.45036   0.00000  Uiso   1.00
C609   C     0.75595   0.92563   0.41948   0.00000  Uiso   1.00
C610   C     0.77445   0.96982   0.47104   0.00000  Uiso   1.00
C611   C     0.78261   0.05092   0.53003   0.00000  Uiso   1.00
C612   C     0.89108   0.83163   0.55105   0.00000  Uiso   1.00
C613   C     0.36089   0.26785   0.52562   0.00000  Uiso   1.00
C614   C     0.38537   0.21496   0.57362   0.00000  Uiso   1.00
C615   C     0.35061   0.16112   0.53920   0.00000  Uiso   1.00
C616   C     0.88637   0.84274   0.49722   0.00000  Uiso   1.00
C617   C     0.43226   0.35283   0.52135   0.00000  Uiso   1.00
C618   C     0.41895   0.36205   0.46303   0.00000  Uiso   1.00
C619   C     0.85385   0.88322   0.52992   0.00000  Uiso   1.00
C620   C     0.87241   0.92736   0.58153   0.00000  Uiso   1.00
C621   C     0.83172   0.97067   0.55074   0.00000  Uiso   1.00
H622   H     0.24131   0.32940   0.34263   0.00000  Uiso   1.00
H623   H     0.22468   0.21258   0.34999   0.00000  Uiso   1.00
H624   H     0.27156   0.35044   0.29773   0.00000  Uiso   1.00
H625   H     0.71172   0.92496   0.35791   0.00000  Uiso   1.00
H626   H     0.23145   0.08344   0.39323   0.00000  Uiso   1.00
H627   H     0.33031   0.37415   0.28304   0.00000  Uiso   1.00
H628   H     0.70412   0.03127   0.40993   0.00000  Uiso   1.00
H629   H     0.93559   0.83229   0.61299   0.00000  Uiso   1.00
H630   H     0.42961   0.21563   0.63519   0.00000  Uiso   1.00
H631   H     0.97650   0.85349   0.58292   0.00000  Uiso   1.00
H632   H     0.91665   0.92800   0.64310   0.00000  Uiso   1.00
H633   H     0.39778   0.08591   0.62470   0.00000  Uiso   1.00
H634   H     0.49665   0.37662   0.51450   0.00000  Uiso   1.00
H635   H     0.87045   0.03374   0.64140   0.00000  Uiso   1.00
O636   O     0.30719   0.00787   0.51869   0.00000  Uiso   1.00
O637   O     0.43689   0.38928   0.37411   0.00000  Uiso   1.00
O638   O     0.77132   0.09542   0.54059   0.00000  Uiso   1.00
N639   N     0.27141   0.10003   0.44467   0.00000  Uiso   1.00
N640   N     0.36385   0.37182   0.34164   0.00000  Uiso   1.00
N641   N     0.74586   0.01873   0.46027   0.00000  Uiso   1.00
N642   N     0.36092   0.10136   0.56922   0.00000  Uiso   1.00
N643   N     0.45335   0.37315   0.46619   0.00000  Uiso   1.00
N644   N     0.83537   0.02006   0.58482   0.00000  Uiso   1.00
C645   C     0.33597   0.64924   0.48150   0.00000  Uiso   1.00
C646   C     0.35767   0.71132   0.52664   0.00000  Uiso   1.00
C647   C     0.36115   0.72357   0.57449   0.00000  Uiso   1.00
C648   C     0.38219   0.78331   0.61064   0.00000  Uiso   1.00
C649   C     0.41334   0.87272   0.68248   0.00000  Uiso   1.00
C650   C     0.38469   0.62551   0.50781   0.00000  Uiso   1.00
C651   C     0.91088   0.06562   0.53982   0.00000  Uiso   1.00
C652   C     0.95467   0.05313   0.56011   0.00000  Uiso   1.00
C653   C     0.02773   0.00930   0.60266   0.00000  Uiso   1.00
C654   C     0.28693   0.66867   0.39575   0.00000  Uiso   1.00
C655   C     0.23093   0.64505   0.33354   0.00000  Uiso   1.00
C656   C     0.19242   0.66888   0.25948   0.00000  Uiso   1.00
C657   C     0.11370   0.69206   0.12804   0.00000  Uiso   1.00
C658   C     0.36716   0.73354   0.46060   0.00000  Uiso   1.00
C659   C     0.37461   0.75710   0.51528   0.00000  Uiso   1.00
C660   C     0.39566   0.81684   0.55136   0.00000  Uiso   1.00
C661   C     0.39917   0.82918   0.59926   0.00000  Uiso   1.00
C662   C     0.40163   0.67129   0.49645   0.00000  Uiso   1.00
C663   C     0.44539   0.65888   0.51669   0.00000  Uiso   1.00
C664   C     0.47164   0.59899   0.54873   0.00000  Uiso   1.00
C665   C     0.30388   0.71445   0.38439   0.00000  Uiso   1.00
C666   C     0.26544   0.73832   0.31041   0.00000  Uiso   1.00
C667   C     0.20939   0.71475   0.24810   0.00000  Uiso   1.00
H668   H     0.82278   0.11359   0.49035   0.00000  Uiso   1.00
H669   H     0.84804   0.18813   0.58327   0.00000  Uiso   1.00
H670   H     0.89775   0.03020   0.54860   0.00000  Uiso   1.00
H671   H     0.21783   0.60962   0.34235   0.00000  Uiso   1.00
H672   H     0.38353   0.79094   0.68131   0.00000  Uiso   1.00
H673   H     0.98835   0.95793   0.60817   0.00000  Uiso   1.00
H674   H     0.10895   0.62541   0.17326   0.00000  Uiso   1.00
H675   H     0.38036   0.76918   0.45175   0.00000  Uiso   1.00
H676   H     0.40877   0.85226   0.54256   0.00000  Uiso   1.00
H677   H     0.45849   0.69432   0.50789   0.00000  Uiso   1.00
H678   H     0.27857   0.77375   0.30164   0.00000  Uiso   1.00
H679   H     0.43282   0.92416   0.64828   0.00000  Uiso   1.00
H680   H     0.53764   0.59114   0.57513   0.00000  Uiso   1.00
H681   H     0.15824   0.75862   0.14022   0.00000  Uiso   1.00
O682   O     0.42584   0.90938   0.72525   0.00000  Uiso   1.00
O683   O     0.06335   0.97248   0.62928   0.00000  Uiso   1.00
O684   O     0.06560   0.69221   0.05868   0.00000  Uiso   1.00
N685   N     0.39122   0.81090   0.66106   0.00000  Uiso   1.00
N686   N     0.98922   0.99955   0.59269   0.00000  Uiso   1.00
N687   N     0.13452   0.65612   0.18608   0.00000  Uiso   1.00
N688   N     0.41774   0.88258   0.64329   0.00000  Uiso   1.00
N689   N     0.51575   0.57123   0.57492   0.00000  Uiso   1.00
N690   N     0.16105   0.72780   0.16830   0.00000  Uiso   1.00
C691   C     0.34516   0.97259   0.79386   0.00000  Uiso   1.00
C692   C     0.89063   0.46916   0.88095   0.00000  Uiso   1.00
C693   C     0.93631   0.42608   0.93448   0.00000  Uiso   1.00
C694   C     0.47319   0.93072   0.01148   0.00000  Uiso   1.00
C695   C     0.54507   0.91837   0.14326   0.00000  Uiso   1.00
C696   C     0.28696   0.96556   0.75029   0.00000  Uiso   1.00
C697   C     0.74546   0.41947   0.69396   0.00000  Uiso   1.00
C698   C     0.69506   0.42109   0.66097   0.00000  Uiso   1.00
C699   C     0.60597   0.40318   0.58986   0.00000  Uiso   1.00
C700   C     0.84711   0.54118   0.77884   0.00000  Uiso   1.00
C701   C     0.85618   0.55867   0.74648   0.00000  Uiso   1.00
C702   C     0.85642   0.62396   0.73750   0.00000  Uiso   1.00
C703   C     0.86073   0.72345   0.71071   0.00000  Uiso   1.00
C704   C     0.82943   0.55744   0.83544   0.00000  Uiso   1.00
C705   C     0.88208   0.51525   0.90353   0.00000  Uiso   1.00
C706   C     0.41890   0.01996   0.98048   0.00000  Uiso   1.00
C707   C     0.46463   0.97690   0.03411   0.00000  Uiso   1.00
C708   C     0.77841   0.51165   0.77287   0.00000  Uiso   1.00
C709   C     0.72805   0.51334   0.73996   0.00000  Uiso   1.00
C710   C     0.18650   0.96726   0.68359   0.00000  Uiso   1.00
C711   C     0.83857   0.58727   0.80142   0.00000  Uiso   1.00
C712   C     0.83878   0.65255   0.79248   0.00000  Uiso   1.00
C713   C     0.84785   0.67013   0.76012   0.00000  Uiso   1.00
H714   H     0.35181   0.93670   0.77628   0.00000  Uiso   1.00
H715   H     0.94291   0.39042   0.91698   0.00000  Uiso   1.00
H716   H     0.75209   0.38381   0.67649   0.00000  Uiso   1.00
H717   H     0.36280   0.02299   0.72901   0.00000  Uiso   1.00
H718   H     0.04012   0.35941   0.08292   0.00000  Uiso   1.00
H719   H     0.63776   0.34549   0.57582   0.00000  Uiso   1.00
H720   H     0.87121   0.63897   0.68656   0.00000  Uiso   1.00
H721   H     0.82277   0.59332   0.85302   0.00000  Uiso   1.00
H722   H     0.41227   0.05563   0.99793   0.00000  Uiso   1.00
H723   H     0.72145   0.54902   0.75744   0.00000  Uiso   1.00
H724   H     0.83216   0.68820   0.80996   0.00000  Uiso   1.00
H725   H     0.51526   0.99350   0.14863   0.00000  Uiso   1.00
H726   H     0.11289   0.97958   0.64152   0.00000  Uiso   1.00
H727   H     0.84634   0.77306   0.75227   0.00000  Uiso   1.00
O728   O     0.58708   0.89882   0.20971   0.00000  Uiso   1.00
O729   O     0.55919   0.38056   0.54441   0.00000  Uiso   1.00
O730   O     0.86547   0.76561   0.68970   0.00000  Uiso   1.00
N731   N     0.52199   0.89615   0.07850   0.00000  Uiso   1.00
N732   N     0.64581   0.38313   0.60440   0.00000  Uiso   1.00
N733   N     0.86405   0.65751   0.70792   0.00000  Uiso   1.00
N734   N     0.50861   0.96830   0.11386   0.00000  Uiso   1.00
N735   N     0.13243   0.95528   0.63976   0.00000  Uiso   1.00
N736   N     0.85067   0.72966   0.74327   0.00000  Uiso   1.00
C737   C     0.67453   0.67508   0.47807   0.00000  Uiso   1.00
C738   C     0.64623   0.73644   0.42934   0.00000  Uiso   1.00
C739   C     0.67483   0.79274   0.45088   0.00000  Uiso   1.00
C740   C     0.64118   0.84352   0.39814   0.00000  Uiso   1.00
C741   C     0.60636   0.93962   0.33340   0.00000  Uiso   1.00
C742   C     0.64555   0.66019   0.48818   0.00000  Uiso   1.00
C743   C     0.67357   0.65237   0.55920   0.00000  Uiso   1.00
C744   C     0.63935   0.63896   0.55599   0.00000  Uiso   1.00
C745   C     0.60348   0.61665   0.58260   0.00000  Uiso   1.00
C746   C     0.15602   0.12180   0.42626   0.00000  Uiso   1.00
C747   C     0.19285   0.08168   0.44522   0.00000  Uiso   1.00
C748   C     0.16743   0.03593   0.38989   0.00000  Uiso   1.00
C749   C     0.14783   0.95401   0.32035   0.00000  Uiso   1.00
C750   C     0.56392   0.66514   0.34611   0.00000  Uiso   1.00
C751   C     0.58615   0.73104   0.35767   0.00000  Uiso   1.00
C752   C     0.55244   0.78174   0.30488   0.00000  Uiso   1.00
C753   C     0.58099   0.83811   0.32634   0.00000  Uiso   1.00
C754   C     0.58547   0.65479   0.41651   0.00000  Uiso   1.00
C755   C     0.55119   0.64138   0.41320   0.00000  Uiso   1.00
C756   C     0.57915   0.63355   0.48419   0.00000  Uiso   1.00
C757   C     0.09594   0.11640   0.35459   0.00000  Uiso   1.00
C758   C     0.07046   0.07069   0.29922   0.00000  Uiso   1.00
C759   C     0.10724   0.03052   0.31808   0.00000  Uiso   1.00
H760   H     0.72131   0.67928   0.53387   0.00000  Uiso   1.00
H761   H     0.72132   0.79690   0.50635   0.00000  Uiso   1.00
H762   H     0.72007   0.65655   0.61465   0.00000  Uiso   1.00
H763   H     0.23934   0.08587   0.50069   0.00000  Uiso   1.00
H764   H     0.69484   0.92493   0.44425   0.00000  Uiso   1.00
H765   H     0.69220   0.62898   0.67260   0.00000  Uiso   1.00
H766   H     0.23283   0.97994   0.43229   0.00000  Uiso   1.00
H767   H     0.01714   0.16093   0.29031   0.00000  Uiso   1.00
H768   H     0.50595   0.77755   0.24942   0.00000  Uiso   1.00
H769   H     0.50470   0.63720   0.35773   0.00000  Uiso   1.00
H770   H     0.02396   0.06653   0.24376   0.00000  Uiso   1.00
H771   H     0.52003   0.90923   0.23572   0.00000  Uiso   1.00
H772   H     0.51739   0.61327   0.46407   0.00000  Uiso   1.00
H773   H     0.05803   0.96424   0.22376   0.00000  Uiso   1.00
O774   O     0.60376   0.99413   0.31749   0.00000  Uiso   1.00
O775   O     0.60030   0.60584   0.61708   0.00000  Uiso   1.00
O776   O     0.15361   0.91031   0.30180   0.00000  Uiso   1.00
N777   N     0.65524   0.90522   0.40077   0.00000  Uiso   1.00
N778   N     0.65277   0.62854   0.61427   0.00000  Uiso   1.00
N779   N     0.19076   0.98919   0.38961   0.00000  Uiso   1.00
N780   N     0.56118   0.89678   0.28856   0.00000  Uiso   1.00
N781   N     0.55870   0.62009   0.50206   0.00000  Uiso   1.00
N782   N     0.09669   0.98074   0.27740   0.00000  Uiso   1.00
C783   C     0.18597   0.85001   0.47127   0.00000  Uiso   1.00
C784   C     0.16430   0.78948   0.42417   0.00000  Uiso   1.00
C785   C     0.15806   0.78158   0.37290   0.00000  Uiso   1.00
C786   C     0.13756   0.72257   0.33542   0.00000  Uiso   1.00
C787   C     0.10597   0.63609   0.26022   0.00000  Uiso   1.00
C788   C     0.13881   0.86919   0.44954   0.00000  Uiso   1.00
C789   C     0.11114   0.92831   0.41961   0.00000  Uiso   1.00
C790   C     0.06918   0.93639   0.40350   0.00000  Uiso   1.00
C791   C     0.99804   0.97368   0.36775   0.00000  Uiso   1.00
C792   C     0.23746   0.82917   0.55696   0.00000  Uiso   1.00
C793   C     0.29274   0.85465   0.61736   0.00000  Uiso   1.00
C794   C     0.83384   0.32905   0.69170   0.00000  Uiso   1.00
C795   C     0.91587   0.30420   0.82273   0.00000  Uiso   1.00
C796   C     0.66065   0.25925   0.49588   0.00000  Uiso   1.00
C797   C     0.65054   0.24019   0.43754   0.00000  Uiso   1.00
C798   C     0.63005   0.18117   0.40013   0.00000  Uiso   1.00
C799   C     0.62378   0.17318   0.34881   0.00000  Uiso   1.00
C800   C     0.12505   0.81990   0.46291   0.00000  Uiso   1.00
C801   C     0.58313   0.32790   0.44685   0.00000  Uiso   1.00
C802   C     0.05540   0.88701   0.41690   0.00000  Uiso   1.00
C803   C     0.72371   0.27987   0.57033   0.00000  Uiso   1.00
C804   C     0.76472   0.25423   0.64459   0.00000  Uiso   1.00
C805   C     0.82006   0.27967   0.70509   0.00000  Uiso   1.00
H806   H     0.19668   0.88839   0.46086   0.00000  Uiso   1.00
H807   H     0.16870   0.81974   0.36256   0.00000  Uiso   1.00
H808   H     0.12180   0.96645   0.40928   0.00000  Uiso   1.00
H809   H     0.30337   0.89279   0.60699   0.00000  Uiso   1.00
H810   H     0.13160   0.72191   0.25945   0.00000  Uiso   1.00
H811   H     0.03271   0.03125   0.35799   0.00000  Uiso   1.00
H812   H     0.41559   0.87594   0.77491   0.00000  Uiso   1.00
H813   H     0.64994   0.22088   0.50629   0.00000  Uiso   1.00
H814   H     0.61941   0.14303   0.41049   0.00000  Uiso   1.00
H815   H     0.57250   0.28974   0.45721   0.00000  Uiso   1.00
H816   H     0.75406   0.21609   0.65492   0.00000  Uiso   1.00
H817   H     0.59159   0.07848   0.29835   0.00000  Uiso   1.00
H818   H     0.99270   0.88783   0.39689   0.00000  Uiso   1.00
H819   H     0.87557   0.23251   0.81380   0.00000  Uiso   1.00
O820   O     0.09233   0.60202   0.21504   0.00000  Uiso   1.00
O821   O     0.96260   0.00787   0.34433   0.00000  Uiso   1.00
O822   O     0.96492   0.30410   0.89131   0.00000  Uiso   1.00
N823   N     0.12639   0.69883   0.28177   0.00000  Uiso   1.00
N824   N     0.03392   0.98804   0.37388   0.00000  Uiso   1.00
N825   N     0.89187   0.34285   0.76367   0.00000  Uiso   1.00
N826   N     0.60486   0.12165   0.30270   0.00000  Uiso   1.00
N827   N     0.01239   0.91087   0.39481   0.00000  Uiso   1.00
N828   N     0.87034   0.26568   0.78460   0.00000  Uiso   1.00
C829   C     0.66251   0.01142   0.13473   0.00000  Uiso   1.00
C830   C     0.62220   0.01703   0.05029   0.00000  Uiso   1.00
C831   C     0.57611   0.05929   0.99432   0.00000  Uiso   1.00
C832   C     0.04447   0.55699   0.92042   0.00000  Uiso   1.00
C833   C     0.97978   0.57227   0.79194   0.00000  Uiso   1.00
C834   C     0.72338   0.02151   0.18635   0.00000  Uiso   1.00
C835   C     0.76236   0.06753   0.24479   0.00000  Uiso   1.00
C836   C     0.81590   0.06900   0.28543   0.00000  Uiso   1.00
C837   C     0.90830   0.09121   0.36824   0.00000  Uiso   1.00
C838   C     0.65960   0.94142   0.14581   0.00000  Uiso   1.00
C839   C     0.14497   0.42009   0.17018   0.00000  Uiso   1.00
C840   C     0.64483   0.85411   0.17672   0.00000  Uiso   1.00
C841   C     0.63821   0.75196   0.19657   0.00000  Uiso   1.00
C842   C     0.18828   0.43219   0.10302   0.00000  Uiso   1.00
C843   C     0.13620   0.47400   0.03307   0.00000  Uiso   1.00
C844   C     0.10462   0.47163   0.95924   0.00000  Uiso   1.00
C845   C     0.05849   0.51387   0.90316   0.00000  Uiso   1.00
C846   C     0.23738   0.47848   0.16913   0.00000  Uiso   1.00
C847   C     0.29087   0.47987   0.20971   0.00000  Uiso   1.00
C848   C     0.82992   0.02588   0.26818   0.00000  Uiso   1.00
C849   C     0.67360   0.89838   0.12859   0.00000  Uiso   1.00
C850   C     0.67348   0.83243   0.13510   0.00000  Uiso   1.00
C851   C     0.65885   0.81100   0.15947   0.00000  Uiso   1.00
H852   H     0.65161   0.04492   0.14814   0.00000  Uiso   1.00
H853   H     0.56530   0.09259   0.00767   0.00000  Uiso   1.00
H854   H     0.75152   0.10083   0.25811   0.00000  Uiso   1.00
H855   H     0.13414   0.45340   0.18351   0.00000  Uiso   1.00
H856   H     0.47578   0.12647   0.84435   0.00000  Uiso   1.00
H857   H     0.86845   0.14383   0.37242   0.00000  Uiso   1.00
H858   H     0.62095   0.83296   0.21512   0.00000  Uiso   1.00
H859   H     0.19918   0.39868   0.08961   0.00000  Uiso   1.00
H860   H     0.11547   0.43832   0.94593   0.00000  Uiso   1.00
H861   H     0.30169   0.44656   0.19637   0.00000  Uiso   1.00
H862   H     0.68432   0.79914   0.12176   0.00000  Uiso   1.00
H863   H     0.01651   0.50127   0.79423   0.00000  Uiso   1.00
H864   H     0.40918   0.51862   0.32232   0.00000  Uiso   1.00
H865   H     0.66167   0.70775   0.16501   0.00000  Uiso   1.00
O866   O     0.94023   0.59260   0.72583   0.00000  Uiso   1.00
O867   O     0.95540   0.11536   0.41866   0.00000  Uiso   1.00
O868   O     0.63068   0.70751   0.21227   0.00000  Uiso   1.00
N869   N     0.49685   0.09156   0.85227   0.00000  Uiso   1.00
N870   N     0.86397   0.10779   0.34598   0.00000  Uiso   1.00
N871   N     0.63259   0.81715   0.19893   0.00000  Uiso   1.00
N872   N     0.01876   0.52418   0.82530   0.00000  Uiso   1.00
N873   N     0.88588   0.04041   0.31901   0.00000  Uiso   1.00
N874   N     0.65450   0.74978   0.17197   0.00000  Uiso   1.00
C875   C     0.28582   0.33006   0.40457   0.00000  Uiso   1.00
C876   C     0.80372   0.76700   0.44606   0.00000  Uiso   1.00
C877   C     0.76892   0.71323   0.41157   0.00000  Uiso   1.00
C878   C     0.79333   0.66027   0.45950   0.00000  Uiso   1.00
C879   C     0.81244   0.56220   0.51181   0.00000  Uiso   1.00
C880   C     0.82920   0.84189   0.41767   0.00000  Uiso   1.00
C881   C     0.81581   0.85110   0.35929   0.00000  Uiso   1.00
C882   C     0.86168   0.86120   0.38333   0.00000  Uiso   1.00
C883   C     0.92033   0.87945   0.39155   0.00000  Uiso   1.00
C884   C     0.29668   0.38237   0.45036   0.00000  Uiso   1.00
C885   C     0.25595   0.42563   0.41948   0.00000  Uiso   1.00
C886   C     0.27445   0.46982   0.47104   0.00000  Uiso   1.00
C887   C     0.28261   0.55092   0.53003   0.00000  Uiso   1.00
C888   C     0.39108   0.33163   0.55105   0.00000  Uiso   1.00
C889   C     0.86089   0.76785   0.52562   0.00000  Uiso   1.00
C890   C     0.88537   0.71496   0.57362   0.00000  Uiso   1.00
C891   C     0.85061   0.66112   0.53920   0.00000  Uiso   1.00
C892   C     0.38637   0.34274   0.49722   0.00000  Uiso   1.00
C893   C     0.93226   0.85283   0.52135   0.00000  Uiso   1.00
C894   C     0.91895   0.86205   0.46303   0.00000  Uiso   1.00
C895   C     0.35385   0.38322   0.52992   0.00000  Uiso   1.00
C896   C     0.37241   0.42736   0.58153   0.00000  Uiso   1.00
C897   C     0.33172   0.47067   0.55074   0.00000  Uiso   1.00
H898   H     0.74131   0.82940   0.34263   0.00000  Uiso   1.00
H899   H     0.72468   0.71258   0.34999   0.00000  Uiso   1.00
H900   H     0.77156   0.85044   0.29773   0.00000  Uiso   1.00
H901   H     0.21172   0.42496   0.35791   0.00000  Uiso   1.00
H902   H     0.73145   0.58344   0.39323   0.00000  Uiso   1.00
H903   H     0.83031   0.87415   0.28304   0.00000  Uiso   1.00
H904   H     0.20412   0.53127   0.40993   0.00000  Uiso   1.00
H905   H     0.43559   0.33229   0.61299   0.00000  Uiso   1.00
H906   H     0.92961   0.71563   0.63519   0.00000  Uiso   1.00
H907   H     0.47650   0.35349   0.58292   0.00000  Uiso   1.00
H908   H     0.41665   0.42800   0.64310   0.00000  Uiso   1.00
H909   H     0.89778   0.58591   0.62470   0.00000  Uiso   1.00
H910   H     0.99665   0.87662   0.51450   0.00000  Uiso   1.00
H911   H     0.37045   0.53374   0.64140   0.00000  Uiso   1.00
O912   O     0.80719   0.50787   0.51869   0.00000  Uiso   1.00
O913   O     0.93689   0.88928   0.37411   0.00000  Uiso   1.00
O914   O     0.27132   0.59542   0.54059   0.00000  Uiso   1.00
N915   N     0.77141   0.60003   0.44467   0.00000  Uiso   1.00
N916   N     0.86385   0.87182   0.34164   0.00000  Uiso   1.00
N917   N     0.24586   0.51873   0.46027   0.00000  Uiso   1.00
N918   N     0.86092   0.60136   0.56922   0.00000  Uiso   1.00
N919   N     0.95335   0.87315   0.46619   0.00000  Uiso   1.00
N920   N     0.33537   0.52006   0.58482   0.00000  Uiso   1.00
C921   C     0.83597   0.14924   0.48150   0.00000  Uiso   1.00
C922   C     0.85767   0.21132   0.52664   0.00000  Uiso   1.00
C923   C     0.86115   0.22357   0.57449   0.00000  Uiso   1.00
C924   C     0.88219   0.28331   0.61064   0.00000  Uiso   1.00
C925   C     0.91334   0.37272   0.68248   0.00000  Uiso   1.00
C926   C     0.88469   0.12551   0.50781   0.00000  Uiso   1.00
C927   C     0.41088   0.56562   0.53982   0.00000  Uiso   1.00
C928   C     0.45467   0.55313   0.56011   0.00000  Uiso   1.00
C929   C     0.52773   0.50930   0.60266   0.00000  Uiso   1.00
C930   C     0.78693   0.16867   0.39575   0.00000  Uiso   1.00
C931   C     0.73093   0.14505   0.33354   0.00000  Uiso   1.00
C932   C     0.69242   0.16888   0.25948   0.00000  Uiso   1.00
C933   C     0.61370   0.19206   0.12804   0.00000  Uiso   1.00
C934   C     0.86716   0.23354   0.46060   0.00000  Uiso   1.00
C935   C     0.87461   0.25710   0.51528   0.00000  Uiso   1.00
C936   C     0.89566   0.31684   0.55136   0.00000  Uiso   1.00
C937   C     0.89917   0.32918   0.59926   0.00000  Uiso   1.00
C938   C     0.90163   0.17129   0.49645   0.00000  Uiso   1.00
C939   C     0.94539   0.15888   0.51669   0.00000  Uiso   1.00
C940   C     0.97164   0.09899   0.54873   0.00000  Uiso   1.00
C941   C     0.80388   0.21445   0.38439   0.00000  Uiso   1.00
C942   C     0.76544   0.23832   0.31041   0.00000  Uiso   1.00
C943   C     0.70939   0.21475   0.24810   0.00000  Uiso   1.00
H944   H     0.32278   0.61359   0.49035   0.00000  Uiso   1.00
H945   H     0.34804   0.68813   0.58327   0.00000  Uiso   1.00
H946   H     0.39775   0.53020   0.54860   0.00000  Uiso   1.00
H947   H     0.71783   0.10962   0.34235   0.00000  Uiso   1.00
H948   H     0.88353   0.29094   0.68131   0.00000  Uiso   1.00
H949   H     0.48835   0.45793   0.60817   0.00000  Uiso   1.00
H950   H     0.60895   0.12541   0.17326   0.00000  Uiso   1.00
H951   H     0.88036   0.26918   0.45175   0.00000  Uiso   1.00
H952   H     0.90877   0.35226   0.54256   0.00000  Uiso   1.00
H953   H     0.95849   0.19432   0.50789   0.00000  Uiso   1.00
H954   H     0.77857   0.27375   0.30164   0.00000  Uiso   1.00
H955   H     0.93282   0.42416   0.64828   0.00000  Uiso   1.00
H956   H     0.03764   0.09114   0.57513   0.00000  Uiso   1.00
H957   H     0.65824   0.25862   0.14022   0.00000  Uiso   1.00
O958   O     0.92584   0.40938   0.72525   0.00000  Uiso   1.00
O959   O     0.56335   0.47248   0.62928   0.00000  Uiso   1.00
O960   O     0.56560   0.19221   0.05868   0.00000  Uiso   1.00
N961   N     0.89122   0.31090   0.66106   0.00000  Uiso   1.00
N962   N     0.48922   0.49955   0.59269   0.00000  Uiso   1.00
N963   N     0.63452   0.15612   0.18608   0.00000  Uiso   1.00
N964   N     0.91774   0.38258   0.64329   0.00000  Uiso   1.00
N965   N     0.01575   0.07123   0.57492   0.00000  Uiso   1.00
N966   N     0.66105   0.22780   0.16830   0.00000  Uiso   1.00
C967   C     0.84516   0.47259   0.79386   0.00000  Uiso   1.00
C968   C     0.39063   0.96916   0.88095   0.00000  Uiso   1.00
C969   C     0.43631   0.92608   0.93448   0.00000  Uiso   1.00
C970   C     0.97319   0.43072   0.01148   0.00000  Uiso   1.00
C971   C     0.04507   0.41837   0.14326   0.00000  Uiso   1.00
C972   C     0.78696   0.46556   0.75029   0.00000  Uiso   1.00
C973   C     0.24546   0.91947   0.69396   0.00000  Uiso   1.00
C974   C     0.19506   0.92109   0.66097   0.00000  Uiso   1.00
C975   C     0.10597   0.90318   0.58986   0.00000  Uiso   1.00
C976   C     0.34711   0.04118   0.77884   0.00000  Uiso   1.00
C977   C     0.35618   0.05867   0.74648   0.00000  Uiso   1.00
C978   C     0.35642   0.12396   0.73750   0.00000  Uiso   1.00
C979   C     0.36073   0.22345   0.71071   0.00000  Uiso   1.00
C980   C     0.32943   0.05744   0.83544   0.00000  Uiso   1.00
C981   C     0.38208   0.01525   0.90353   0.00000  Uiso   1.00
C982   C     0.91890   0.51996   0.98048   0.00000  Uiso   1.00
C983   C     0.96463   0.47690   0.03411   0.00000  Uiso   1.00
C984   C     0.27841   0.01165   0.77287   0.00000  Uiso   1.00
C985   C     0.22805   0.01334   0.73996   0.00000  Uiso   1.00
C986   C     0.68650   0.46726   0.68359   0.00000  Uiso   1.00
C987   C     0.33857   0.08727   0.80142   0.00000  Uiso   1.00
C988   C     0.33878   0.15254   0.79248   0.00000  Uiso   1.00
C989   C     0.34785   0.17013   0.76012   0.00000  Uiso   1.00
H990   H     0.85181   0.43670   0.77628   0.00000  Uiso   1.00
H991   H     0.44291   0.89042   0.91698   0.00000  Uiso   1.00
H992   H     0.25209   0.88381   0.67649   0.00000  Uiso   1.00
H993   H     0.86280   0.52299   0.72901   0.00000  Uiso   1.00
H994   H     0.54012   0.85941   0.08292   0.00000  Uiso   1.00
H995   H     0.13776   0.84549   0.57582   0.00000  Uiso   1.00
H996   H     0.37121   0.13897   0.68656   0.00000  Uiso   1.00
H997   H     0.32277   0.09332   0.85302   0.00000  Uiso   1.00
H998   H     0.91227   0.55563   0.99793   0.00000  Uiso   1.00
H999   H     0.22145   0.04902   0.75744   0.00000  Uiso   1.00
H1000  H     0.33216   0.18820   0.80996   0.00000  Uiso   1.00
H1001  H     0.01526   0.49350   0.14863   0.00000  Uiso   1.00
H1002  H     0.61289   0.47958   0.64152   0.00000  Uiso   1.00
H1003  H     0.34634   0.27306   0.75227   0.00000  Uiso   1.00
O1004  O     0.08708   0.39882   0.20971   0.00000  Uiso   1.00
O1005  O     0.05919   0.88056   0.54441   0.00000  Uiso   1.00
O1006  O     0.36547   0.26561   0.68970   0.00000  Uiso   1.00
N1007  N     0.02199   0.39615   0.07850   0.00000  Uiso   1.00
N1008  N     0.14581   0.88313   0.60440   0.00000  Uiso   1.00
N1009  N     0.36405   0.15751   0.70792   0.00000  Uiso   1.00
N1010  N     0.00861   0.46830   0.11386   0.00000  Uiso   1.00
N1011  N     0.63243   0.45528   0.63976   0.00000  Uiso   1.00
N1012  N     0.35067   0.22966   0.74327   0.00000  Uiso   1.00
C1013  C     0.17453   0.17508   0.47807   0.00000  Uiso   1.00
C1014  C     0.14623   0.23644   0.42934   0.00000  Uiso   1.00
C1015  C     0.17483   0.29274   0.45088   0.00000  Uiso   1.00
C1016  C     0.14118   0.34352   0.39814   0.00000  Uiso   1.00
C1017  C     0.10636   0.43962   0.33340   0.00000  Uiso   1.00
C1018  C     0.14555   0.16019   0.48818   0.00000  Uiso   1.00
C1019  C     0.17357   0.15237   0.55920   0.00000  Uiso   1.00
C1020  C     0.13935   0.13896   0.55599   0.00000  Uiso   1.00
C1021  C     0.10348   0.11665   0.58260   0.00000  Uiso   1.00
C1022  C     0.65602   0.62180   0.42626   0.00000  Uiso   1.00
C1023  C     0.69285   0.58168   0.44522   0.00000  Uiso   1.00
C1024  C     0.66743   0.53593   0.38989   0.00000  Uiso   1.00
C1025  C     0.64783   0.45401   0.32035   0.00000  Uiso   1.00
C1026  C     0.06392   0.16514   0.34611   0.00000  Uiso   1.00
C1027  C     0.08615   0.23104   0.35767   0.00000  Uiso   1.00
C1028  C     0.05244   0.28174   0.30488   0.00000  Uiso   1.00
C1029  C     0.08099   0.33811   0.32634   0.00000  Uiso   1.00
C1030  C     0.08547   0.15479   0.41651   0.00000  Uiso   1.00
C1031  C     0.05119   0.14138   0.41320   0.00000  Uiso   1.00
C1032  C     0.07915   0.13355   0.48419   0.00000  Uiso   1.00
C1033  C     0.59594   0.61640   0.35459   0.00000  Uiso   1.00
C1034  C     0.57046   0.57069   0.29922   0.00000  Uiso   1.00
C1035  C     0.60724   0.53052   0.31808   0.00000  Uiso   1.00
H1036  H     0.22131   0.17928   0.53387   0.00000  Uiso   1.00
H1037  H     0.22132   0.29690   0.50635   0.00000  Uiso   1.00
H1038  H     0.22007   0.15655   0.61465   0.00000  Uiso   1.00
H1039  H     0.73934   0.58587   0.50069   0.00000  Uiso   1.00
H1040  H     0.19484   0.42493   0.44425   0.00000  Uiso   1.00
H1041  H     0.19220   0.12898   0.67260   0.00000  Uiso   1.00
H1042  H     0.73283   0.47994   0.43229   0.00000  Uiso   1.00
H1043  H     0.51714   0.66093   0.29031   0.00000  Uiso   1.00
H1044  H     0.00595   0.27755   0.24942   0.00000  Uiso   1.00
H1045  H     0.00470   0.13720   0.35773   0.00000  Uiso   1.00
H1046  H     0.52396   0.56653   0.24376   0.00000  Uiso   1.00
H1047  H     0.02003   0.40923   0.23572   0.00000  Uiso   1.00
H1048  H     0.01739   0.11327   0.46407   0.00000  Uiso   1.00
H1049  H     0.55803   0.46424   0.22376   0.00000  Uiso   1.00
O1050  O     0.10376   0.49413   0.31749   0.00000  Uiso   1.00
O1051  O     0.10030   0.10584   0.61708   0.00000  Uiso   1.00
O1052  O     0.65361   0.41031   0.30180   0.00000  Uiso   1.00
N1053  N     0.15524   0.40522   0.40077   0.00000  Uiso   1.00
N1054  N     0.15277   0.12854   0.61427   0.00000  Uiso   1.00
N1055  N     0.69076   0.48919   0.38961   0.00000  Uiso   1.00
N1056  N     0.06118   0.39678   0.28856   0.00000  Uiso   1.00
N1057  N     0.05870   0.12009   0.50206   0.00000  Uiso   1.00
N1058  N     0.59669   0.48074   0.27740   0.00000  Uiso   1.00
C1059  C     0.68597   0.35001   0.47127   0.00000  Uiso   1.00
C1060  C     0.66430   0.28948   0.42417   0.00000  Uiso   1.00
C1061  C     0.65806   0.28158   0.37290   0.00000  Uiso   1.00
C1062  C     0.63756   0.22257   0.33542   0.00000  Uiso   1.00
C1063  C     0.60597   0.13609   0.26022   0.00000  Uiso   1.00
C1064  C     0.63881   0.36919   0.44954   0.00000  Uiso   1.00
C1065  C     0.61114   0.42831   0.41961   0.00000  Uiso   1.00
C1066  C     0.56918   0.43639   0.40350   0.00000  Uiso   1.00
C1067  C     0.49804   0.47368   0.36775   0.00000  Uiso   1.00
C1068  C     0.73746   0.32917   0.55696   0.00000  Uiso   1.00
C1069  C     0.79274   0.35465   0.61736   0.00000  Uiso   1.00
C1070  C     0.33384   0.82905   0.69170   0.00000  Uiso   1.00
C1071  C     0.41587   0.80420   0.82273   0.00000  Uiso   1.00
C1072  C     0.16065   0.75925   0.49588   0.00000  Uiso   1.00
C1073  C     0.15054   0.74019   0.43754   0.00000  Uiso   1.00
C1074  C     0.13005   0.68117   0.40013   0.00000  Uiso   1.00
C1075  C     0.12378   0.67318   0.34881   0.00000  Uiso   1.00
C1076  C     0.62505   0.31990   0.46291   0.00000  Uiso   1.00
C1077  C     0.08313   0.82790   0.44685   0.00000  Uiso   1.00
C1078  C     0.55540   0.38701   0.41690   0.00000  Uiso   1.00
C1079  C     0.22371   0.77987   0.57033   0.00000  Uiso   1.00
C1080  C     0.26472   0.75423   0.64459   0.00000  Uiso   1.00
C1081  C     0.32006   0.77967   0.70509   0.00000  Uiso   1.00
H1082  H     0.69668   0.38839   0.46086   0.00000  Uiso   1.00
H1083  H     0.66870   0.31974   0.36256   0.00000  Uiso   1.00
H1084  H     0.62180   0.46645   0.40928   0.00000  Uiso   1.00
H1085  H     0.80337   0.39279   0.60699   0.00000  Uiso   1.00
H1086  H     0.63160   0.22191   0.25945   0.00000  Uiso   1.00
H1087  H     0.53271   0.53125   0.35799   0.00000  Uiso   1.00
H1088  H     0.91559   0.37594   0.77491   0.00000  Uiso   1.00
H1089  H     0.14994   0.72088   0.50629   0.00000  Uiso   1.00
H1090  H     0.11941   0.64303   0.41049   0.00000  Uiso   1.00
H1091  H     0.07250   0.78974   0.45721   0.00000  Uiso   1.00
H1092  H     0.25406   0.71609   0.65492   0.00000  Uiso   1.00
H1093  H     0.09159   0.57848   0.29835   0.00000  Uiso   1.00
H1094  H     0.49270   0.38783   0.39689   0.00000  Uiso   1.00
H1095  H     0.37557   0.73251   0.81380   0.00000  Uiso   1.00
O1096  O     0.59233   0.10202   0.21504   0.00000  Uiso   1.00
O1097  O     0.46260   0.50787   0.34433   0.00000  Uiso   1.00
O1098  O     0.46492   0.80410   0.89131   0.00000  Uiso   1.00
N1099  N     0.62639   0.19883   0.28177   0.00000  Uiso   1.00
N1100  N     0.53392   0.48804   0.37388   0.00000  Uiso   1.00
N1101  N     0.39187   0.84285   0.76367   0.00000  Uiso   1.00
N1102  N     0.10486   0.62165   0.30270   0.00000  Uiso   1.00
N1103  N     0.51239   0.41087   0.39481   0.00000  Uiso   1.00
N1104  N     0.37034   0.76568   0.78460   0.00000  Uiso   1.00
