data_job_03833
_audit_creation_date              2018-12-19
_audit_creation_method            'Materials Studio'
_symmetry_space_group_name_H-M    'P1'
_symmetry_Int_Tables_number       1
_symmetry_cell_setting            triclinic
loop_
_symmetry_equiv_pos_as_xyz
  x,y,z
_cell_length_a                    24.1959
_cell_length_b                    24.1959
_cell_length_c                    18.7304
_cell_angle_alpha                 90.0000
_cell_angle_beta                  90.0000
_cell_angle_gamma                 90.0000
loop_
_atom_site_label
_atom_site_type_symbol
_atom_site_fract_x
_atom_site_fract_y
_atom_site_fract_z
_atom_site_U_iso_or_equiv
_atom_site_adp_type
_atom_site_occupancy
C1     C     0.33965   0.85547   0.90484   0.00000  Uiso   1.00
C2     C     0.29953   0.80983   0.92641   0.00000  Uiso   1.00
C3     C     0.24476   0.80569   0.90510   0.00000  Uiso   1.00
C4     C     0.21492   0.76084   0.93066   0.00000  Uiso   1.00
C5     C     0.14895   0.69595   0.95730   0.00000  Uiso   1.00
C6     C     0.36082   0.88058   0.97433   0.00000  Uiso   1.00
C7     C     0.35758   0.93593   0.99330   0.00000  Uiso   1.00
C8     C     0.37934   0.95065   0.05920   0.00000  Uiso   1.00
C9     C     0.40855   0.99562   0.16021   0.00000  Uiso   1.00
C10    C     0.38905   0.82649   0.87087   0.00000  Uiso   1.00
C11    C     0.40955   0.83636   0.80285   0.00000  Uiso   1.00
C12    C     0.45509   0.80554   0.78165   0.00000  Uiso   1.00
C13    C     0.52813   0.76652   0.72203   0.00000  Uiso   1.00
C14    C     0.38407   0.78320   0.98813   0.00000  Uiso   1.00
C15    C     0.32366   0.77057   0.97165   0.00000  Uiso   1.00
C16    C     0.29390   0.72572   0.99725   0.00000  Uiso   1.00
C17    C     0.23909   0.72151   0.97598   0.00000  Uiso   1.00
C18    C     0.38494   0.84133   0.01957   0.00000  Uiso   1.00
C19    C     0.40672   0.85597   0.08546   0.00000  Uiso   1.00
C20    C     0.40351   0.91133   0.10453   0.00000  Uiso   1.00
C21    C     0.41318   0.78723   0.91611   0.00000  Uiso   1.00
C22    C     0.45870   0.75639   0.89501   0.00000  Uiso   1.00
C23    C     0.47927   0.76622   0.82698   0.00000  Uiso   1.00
H24    H     0.32087   0.88604   0.86962   0.00000  Uiso   1.00
H25    H     0.22610   0.83608   0.87009   0.00000  Uiso   1.00
H26    H     0.33891   0.96631   0.95828   0.00000  Uiso   1.00
H27    H     0.39087   0.86675   0.76786   0.00000  Uiso   1.00
H28    H     0.13166   0.76339   0.89058   0.00000  Uiso   1.00
H29    H     0.36954   0.03798   0.07652   0.00000  Uiso   1.00
H30    H     0.47912   0.82804   0.67499   0.00000  Uiso   1.00
H31    H     0.40286   0.75263   0.02336   0.00000  Uiso   1.00
H32    H     0.31259   0.69535   0.03226   0.00000  Uiso   1.00
H33    H     0.42539   0.82558   0.12045   0.00000  Uiso   1.00
H34    H     0.47736   0.72602   0.93004   0.00000  Uiso   1.00
H35    H     0.20186   0.64916   0.02221   0.00000  Uiso   1.00
H36    H     0.43974   0.92376   0.20815   0.00000  Uiso   1.00
H37    H     0.54932   0.71382   0.80662   0.00000  Uiso   1.00
O38    O     0.10589   0.67101   0.95950   0.00000  Uiso   1.00
O39    O     0.41799   0.03127   0.20343   0.00000  Uiso   1.00
O40    O     0.56175   0.75583   0.67664   0.00000  Uiso   1.00
N41    N     0.16057   0.74436   0.92033   0.00000  Uiso   1.00
N42    N     0.38297   0.00109   0.09417   0.00000  Uiso   1.00
N43    N     0.48543   0.80482   0.71878   0.00000  Uiso   1.00
N44    N     0.19835   0.68290   0.99116   0.00000  Uiso   1.00
N45    N     0.42074   0.93962   0.16500   0.00000  Uiso   1.00
N46    N     0.52320   0.74336   0.78961   0.00000  Uiso   1.00
C47    C     0.83965   0.35547   0.40484   0.00000  Uiso   1.00
C48    C     0.79953   0.30983   0.42641   0.00000  Uiso   1.00
C49    C     0.74476   0.30569   0.40510   0.00000  Uiso   1.00
C50    C     0.71492   0.26084   0.43066   0.00000  Uiso   1.00
C51    C     0.64895   0.19595   0.45730   0.00000  Uiso   1.00
C52    C     0.86082   0.38058   0.47433   0.00000  Uiso   1.00
C53    C     0.85758   0.43593   0.49330   0.00000  Uiso   1.00
C54    C     0.87934   0.45065   0.55920   0.00000  Uiso   1.00
C55    C     0.90855   0.49562   0.66021   0.00000  Uiso   1.00
C56    C     0.88905   0.32649   0.37087   0.00000  Uiso   1.00
C57    C     0.90955   0.33636   0.30285   0.00000  Uiso   1.00
C58    C     0.95509   0.30554   0.28165   0.00000  Uiso   1.00
C59    C     0.02813   0.26652   0.22203   0.00000  Uiso   1.00
C60    C     0.88407   0.28320   0.48813   0.00000  Uiso   1.00
C61    C     0.82366   0.27057   0.47165   0.00000  Uiso   1.00
C62    C     0.79390   0.22572   0.49725   0.00000  Uiso   1.00
C63    C     0.73909   0.22151   0.47598   0.00000  Uiso   1.00
C64    C     0.88494   0.34133   0.51957   0.00000  Uiso   1.00
C65    C     0.90672   0.35597   0.58546   0.00000  Uiso   1.00
C66    C     0.90351   0.41133   0.60453   0.00000  Uiso   1.00
C67    C     0.91318   0.28723   0.41611   0.00000  Uiso   1.00
C68    C     0.95870   0.25639   0.39501   0.00000  Uiso   1.00
C69    C     0.97927   0.26622   0.32698   0.00000  Uiso   1.00
H70    H     0.82087   0.38604   0.36962   0.00000  Uiso   1.00
H71    H     0.72610   0.33608   0.37009   0.00000  Uiso   1.00
H72    H     0.83891   0.46631   0.45828   0.00000  Uiso   1.00
H73    H     0.89087   0.36675   0.26786   0.00000  Uiso   1.00
H74    H     0.63166   0.26339   0.39058   0.00000  Uiso   1.00
H75    H     0.86954   0.53798   0.57652   0.00000  Uiso   1.00
H76    H     0.97912   0.32804   0.17499   0.00000  Uiso   1.00
H77    H     0.90286   0.25263   0.52336   0.00000  Uiso   1.00
H78    H     0.81259   0.19535   0.53226   0.00000  Uiso   1.00
H79    H     0.92539   0.32558   0.62045   0.00000  Uiso   1.00
H80    H     0.97736   0.22602   0.43004   0.00000  Uiso   1.00
H81    H     0.70186   0.14916   0.52221   0.00000  Uiso   1.00
H82    H     0.93974   0.42376   0.70815   0.00000  Uiso   1.00
H83    H     0.04932   0.21382   0.30662   0.00000  Uiso   1.00
O84    O     0.60589   0.17101   0.45950   0.00000  Uiso   1.00
O85    O     0.91799   0.53127   0.70343   0.00000  Uiso   1.00
O86    O     0.06175   0.25583   0.17664   0.00000  Uiso   1.00
N87    N     0.66057   0.24436   0.42033   0.00000  Uiso   1.00
N88    N     0.88297   0.50109   0.59417   0.00000  Uiso   1.00
N89    N     0.98543   0.30482   0.21878   0.00000  Uiso   1.00
N90    N     0.69835   0.18290   0.49116   0.00000  Uiso   1.00
N91    N     0.92074   0.43962   0.66500   0.00000  Uiso   1.00
N92    N     0.02320   0.24336   0.28961   0.00000  Uiso   1.00
C93    C     0.16035   0.64453   0.40484   0.00000  Uiso   1.00
C94    C     0.20047   0.69017   0.42641   0.00000  Uiso   1.00
C95    C     0.25524   0.69431   0.40510   0.00000  Uiso   1.00
C96    C     0.28508   0.73916   0.43066   0.00000  Uiso   1.00
C97    C     0.35105   0.80405   0.45730   0.00000  Uiso   1.00
C98    C     0.13918   0.61942   0.47433   0.00000  Uiso   1.00
C99    C     0.14242   0.56407   0.49330   0.00000  Uiso   1.00
C100   C     0.12066   0.54935   0.55920   0.00000  Uiso   1.00
C101   C     0.09145   0.50438   0.66021   0.00000  Uiso   1.00
C102   C     0.11095   0.67351   0.37087   0.00000  Uiso   1.00
C103   C     0.09045   0.66364   0.30285   0.00000  Uiso   1.00
C104   C     0.04491   0.69446   0.28165   0.00000  Uiso   1.00
C105   C     0.97187   0.73348   0.22203   0.00000  Uiso   1.00
C106   C     0.11593   0.71680   0.48813   0.00000  Uiso   1.00
C107   C     0.17634   0.72943   0.47165   0.00000  Uiso   1.00
C108   C     0.20610   0.77428   0.49725   0.00000  Uiso   1.00
C109   C     0.26091   0.77849   0.47598   0.00000  Uiso   1.00
C110   C     0.11506   0.65867   0.51957   0.00000  Uiso   1.00
C111   C     0.09328   0.64403   0.58546   0.00000  Uiso   1.00
C112   C     0.09649   0.58867   0.60453   0.00000  Uiso   1.00
C113   C     0.08682   0.71277   0.41611   0.00000  Uiso   1.00
C114   C     0.04130   0.74361   0.39501   0.00000  Uiso   1.00
C115   C     0.02073   0.73378   0.32698   0.00000  Uiso   1.00
H116   H     0.17913   0.61396   0.36962   0.00000  Uiso   1.00
H117   H     0.27390   0.66392   0.37009   0.00000  Uiso   1.00
H118   H     0.16109   0.53369   0.45828   0.00000  Uiso   1.00
H119   H     0.10913   0.63325   0.26786   0.00000  Uiso   1.00
H120   H     0.36834   0.73661   0.39058   0.00000  Uiso   1.00
H121   H     0.13046   0.46202   0.57652   0.00000  Uiso   1.00
H122   H     0.02088   0.67196   0.17499   0.00000  Uiso   1.00
H123   H     0.09714   0.74737   0.52336   0.00000  Uiso   1.00
H124   H     0.18741   0.80465   0.53226   0.00000  Uiso   1.00
H125   H     0.07461   0.67442   0.62045   0.00000  Uiso   1.00
H126   H     0.02264   0.77398   0.43004   0.00000  Uiso   1.00
H127   H     0.29814   0.85084   0.52221   0.00000  Uiso   1.00
H128   H     0.06026   0.57624   0.70815   0.00000  Uiso   1.00
H129   H     0.95068   0.78618   0.30662   0.00000  Uiso   1.00
O130   O     0.39411   0.82899   0.45950   0.00000  Uiso   1.00
O131   O     0.08201   0.46873   0.70343   0.00000  Uiso   1.00
O132   O     0.93825   0.74417   0.17664   0.00000  Uiso   1.00
N133   N     0.33943   0.75564   0.42033   0.00000  Uiso   1.00
N134   N     0.11703   0.49891   0.59417   0.00000  Uiso   1.00
N135   N     0.01457   0.69518   0.21878   0.00000  Uiso   1.00
N136   N     0.30165   0.81710   0.49116   0.00000  Uiso   1.00
N137   N     0.07926   0.56038   0.66500   0.00000  Uiso   1.00
N138   N     0.97680   0.75664   0.28961   0.00000  Uiso   1.00
C139   C     0.66035   0.14453   0.90484   0.00000  Uiso   1.00
C140   C     0.70047   0.19017   0.92641   0.00000  Uiso   1.00
C141   C     0.75524   0.19431   0.90510   0.00000  Uiso   1.00
C142   C     0.78508   0.23916   0.93066   0.00000  Uiso   1.00
C143   C     0.85105   0.30405   0.95730   0.00000  Uiso   1.00
C144   C     0.63918   0.11942   0.97433   0.00000  Uiso   1.00
C145   C     0.64242   0.06407   0.99330   0.00000  Uiso   1.00
C146   C     0.62066   0.04935   0.05920   0.00000  Uiso   1.00
C147   C     0.59145   0.00438   0.16021   0.00000  Uiso   1.00
C148   C     0.61095   0.17351   0.87087   0.00000  Uiso   1.00
C149   C     0.59045   0.16364   0.80285   0.00000  Uiso   1.00
C150   C     0.54491   0.19446   0.78165   0.00000  Uiso   1.00
C151   C     0.47187   0.23348   0.72203   0.00000  Uiso   1.00
C152   C     0.61593   0.21680   0.98813   0.00000  Uiso   1.00
C153   C     0.67634   0.22943   0.97165   0.00000  Uiso   1.00
C154   C     0.70610   0.27428   0.99725   0.00000  Uiso   1.00
C155   C     0.76091   0.27849   0.97598   0.00000  Uiso   1.00
C156   C     0.61506   0.15867   0.01957   0.00000  Uiso   1.00
C157   C     0.59328   0.14403   0.08546   0.00000  Uiso   1.00
C158   C     0.59649   0.08867   0.10453   0.00000  Uiso   1.00
C159   C     0.58682   0.21277   0.91611   0.00000  Uiso   1.00
C160   C     0.54130   0.24361   0.89501   0.00000  Uiso   1.00
C161   C     0.52073   0.23378   0.82698   0.00000  Uiso   1.00
H162   H     0.67913   0.11396   0.86962   0.00000  Uiso   1.00
H163   H     0.77390   0.16392   0.87009   0.00000  Uiso   1.00
H164   H     0.66109   0.03369   0.95828   0.00000  Uiso   1.00
H165   H     0.60913   0.13325   0.76786   0.00000  Uiso   1.00
H166   H     0.86834   0.23661   0.89058   0.00000  Uiso   1.00
H167   H     0.63046   0.96202   0.07652   0.00000  Uiso   1.00
H168   H     0.52088   0.17196   0.67499   0.00000  Uiso   1.00
H169   H     0.59714   0.24737   0.02336   0.00000  Uiso   1.00
H170   H     0.68741   0.30465   0.03226   0.00000  Uiso   1.00
H171   H     0.57461   0.17442   0.12045   0.00000  Uiso   1.00
H172   H     0.52264   0.27398   0.93004   0.00000  Uiso   1.00
H173   H     0.79814   0.35084   0.02221   0.00000  Uiso   1.00
H174   H     0.56026   0.07624   0.20815   0.00000  Uiso   1.00
H175   H     0.45068   0.28618   0.80662   0.00000  Uiso   1.00
O176   O     0.89411   0.32899   0.95950   0.00000  Uiso   1.00
O177   O     0.58201   0.96873   0.20343   0.00000  Uiso   1.00
O178   O     0.43825   0.24417   0.67664   0.00000  Uiso   1.00
N179   N     0.83943   0.25564   0.92033   0.00000  Uiso   1.00
N180   N     0.61703   0.99891   0.09417   0.00000  Uiso   1.00
N181   N     0.51457   0.19518   0.71878   0.00000  Uiso   1.00
N182   N     0.80165   0.31710   0.99116   0.00000  Uiso   1.00
N183   N     0.57926   0.06038   0.16500   0.00000  Uiso   1.00
N184   N     0.47680   0.25664   0.78961   0.00000  Uiso   1.00
C185   C     0.14453   0.83965   0.15484   0.00000  Uiso   1.00
C186   C     0.19017   0.79953   0.17641   0.00000  Uiso   1.00
C187   C     0.19431   0.74476   0.15510   0.00000  Uiso   1.00
C188   C     0.23916   0.71492   0.18066   0.00000  Uiso   1.00
C189   C     0.30405   0.64895   0.20730   0.00000  Uiso   1.00
C190   C     0.11942   0.86082   0.22433   0.00000  Uiso   1.00
C191   C     0.06407   0.85758   0.24330   0.00000  Uiso   1.00
C192   C     0.04935   0.87934   0.30920   0.00000  Uiso   1.00
C193   C     0.00438   0.90855   0.41021   0.00000  Uiso   1.00
C194   C     0.17351   0.88905   0.12087   0.00000  Uiso   1.00
C195   C     0.16364   0.90955   0.05285   0.00000  Uiso   1.00
C196   C     0.19446   0.95509   0.03165   0.00000  Uiso   1.00
C197   C     0.23348   0.02813   0.97203   0.00000  Uiso   1.00
C198   C     0.21680   0.88407   0.23813   0.00000  Uiso   1.00
C199   C     0.22943   0.82366   0.22165   0.00000  Uiso   1.00
C200   C     0.27428   0.79390   0.24725   0.00000  Uiso   1.00
C201   C     0.27849   0.73909   0.22598   0.00000  Uiso   1.00
C202   C     0.15867   0.88494   0.26957   0.00000  Uiso   1.00
C203   C     0.14403   0.90672   0.33546   0.00000  Uiso   1.00
C204   C     0.08867   0.90351   0.35453   0.00000  Uiso   1.00
C205   C     0.21277   0.91318   0.16611   0.00000  Uiso   1.00
C206   C     0.24361   0.95870   0.14501   0.00000  Uiso   1.00
C207   C     0.23378   0.97927   0.07698   0.00000  Uiso   1.00
H208   H     0.11396   0.82087   0.11962   0.00000  Uiso   1.00
H209   H     0.16392   0.72610   0.12009   0.00000  Uiso   1.00
H210   H     0.03369   0.83891   0.20828   0.00000  Uiso   1.00
H211   H     0.13325   0.89087   0.01786   0.00000  Uiso   1.00
H212   H     0.23661   0.63166   0.14058   0.00000  Uiso   1.00
H213   H     0.96202   0.86954   0.32652   0.00000  Uiso   1.00
H214   H     0.17196   0.97912   0.92499   0.00000  Uiso   1.00
H215   H     0.24737   0.90286   0.27336   0.00000  Uiso   1.00
H216   H     0.30465   0.81259   0.28226   0.00000  Uiso   1.00
H217   H     0.17442   0.92539   0.37045   0.00000  Uiso   1.00
H218   H     0.27398   0.97736   0.18004   0.00000  Uiso   1.00
H219   H     0.35084   0.70186   0.27221   0.00000  Uiso   1.00
H220   H     0.07624   0.93974   0.45815   0.00000  Uiso   1.00
H221   H     0.28618   0.04932   0.05662   0.00000  Uiso   1.00
O222   O     0.32899   0.60589   0.20950   0.00000  Uiso   1.00
O223   O     0.96873   0.91799   0.45343   0.00000  Uiso   1.00
O224   O     0.24417   0.06175   0.92664   0.00000  Uiso   1.00
N225   N     0.25564   0.66057   0.17033   0.00000  Uiso   1.00
N226   N     0.99891   0.88297   0.34417   0.00000  Uiso   1.00
N227   N     0.19518   0.98543   0.96878   0.00000  Uiso   1.00
N228   N     0.31710   0.69835   0.24116   0.00000  Uiso   1.00
N229   N     0.06038   0.92074   0.41500   0.00000  Uiso   1.00
N230   N     0.25664   0.02320   0.03961   0.00000  Uiso   1.00
C231   C     0.64453   0.33965   0.65484   0.00000  Uiso   1.00
C232   C     0.69017   0.29953   0.67641   0.00000  Uiso   1.00
C233   C     0.69431   0.24476   0.65510   0.00000  Uiso   1.00
C234   C     0.73916   0.21492   0.68066   0.00000  Uiso   1.00
C235   C     0.80405   0.14895   0.70730   0.00000  Uiso   1.00
C236   C     0.61942   0.36082   0.72433   0.00000  Uiso   1.00
C237   C     0.56407   0.35758   0.74330   0.00000  Uiso   1.00
C238   C     0.54935   0.37934   0.80920   0.00000  Uiso   1.00
C239   C     0.50438   0.40855   0.91021   0.00000  Uiso   1.00
C240   C     0.67351   0.38905   0.62087   0.00000  Uiso   1.00
C241   C     0.66364   0.40955   0.55285   0.00000  Uiso   1.00
C242   C     0.69446   0.45509   0.53165   0.00000  Uiso   1.00
C243   C     0.73348   0.52813   0.47203   0.00000  Uiso   1.00
C244   C     0.71680   0.38407   0.73813   0.00000  Uiso   1.00
C245   C     0.72943   0.32366   0.72165   0.00000  Uiso   1.00
C246   C     0.77428   0.29390   0.74725   0.00000  Uiso   1.00
C247   C     0.77849   0.23909   0.72598   0.00000  Uiso   1.00
C248   C     0.65867   0.38494   0.76957   0.00000  Uiso   1.00
C249   C     0.64403   0.40672   0.83546   0.00000  Uiso   1.00
C250   C     0.58867   0.40351   0.85453   0.00000  Uiso   1.00
C251   C     0.71277   0.41318   0.66611   0.00000  Uiso   1.00
C252   C     0.74361   0.45870   0.64501   0.00000  Uiso   1.00
C253   C     0.73378   0.47927   0.57698   0.00000  Uiso   1.00
H254   H     0.61396   0.32087   0.61962   0.00000  Uiso   1.00
H255   H     0.66392   0.22610   0.62009   0.00000  Uiso   1.00
H256   H     0.53369   0.33891   0.70828   0.00000  Uiso   1.00
H257   H     0.63325   0.39087   0.51786   0.00000  Uiso   1.00
H258   H     0.73661   0.13166   0.64058   0.00000  Uiso   1.00
H259   H     0.46202   0.36954   0.82652   0.00000  Uiso   1.00
H260   H     0.67196   0.47912   0.42499   0.00000  Uiso   1.00
H261   H     0.74737   0.40286   0.77336   0.00000  Uiso   1.00
H262   H     0.80465   0.31259   0.78226   0.00000  Uiso   1.00
H263   H     0.67442   0.42539   0.87045   0.00000  Uiso   1.00
H264   H     0.77398   0.47736   0.68004   0.00000  Uiso   1.00
H265   H     0.85084   0.20186   0.77221   0.00000  Uiso   1.00
H266   H     0.57624   0.43974   0.95815   0.00000  Uiso   1.00
H267   H     0.78618   0.54932   0.55662   0.00000  Uiso   1.00
O268   O     0.82899   0.10589   0.70950   0.00000  Uiso   1.00
O269   O     0.46873   0.41799   0.95343   0.00000  Uiso   1.00
O270   O     0.74417   0.56175   0.42664   0.00000  Uiso   1.00
N271   N     0.75564   0.16057   0.67033   0.00000  Uiso   1.00
N272   N     0.49891   0.38297   0.84417   0.00000  Uiso   1.00
N273   N     0.69518   0.48543   0.46878   0.00000  Uiso   1.00
N274   N     0.81710   0.19835   0.74116   0.00000  Uiso   1.00
N275   N     0.56038   0.42074   0.91500   0.00000  Uiso   1.00
N276   N     0.75664   0.52320   0.53961   0.00000  Uiso   1.00
C277   C     0.35547   0.66035   0.65484   0.00000  Uiso   1.00
C278   C     0.30983   0.70047   0.67641   0.00000  Uiso   1.00
C279   C     0.30569   0.75524   0.65510   0.00000  Uiso   1.00
C280   C     0.26084   0.78508   0.68066   0.00000  Uiso   1.00
C281   C     0.19595   0.85105   0.70730   0.00000  Uiso   1.00
C282   C     0.38058   0.63918   0.72433   0.00000  Uiso   1.00
C283   C     0.43593   0.64242   0.74330   0.00000  Uiso   1.00
C284   C     0.45065   0.62066   0.80920   0.00000  Uiso   1.00
C285   C     0.49562   0.59145   0.91021   0.00000  Uiso   1.00
C286   C     0.32649   0.61095   0.62087   0.00000  Uiso   1.00
C287   C     0.33636   0.59045   0.55285   0.00000  Uiso   1.00
C288   C     0.30554   0.54491   0.53165   0.00000  Uiso   1.00
C289   C     0.26652   0.47187   0.47203   0.00000  Uiso   1.00
C290   C     0.28320   0.61593   0.73813   0.00000  Uiso   1.00
C291   C     0.27057   0.67634   0.72165   0.00000  Uiso   1.00
C292   C     0.22572   0.70610   0.74725   0.00000  Uiso   1.00
C293   C     0.22151   0.76091   0.72598   0.00000  Uiso   1.00
C294   C     0.34133   0.61506   0.76957   0.00000  Uiso   1.00
C295   C     0.35597   0.59328   0.83546   0.00000  Uiso   1.00
C296   C     0.41133   0.59649   0.85453   0.00000  Uiso   1.00
C297   C     0.28723   0.58682   0.66611   0.00000  Uiso   1.00
C298   C     0.25639   0.54130   0.64501   0.00000  Uiso   1.00
C299   C     0.26622   0.52073   0.57698   0.00000  Uiso   1.00
H300   H     0.38604   0.67913   0.61962   0.00000  Uiso   1.00
H301   H     0.33608   0.77390   0.62009   0.00000  Uiso   1.00
H302   H     0.46631   0.66109   0.70828   0.00000  Uiso   1.00
H303   H     0.36675   0.60913   0.51786   0.00000  Uiso   1.00
H304   H     0.26339   0.86834   0.64058   0.00000  Uiso   1.00
H305   H     0.53798   0.63046   0.82652   0.00000  Uiso   1.00
H306   H     0.32804   0.52088   0.42499   0.00000  Uiso   1.00
H307   H     0.25263   0.59714   0.77336   0.00000  Uiso   1.00
H308   H     0.19535   0.68741   0.78226   0.00000  Uiso   1.00
H309   H     0.32558   0.57461   0.87045   0.00000  Uiso   1.00
H310   H     0.22602   0.52264   0.68004   0.00000  Uiso   1.00
H311   H     0.14916   0.79814   0.77221   0.00000  Uiso   1.00
H312   H     0.42376   0.56026   0.95815   0.00000  Uiso   1.00
H313   H     0.21382   0.45068   0.55662   0.00000  Uiso   1.00
O314   O     0.17101   0.89411   0.70950   0.00000  Uiso   1.00
O315   O     0.53127   0.58201   0.95343   0.00000  Uiso   1.00
O316   O     0.25583   0.43825   0.42664   0.00000  Uiso   1.00
N317   N     0.24436   0.83943   0.67033   0.00000  Uiso   1.00
N318   N     0.50109   0.61703   0.84417   0.00000  Uiso   1.00
N319   N     0.30482   0.51457   0.46878   0.00000  Uiso   1.00
N320   N     0.18290   0.80165   0.74116   0.00000  Uiso   1.00
N321   N     0.43962   0.57926   0.91500   0.00000  Uiso   1.00
N322   N     0.24336   0.47680   0.53961   0.00000  Uiso   1.00
C323   C     0.85547   0.16035   0.15484   0.00000  Uiso   1.00
C324   C     0.80983   0.20047   0.17641   0.00000  Uiso   1.00
C325   C     0.80569   0.25524   0.15510   0.00000  Uiso   1.00
C326   C     0.76084   0.28508   0.18066   0.00000  Uiso   1.00
C327   C     0.69595   0.35105   0.20730   0.00000  Uiso   1.00
C328   C     0.88058   0.13918   0.22433   0.00000  Uiso   1.00
C329   C     0.93593   0.14242   0.24330   0.00000  Uiso   1.00
C330   C     0.95065   0.12066   0.30920   0.00000  Uiso   1.00
C331   C     0.99562   0.09145   0.41021   0.00000  Uiso   1.00
C332   C     0.82649   0.11095   0.12087   0.00000  Uiso   1.00
C333   C     0.83636   0.09045   0.05285   0.00000  Uiso   1.00
C334   C     0.80554   0.04491   0.03165   0.00000  Uiso   1.00
C335   C     0.76652   0.97187   0.97203   0.00000  Uiso   1.00
C336   C     0.78320   0.11593   0.23813   0.00000  Uiso   1.00
C337   C     0.77057   0.17634   0.22165   0.00000  Uiso   1.00
C338   C     0.72572   0.20610   0.24725   0.00000  Uiso   1.00
C339   C     0.72151   0.26091   0.22598   0.00000  Uiso   1.00
C340   C     0.84133   0.11506   0.26957   0.00000  Uiso   1.00
C341   C     0.85597   0.09328   0.33546   0.00000  Uiso   1.00
C342   C     0.91133   0.09649   0.35453   0.00000  Uiso   1.00
C343   C     0.78723   0.08682   0.16611   0.00000  Uiso   1.00
C344   C     0.75639   0.04130   0.14501   0.00000  Uiso   1.00
C345   C     0.76622   0.02073   0.07698   0.00000  Uiso   1.00
H346   H     0.88604   0.17913   0.11962   0.00000  Uiso   1.00
H347   H     0.83608   0.27390   0.12009   0.00000  Uiso   1.00
H348   H     0.96631   0.16109   0.20828   0.00000  Uiso   1.00
H349   H     0.86675   0.10913   0.01786   0.00000  Uiso   1.00
H350   H     0.76339   0.36834   0.14058   0.00000  Uiso   1.00
H351   H     0.03798   0.13046   0.32652   0.00000  Uiso   1.00
H352   H     0.82804   0.02088   0.92499   0.00000  Uiso   1.00
H353   H     0.75263   0.09714   0.27336   0.00000  Uiso   1.00
H354   H     0.69535   0.18741   0.28226   0.00000  Uiso   1.00
H355   H     0.82558   0.07461   0.37045   0.00000  Uiso   1.00
H356   H     0.72602   0.02264   0.18004   0.00000  Uiso   1.00
H357   H     0.64916   0.29814   0.27221   0.00000  Uiso   1.00
H358   H     0.92376   0.06026   0.45815   0.00000  Uiso   1.00
H359   H     0.71382   0.95068   0.05662   0.00000  Uiso   1.00
O360   O     0.67101   0.39411   0.20950   0.00000  Uiso   1.00
O361   O     0.03127   0.08201   0.45343   0.00000  Uiso   1.00
O362   O     0.75583   0.93825   0.92664   0.00000  Uiso   1.00
N363   N     0.74436   0.33943   0.17033   0.00000  Uiso   1.00
N364   N     0.00109   0.11703   0.34417   0.00000  Uiso   1.00
N365   N     0.80482   0.01457   0.96878   0.00000  Uiso   1.00
N366   N     0.68290   0.30165   0.24116   0.00000  Uiso   1.00
N367   N     0.93962   0.07926   0.41500   0.00000  Uiso   1.00
N368   N     0.74336   0.97680   0.03961   0.00000  Uiso   1.00
C369   C     0.66035   0.64453   0.34516   0.00000  Uiso   1.00
C370   C     0.70047   0.69017   0.32359   0.00000  Uiso   1.00
C371   C     0.75524   0.69431   0.34490   0.00000  Uiso   1.00
C372   C     0.78508   0.73916   0.31934   0.00000  Uiso   1.00
C373   C     0.85105   0.80405   0.29270   0.00000  Uiso   1.00
C374   C     0.63918   0.61942   0.27567   0.00000  Uiso   1.00
C375   C     0.64242   0.56407   0.25670   0.00000  Uiso   1.00
C376   C     0.62066   0.54935   0.19080   0.00000  Uiso   1.00
C377   C     0.59145   0.50438   0.08979   0.00000  Uiso   1.00
C378   C     0.61095   0.67351   0.37913   0.00000  Uiso   1.00
C379   C     0.59045   0.66364   0.44715   0.00000  Uiso   1.00
C380   C     0.54491   0.69446   0.46835   0.00000  Uiso   1.00
C381   C     0.47187   0.73348   0.52797   0.00000  Uiso   1.00
C382   C     0.61593   0.71680   0.26187   0.00000  Uiso   1.00
C383   C     0.67634   0.72943   0.27835   0.00000  Uiso   1.00
C384   C     0.70610   0.77428   0.25275   0.00000  Uiso   1.00
C385   C     0.76091   0.77849   0.27402   0.00000  Uiso   1.00
C386   C     0.61506   0.65867   0.23043   0.00000  Uiso   1.00
C387   C     0.59328   0.64403   0.16454   0.00000  Uiso   1.00
C388   C     0.59649   0.58867   0.14547   0.00000  Uiso   1.00
C389   C     0.58682   0.71277   0.33389   0.00000  Uiso   1.00
C390   C     0.54130   0.74361   0.35499   0.00000  Uiso   1.00
C391   C     0.52073   0.73378   0.42302   0.00000  Uiso   1.00
H392   H     0.67913   0.61396   0.38038   0.00000  Uiso   1.00
H393   H     0.77390   0.66392   0.37991   0.00000  Uiso   1.00
H394   H     0.66109   0.53369   0.29172   0.00000  Uiso   1.00
H395   H     0.60913   0.63325   0.48214   0.00000  Uiso   1.00
H396   H     0.86834   0.73661   0.35942   0.00000  Uiso   1.00
H397   H     0.63046   0.46202   0.17348   0.00000  Uiso   1.00
H398   H     0.52088   0.67196   0.57501   0.00000  Uiso   1.00
H399   H     0.59714   0.74737   0.22664   0.00000  Uiso   1.00
H400   H     0.68741   0.80465   0.21774   0.00000  Uiso   1.00
H401   H     0.57461   0.67442   0.12955   0.00000  Uiso   1.00
H402   H     0.52264   0.77398   0.31996   0.00000  Uiso   1.00
H403   H     0.79814   0.85084   0.22779   0.00000  Uiso   1.00
H404   H     0.56026   0.57624   0.04185   0.00000  Uiso   1.00
H405   H     0.45068   0.78618   0.44338   0.00000  Uiso   1.00
O406   O     0.89411   0.82899   0.29050   0.00000  Uiso   1.00
O407   O     0.58201   0.46873   0.04657   0.00000  Uiso   1.00
O408   O     0.43825   0.74417   0.57336   0.00000  Uiso   1.00
N409   N     0.83943   0.75564   0.32967   0.00000  Uiso   1.00
N410   N     0.61703   0.49891   0.15583   0.00000  Uiso   1.00
N411   N     0.51457   0.69518   0.53122   0.00000  Uiso   1.00
N412   N     0.80165   0.81710   0.25884   0.00000  Uiso   1.00
N413   N     0.57926   0.56038   0.08500   0.00000  Uiso   1.00
N414   N     0.47680   0.75664   0.46039   0.00000  Uiso   1.00
C415   C     0.16035   0.14453   0.84516   0.00000  Uiso   1.00
C416   C     0.20047   0.19017   0.82359   0.00000  Uiso   1.00
C417   C     0.25524   0.19431   0.84490   0.00000  Uiso   1.00
C418   C     0.28508   0.23916   0.81934   0.00000  Uiso   1.00
C419   C     0.35105   0.30405   0.79270   0.00000  Uiso   1.00
C420   C     0.13918   0.11942   0.77567   0.00000  Uiso   1.00
C421   C     0.14242   0.06407   0.75670   0.00000  Uiso   1.00
C422   C     0.12066   0.04935   0.69080   0.00000  Uiso   1.00
C423   C     0.09145   0.00438   0.58979   0.00000  Uiso   1.00
C424   C     0.11095   0.17351   0.87913   0.00000  Uiso   1.00
C425   C     0.09045   0.16364   0.94715   0.00000  Uiso   1.00
C426   C     0.04491   0.19446   0.96835   0.00000  Uiso   1.00
C427   C     0.97187   0.23348   0.02797   0.00000  Uiso   1.00
C428   C     0.11593   0.21680   0.76187   0.00000  Uiso   1.00
C429   C     0.17634   0.22943   0.77835   0.00000  Uiso   1.00
C430   C     0.20610   0.27428   0.75275   0.00000  Uiso   1.00
C431   C     0.26091   0.27849   0.77402   0.00000  Uiso   1.00
C432   C     0.11506   0.15867   0.73043   0.00000  Uiso   1.00
C433   C     0.09328   0.14403   0.66454   0.00000  Uiso   1.00
C434   C     0.09649   0.08867   0.64547   0.00000  Uiso   1.00
C435   C     0.08682   0.21277   0.83389   0.00000  Uiso   1.00
C436   C     0.04130   0.24361   0.85499   0.00000  Uiso   1.00
C437   C     0.02073   0.23378   0.92302   0.00000  Uiso   1.00
H438   H     0.17913   0.11396   0.88038   0.00000  Uiso   1.00
H439   H     0.27390   0.16392   0.87991   0.00000  Uiso   1.00
H440   H     0.16109   0.03369   0.79172   0.00000  Uiso   1.00
H441   H     0.10913   0.13325   0.98214   0.00000  Uiso   1.00
H442   H     0.36834   0.23661   0.85942   0.00000  Uiso   1.00
H443   H     0.13046   0.96202   0.67348   0.00000  Uiso   1.00
H444   H     0.02088   0.17196   0.07501   0.00000  Uiso   1.00
H445   H     0.09714   0.24737   0.72664   0.00000  Uiso   1.00
H446   H     0.18741   0.30465   0.71774   0.00000  Uiso   1.00
H447   H     0.07461   0.17442   0.62955   0.00000  Uiso   1.00
H448   H     0.02264   0.27398   0.81996   0.00000  Uiso   1.00
H449   H     0.29814   0.35084   0.72779   0.00000  Uiso   1.00
H450   H     0.06026   0.07624   0.54185   0.00000  Uiso   1.00
H451   H     0.95068   0.28618   0.94338   0.00000  Uiso   1.00
O452   O     0.39411   0.32899   0.79050   0.00000  Uiso   1.00
O453   O     0.08201   0.96873   0.54657   0.00000  Uiso   1.00
O454   O     0.93825   0.24417   0.07336   0.00000  Uiso   1.00
N455   N     0.33943   0.25564   0.82967   0.00000  Uiso   1.00
N456   N     0.11703   0.99891   0.65583   0.00000  Uiso   1.00
N457   N     0.01457   0.19518   0.03122   0.00000  Uiso   1.00
N458   N     0.30165   0.31710   0.75884   0.00000  Uiso   1.00
N459   N     0.07926   0.06038   0.58500   0.00000  Uiso   1.00
N460   N     0.97680   0.25664   0.96039   0.00000  Uiso   1.00
C461   C     0.83965   0.85547   0.84516   0.00000  Uiso   1.00
C462   C     0.79953   0.80983   0.82359   0.00000  Uiso   1.00
C463   C     0.74476   0.80569   0.84490   0.00000  Uiso   1.00
C464   C     0.71492   0.76084   0.81934   0.00000  Uiso   1.00
C465   C     0.64895   0.69595   0.79270   0.00000  Uiso   1.00
C466   C     0.86082   0.88058   0.77567   0.00000  Uiso   1.00
C467   C     0.85758   0.93593   0.75670   0.00000  Uiso   1.00
C468   C     0.87934   0.95065   0.69080   0.00000  Uiso   1.00
C469   C     0.90855   0.99562   0.58979   0.00000  Uiso   1.00
C470   C     0.88905   0.82649   0.87913   0.00000  Uiso   1.00
C471   C     0.90955   0.83636   0.94715   0.00000  Uiso   1.00
C472   C     0.95509   0.80554   0.96835   0.00000  Uiso   1.00
C473   C     0.02813   0.76652   0.02797   0.00000  Uiso   1.00
C474   C     0.88407   0.78320   0.76187   0.00000  Uiso   1.00
C475   C     0.82366   0.77057   0.77835   0.00000  Uiso   1.00
C476   C     0.79390   0.72572   0.75275   0.00000  Uiso   1.00
C477   C     0.73909   0.72151   0.77402   0.00000  Uiso   1.00
C478   C     0.88494   0.84133   0.73043   0.00000  Uiso   1.00
C479   C     0.90672   0.85597   0.66454   0.00000  Uiso   1.00
C480   C     0.90351   0.91133   0.64547   0.00000  Uiso   1.00
C481   C     0.91318   0.78723   0.83389   0.00000  Uiso   1.00
C482   C     0.95870   0.75639   0.85499   0.00000  Uiso   1.00
C483   C     0.97927   0.76622   0.92302   0.00000  Uiso   1.00
H484   H     0.82087   0.88604   0.88038   0.00000  Uiso   1.00
H485   H     0.72610   0.83608   0.87991   0.00000  Uiso   1.00
H486   H     0.83891   0.96631   0.79172   0.00000  Uiso   1.00
H487   H     0.89087   0.86675   0.98214   0.00000  Uiso   1.00
H488   H     0.63166   0.76339   0.85942   0.00000  Uiso   1.00
H489   H     0.86954   0.03798   0.67348   0.00000  Uiso   1.00
H490   H     0.97912   0.82804   0.07501   0.00000  Uiso   1.00
H491   H     0.90286   0.75263   0.72664   0.00000  Uiso   1.00
H492   H     0.81259   0.69535   0.71774   0.00000  Uiso   1.00
H493   H     0.92539   0.82558   0.62955   0.00000  Uiso   1.00
H494   H     0.97736   0.72602   0.81996   0.00000  Uiso   1.00
H495   H     0.70186   0.64916   0.72779   0.00000  Uiso   1.00
H496   H     0.93974   0.92376   0.54185   0.00000  Uiso   1.00
H497   H     0.04932   0.71382   0.94338   0.00000  Uiso   1.00
O498   O     0.60589   0.67101   0.79050   0.00000  Uiso   1.00
O499   O     0.91799   0.03127   0.54657   0.00000  Uiso   1.00
O500   O     0.06175   0.75583   0.07336   0.00000  Uiso   1.00
N501   N     0.66057   0.74436   0.82967   0.00000  Uiso   1.00
N502   N     0.88297   0.00109   0.65583   0.00000  Uiso   1.00
N503   N     0.98543   0.80482   0.03122   0.00000  Uiso   1.00
N504   N     0.69835   0.68290   0.75884   0.00000  Uiso   1.00
N505   N     0.92074   0.93962   0.58500   0.00000  Uiso   1.00
N506   N     0.02320   0.74336   0.96039   0.00000  Uiso   1.00
C507   C     0.33965   0.35547   0.34516   0.00000  Uiso   1.00
C508   C     0.29953   0.30983   0.32359   0.00000  Uiso   1.00
C509   C     0.24476   0.30569   0.34490   0.00000  Uiso   1.00
C510   C     0.21492   0.26084   0.31934   0.00000  Uiso   1.00
C511   C     0.14895   0.19595   0.29270   0.00000  Uiso   1.00
C512   C     0.36082   0.38058   0.27567   0.00000  Uiso   1.00
C513   C     0.35758   0.43593   0.25670   0.00000  Uiso   1.00
C514   C     0.37934   0.45065   0.19080   0.00000  Uiso   1.00
C515   C     0.40855   0.49562   0.08979   0.00000  Uiso   1.00
C516   C     0.38905   0.32649   0.37913   0.00000  Uiso   1.00
C517   C     0.40955   0.33636   0.44715   0.00000  Uiso   1.00
C518   C     0.45509   0.30554   0.46835   0.00000  Uiso   1.00
C519   C     0.52813   0.26652   0.52797   0.00000  Uiso   1.00
C520   C     0.38407   0.28320   0.26187   0.00000  Uiso   1.00
C521   C     0.32366   0.27057   0.27835   0.00000  Uiso   1.00
C522   C     0.29390   0.22572   0.25275   0.00000  Uiso   1.00
C523   C     0.23909   0.22151   0.27402   0.00000  Uiso   1.00
C524   C     0.38494   0.34133   0.23043   0.00000  Uiso   1.00
C525   C     0.40672   0.35597   0.16454   0.00000  Uiso   1.00
C526   C     0.40351   0.41133   0.14547   0.00000  Uiso   1.00
C527   C     0.41318   0.28723   0.33389   0.00000  Uiso   1.00
C528   C     0.45870   0.25639   0.35499   0.00000  Uiso   1.00
C529   C     0.47927   0.26622   0.42302   0.00000  Uiso   1.00
H530   H     0.32087   0.38604   0.38038   0.00000  Uiso   1.00
H531   H     0.22610   0.33608   0.37991   0.00000  Uiso   1.00
H532   H     0.33891   0.46631   0.29172   0.00000  Uiso   1.00
H533   H     0.39087   0.36675   0.48214   0.00000  Uiso   1.00
H534   H     0.13166   0.26339   0.35942   0.00000  Uiso   1.00
H535   H     0.36954   0.53798   0.17348   0.00000  Uiso   1.00
H536   H     0.47912   0.32804   0.57501   0.00000  Uiso   1.00
H537   H     0.40286   0.25263   0.22664   0.00000  Uiso   1.00
H538   H     0.31259   0.19535   0.21774   0.00000  Uiso   1.00
H539   H     0.42539   0.32558   0.12955   0.00000  Uiso   1.00
H540   H     0.47736   0.22602   0.31996   0.00000  Uiso   1.00
H541   H     0.20186   0.14916   0.22779   0.00000  Uiso   1.00
H542   H     0.43974   0.42376   0.04185   0.00000  Uiso   1.00
H543   H     0.54932   0.21382   0.44338   0.00000  Uiso   1.00
O544   O     0.10589   0.17101   0.29050   0.00000  Uiso   1.00
O545   O     0.41799   0.53127   0.04657   0.00000  Uiso   1.00
O546   O     0.56175   0.25583   0.57336   0.00000  Uiso   1.00
N547   N     0.16057   0.24436   0.32967   0.00000  Uiso   1.00
N548   N     0.38297   0.50109   0.15583   0.00000  Uiso   1.00
N549   N     0.48543   0.30482   0.53122   0.00000  Uiso   1.00
N550   N     0.19835   0.18290   0.25884   0.00000  Uiso   1.00
N551   N     0.42074   0.43962   0.08500   0.00000  Uiso   1.00
N552   N     0.52320   0.24336   0.46039   0.00000  Uiso   1.00
C553   C     0.85547   0.66035   0.09516   0.00000  Uiso   1.00
C554   C     0.80983   0.70047   0.07359   0.00000  Uiso   1.00
C555   C     0.80569   0.75524   0.09490   0.00000  Uiso   1.00
C556   C     0.76084   0.78508   0.06934   0.00000  Uiso   1.00
C557   C     0.69595   0.85105   0.04270   0.00000  Uiso   1.00
C558   C     0.88058   0.63918   0.02567   0.00000  Uiso   1.00
C559   C     0.93593   0.64242   0.00670   0.00000  Uiso   1.00
C560   C     0.95065   0.62066   0.94080   0.00000  Uiso   1.00
C561   C     0.99562   0.59145   0.83979   0.00000  Uiso   1.00
C562   C     0.82649   0.61095   0.12913   0.00000  Uiso   1.00
C563   C     0.83636   0.59045   0.19715   0.00000  Uiso   1.00
C564   C     0.80554   0.54491   0.21835   0.00000  Uiso   1.00
C565   C     0.76652   0.47187   0.27797   0.00000  Uiso   1.00
C566   C     0.78320   0.61593   0.01187   0.00000  Uiso   1.00
C567   C     0.77057   0.67634   0.02835   0.00000  Uiso   1.00
C568   C     0.72572   0.70610   0.00275   0.00000  Uiso   1.00
C569   C     0.72151   0.76091   0.02402   0.00000  Uiso   1.00
C570   C     0.84133   0.61506   0.98043   0.00000  Uiso   1.00
C571   C     0.85597   0.59328   0.91454   0.00000  Uiso   1.00
C572   C     0.91133   0.59649   0.89547   0.00000  Uiso   1.00
C573   C     0.78723   0.58682   0.08389   0.00000  Uiso   1.00
C574   C     0.75639   0.54130   0.10499   0.00000  Uiso   1.00
C575   C     0.76622   0.52073   0.17302   0.00000  Uiso   1.00
H576   H     0.88604   0.67913   0.13038   0.00000  Uiso   1.00
H577   H     0.83608   0.77390   0.12991   0.00000  Uiso   1.00
H578   H     0.96631   0.66109   0.04172   0.00000  Uiso   1.00
H579   H     0.86675   0.60913   0.23214   0.00000  Uiso   1.00
H580   H     0.76339   0.86834   0.10942   0.00000  Uiso   1.00
H581   H     0.03798   0.63046   0.92348   0.00000  Uiso   1.00
H582   H     0.82804   0.52088   0.32501   0.00000  Uiso   1.00
H583   H     0.75263   0.59714   0.97664   0.00000  Uiso   1.00
H584   H     0.69535   0.68741   0.96774   0.00000  Uiso   1.00
H585   H     0.82558   0.57461   0.87955   0.00000  Uiso   1.00
H586   H     0.72602   0.52264   0.06996   0.00000  Uiso   1.00
H587   H     0.64916   0.79814   0.97779   0.00000  Uiso   1.00
H588   H     0.92376   0.56026   0.79185   0.00000  Uiso   1.00
H589   H     0.71382   0.45068   0.19338   0.00000  Uiso   1.00
O590   O     0.67101   0.89411   0.04050   0.00000  Uiso   1.00
O591   O     0.03127   0.58201   0.79657   0.00000  Uiso   1.00
O592   O     0.75583   0.43825   0.32336   0.00000  Uiso   1.00
N593   N     0.74436   0.83943   0.07967   0.00000  Uiso   1.00
N594   N     0.00109   0.61703   0.90583   0.00000  Uiso   1.00
N595   N     0.80482   0.51457   0.28122   0.00000  Uiso   1.00
N596   N     0.68290   0.80165   0.00884   0.00000  Uiso   1.00
N597   N     0.93962   0.57926   0.83500   0.00000  Uiso   1.00
N598   N     0.74336   0.47680   0.21039   0.00000  Uiso   1.00
C599   C     0.35547   0.16035   0.59516   0.00000  Uiso   1.00
C600   C     0.30983   0.20047   0.57359   0.00000  Uiso   1.00
C601   C     0.30569   0.25524   0.59490   0.00000  Uiso   1.00
C602   C     0.26084   0.28508   0.56934   0.00000  Uiso   1.00
C603   C     0.19595   0.35105   0.54270   0.00000  Uiso   1.00
C604   C     0.38058   0.13918   0.52567   0.00000  Uiso   1.00
C605   C     0.43593   0.14242   0.50670   0.00000  Uiso   1.00
C606   C     0.45065   0.12066   0.44080   0.00000  Uiso   1.00
C607   C     0.49562   0.09145   0.33979   0.00000  Uiso   1.00
C608   C     0.32649   0.11095   0.62913   0.00000  Uiso   1.00
C609   C     0.33636   0.09045   0.69715   0.00000  Uiso   1.00
C610   C     0.30554   0.04491   0.71835   0.00000  Uiso   1.00
C611   C     0.26652   0.97187   0.77797   0.00000  Uiso   1.00
C612   C     0.28320   0.11593   0.51187   0.00000  Uiso   1.00
C613   C     0.27057   0.17634   0.52835   0.00000  Uiso   1.00
C614   C     0.22572   0.20610   0.50275   0.00000  Uiso   1.00
C615   C     0.22151   0.26091   0.52402   0.00000  Uiso   1.00
C616   C     0.34133   0.11506   0.48043   0.00000  Uiso   1.00
C617   C     0.35597   0.09328   0.41454   0.00000  Uiso   1.00
C618   C     0.41133   0.09649   0.39547   0.00000  Uiso   1.00
C619   C     0.28723   0.08682   0.58389   0.00000  Uiso   1.00
C620   C     0.25639   0.04130   0.60499   0.00000  Uiso   1.00
C621   C     0.26622   0.02073   0.67302   0.00000  Uiso   1.00
H622   H     0.38604   0.17913   0.63038   0.00000  Uiso   1.00
H623   H     0.33608   0.27390   0.62991   0.00000  Uiso   1.00
H624   H     0.46631   0.16109   0.54172   0.00000  Uiso   1.00
H625   H     0.36675   0.10913   0.73214   0.00000  Uiso   1.00
H626   H     0.26339   0.36834   0.60942   0.00000  Uiso   1.00
H627   H     0.53798   0.13046   0.42348   0.00000  Uiso   1.00
H628   H     0.32804   0.02088   0.82501   0.00000  Uiso   1.00
H629   H     0.25263   0.09714   0.47664   0.00000  Uiso   1.00
H630   H     0.19535   0.18741   0.46774   0.00000  Uiso   1.00
H631   H     0.32558   0.07461   0.37955   0.00000  Uiso   1.00
H632   H     0.22602   0.02264   0.56996   0.00000  Uiso   1.00
H633   H     0.14916   0.29814   0.47779   0.00000  Uiso   1.00
H634   H     0.42376   0.06026   0.29185   0.00000  Uiso   1.00
H635   H     0.21382   0.95068   0.69338   0.00000  Uiso   1.00
O636   O     0.17101   0.39411   0.54050   0.00000  Uiso   1.00
O637   O     0.53127   0.08201   0.29657   0.00000  Uiso   1.00
O638   O     0.25583   0.93825   0.82336   0.00000  Uiso   1.00
N639   N     0.24436   0.33943   0.57967   0.00000  Uiso   1.00
N640   N     0.50109   0.11703   0.40583   0.00000  Uiso   1.00
N641   N     0.30482   0.01457   0.78122   0.00000  Uiso   1.00
N642   N     0.18290   0.30165   0.50884   0.00000  Uiso   1.00
N643   N     0.43962   0.07926   0.33500   0.00000  Uiso   1.00
N644   N     0.24336   0.97680   0.71039   0.00000  Uiso   1.00
C645   C     0.64453   0.83965   0.59516   0.00000  Uiso   1.00
C646   C     0.69017   0.79953   0.57359   0.00000  Uiso   1.00
C647   C     0.69431   0.74476   0.59490   0.00000  Uiso   1.00
C648   C     0.73916   0.71492   0.56934   0.00000  Uiso   1.00
C649   C     0.80405   0.64895   0.54270   0.00000  Uiso   1.00
C650   C     0.61942   0.86082   0.52567   0.00000  Uiso   1.00
C651   C     0.56407   0.85758   0.50670   0.00000  Uiso   1.00
C652   C     0.54935   0.87934   0.44080   0.00000  Uiso   1.00
C653   C     0.50438   0.90855   0.33979   0.00000  Uiso   1.00
C654   C     0.67351   0.88905   0.62913   0.00000  Uiso   1.00
C655   C     0.66364   0.90955   0.69715   0.00000  Uiso   1.00
C656   C     0.69446   0.95509   0.71835   0.00000  Uiso   1.00
C657   C     0.73348   0.02813   0.77797   0.00000  Uiso   1.00
C658   C     0.71680   0.88407   0.51187   0.00000  Uiso   1.00
C659   C     0.72943   0.82366   0.52835   0.00000  Uiso   1.00
C660   C     0.77428   0.79390   0.50275   0.00000  Uiso   1.00
C661   C     0.77849   0.73909   0.52402   0.00000  Uiso   1.00
C662   C     0.65867   0.88494   0.48043   0.00000  Uiso   1.00
C663   C     0.64403   0.90672   0.41454   0.00000  Uiso   1.00
C664   C     0.58867   0.90351   0.39547   0.00000  Uiso   1.00
C665   C     0.71277   0.91318   0.58389   0.00000  Uiso   1.00
C666   C     0.74361   0.95870   0.60499   0.00000  Uiso   1.00
C667   C     0.73378   0.97927   0.67302   0.00000  Uiso   1.00
H668   H     0.61396   0.82087   0.63038   0.00000  Uiso   1.00
H669   H     0.66392   0.72610   0.62991   0.00000  Uiso   1.00
H670   H     0.53369   0.83891   0.54172   0.00000  Uiso   1.00
H671   H     0.63325   0.89087   0.73214   0.00000  Uiso   1.00
H672   H     0.73661   0.63166   0.60942   0.00000  Uiso   1.00
H673   H     0.46202   0.86954   0.42348   0.00000  Uiso   1.00
H674   H     0.67196   0.97912   0.82501   0.00000  Uiso   1.00
H675   H     0.74737   0.90286   0.47664   0.00000  Uiso   1.00
H676   H     0.80465   0.81259   0.46774   0.00000  Uiso   1.00
H677   H     0.67442   0.92539   0.37955   0.00000  Uiso   1.00
H678   H     0.77398   0.97736   0.56996   0.00000  Uiso   1.00
H679   H     0.85084   0.70186   0.47779   0.00000  Uiso   1.00
H680   H     0.57624   0.93974   0.29185   0.00000  Uiso   1.00
H681   H     0.78618   0.04932   0.69338   0.00000  Uiso   1.00
O682   O     0.82899   0.60589   0.54050   0.00000  Uiso   1.00
O683   O     0.46873   0.91799   0.29657   0.00000  Uiso   1.00
O684   O     0.74417   0.06175   0.82336   0.00000  Uiso   1.00
N685   N     0.75564   0.66057   0.57967   0.00000  Uiso   1.00
N686   N     0.49891   0.88297   0.40583   0.00000  Uiso   1.00
N687   N     0.69518   0.98543   0.78122   0.00000  Uiso   1.00
N688   N     0.81710   0.69835   0.50884   0.00000  Uiso   1.00
N689   N     0.56038   0.92074   0.33500   0.00000  Uiso   1.00
N690   N     0.75664   0.02320   0.71039   0.00000  Uiso   1.00
C691   C     0.14453   0.33965   0.09516   0.00000  Uiso   1.00
C692   C     0.19017   0.29953   0.07359   0.00000  Uiso   1.00
C693   C     0.19431   0.24476   0.09490   0.00000  Uiso   1.00
C694   C     0.23916   0.21492   0.06934   0.00000  Uiso   1.00
C695   C     0.30405   0.14895   0.04270   0.00000  Uiso   1.00
C696   C     0.11942   0.36082   0.02567   0.00000  Uiso   1.00
C697   C     0.06407   0.35758   0.00670   0.00000  Uiso   1.00
C698   C     0.04935   0.37934   0.94080   0.00000  Uiso   1.00
C699   C     0.00438   0.40855   0.83979   0.00000  Uiso   1.00
C700   C     0.17351   0.38905   0.12913   0.00000  Uiso   1.00
C701   C     0.16364   0.40955   0.19715   0.00000  Uiso   1.00
C702   C     0.19446   0.45509   0.21835   0.00000  Uiso   1.00
C703   C     0.23348   0.52813   0.27797   0.00000  Uiso   1.00
C704   C     0.21680   0.38407   0.01187   0.00000  Uiso   1.00
C705   C     0.22943   0.32366   0.02835   0.00000  Uiso   1.00
C706   C     0.27428   0.29390   0.00275   0.00000  Uiso   1.00
C707   C     0.27849   0.23909   0.02402   0.00000  Uiso   1.00
C708   C     0.15867   0.38494   0.98043   0.00000  Uiso   1.00
C709   C     0.14403   0.40672   0.91454   0.00000  Uiso   1.00
C710   C     0.08867   0.40351   0.89547   0.00000  Uiso   1.00
C711   C     0.21277   0.41318   0.08389   0.00000  Uiso   1.00
C712   C     0.24361   0.45870   0.10499   0.00000  Uiso   1.00
C713   C     0.23378   0.47927   0.17302   0.00000  Uiso   1.00
H714   H     0.11396   0.32087   0.13038   0.00000  Uiso   1.00
H715   H     0.16392   0.22610   0.12991   0.00000  Uiso   1.00
H716   H     0.03369   0.33891   0.04172   0.00000  Uiso   1.00
H717   H     0.13325   0.39087   0.23214   0.00000  Uiso   1.00
H718   H     0.23661   0.13166   0.10942   0.00000  Uiso   1.00
H719   H     0.96202   0.36954   0.92348   0.00000  Uiso   1.00
H720   H     0.17196   0.47912   0.32501   0.00000  Uiso   1.00
H721   H     0.24737   0.40286   0.97664   0.00000  Uiso   1.00
H722   H     0.30465   0.31259   0.96774   0.00000  Uiso   1.00
H723   H     0.17442   0.42539   0.87955   0.00000  Uiso   1.00
H724   H     0.27398   0.47736   0.06996   0.00000  Uiso   1.00
H725   H     0.35084   0.20186   0.97779   0.00000  Uiso   1.00
H726   H     0.07624   0.43974   0.79185   0.00000  Uiso   1.00
H727   H     0.28618   0.54932   0.19338   0.00000  Uiso   1.00
O728   O     0.32899   0.10589   0.04050   0.00000  Uiso   1.00
O729   O     0.96873   0.41799   0.79657   0.00000  Uiso   1.00
O730   O     0.24417   0.56175   0.32336   0.00000  Uiso   1.00
N731   N     0.25564   0.16057   0.07967   0.00000  Uiso   1.00
N732   N     0.99891   0.38297   0.90583   0.00000  Uiso   1.00
N733   N     0.19518   0.48543   0.28122   0.00000  Uiso   1.00
N734   N     0.31710   0.19835   0.00884   0.00000  Uiso   1.00
N735   N     0.06038   0.42074   0.83500   0.00000  Uiso   1.00
N736   N     0.25664   0.52320   0.21039   0.00000  Uiso   1.00
