data_job_04194
_audit_creation_date              2018-12-19
_audit_creation_method            'Materials Studio'
_symmetry_space_group_name_H-M    'P1'
_symmetry_Int_Tables_number       1
_symmetry_cell_setting            triclinic
loop_
_symmetry_equiv_pos_as_xyz
  x,y,z
_cell_length_a                    42.9214
_cell_length_b                    28.4794
_cell_length_c                    12.8492
_cell_angle_alpha                 90.0000
_cell_angle_beta                  90.0000
_cell_angle_gamma                 90.0000
loop_
_atom_site_label
_atom_site_type_symbol
_atom_site_fract_x
_atom_site_fract_y
_atom_site_fract_z
_atom_site_U_iso_or_equiv
_atom_site_adp_type
_atom_site_occupancy
C1     C     0.45944   0.34475   0.11662   0.00000  Uiso   1.00
C2     C     0.43677   0.38514   0.13489   0.00000  Uiso   1.00
C3     C     0.42124   0.39456   0.22730   0.00000  Uiso   1.00
C4     C     0.40149   0.43317   0.22823   0.00000  Uiso   1.00
C5     C     0.36689   0.49160   0.27002   0.00000  Uiso   1.00
C6     C     0.44668   0.31743   0.02386   0.00000  Uiso   1.00
C7     C     0.43950   0.26992   0.02291   0.00000  Uiso   1.00
C8     C     0.42810   0.25152   0.93037   0.00000  Uiso   1.00
C9     C     0.40893   0.20482   0.79976   0.00000  Uiso   1.00
C10    C     0.48974   0.36717   0.07964   0.00000  Uiso   1.00
C11    C     0.51876   0.36146   0.12557   0.00000  Uiso   1.00
C12    C     0.54361   0.38493   0.07998   0.00000  Uiso   1.00
C13    C     0.59129   0.41546   0.03598   0.00000  Uiso   1.00
C14    C     0.45197   0.39655   0.95396   0.00000  Uiso   1.00
C15    C     0.43271   0.41328   0.04654   0.00000  Uiso   1.00
C16    C     0.41298   0.45188   0.04734   0.00000  Uiso   1.00
C17    C     0.39742   0.46136   0.13973   0.00000  Uiso   1.00
C18    C     0.44263   0.34557   0.93551   0.00000  Uiso   1.00
C19    C     0.43124   0.32723   0.84295   0.00000  Uiso   1.00
C20    C     0.42404   0.27971   0.84186   0.00000  Uiso   1.00
C21    C     0.48569   0.39531   0.99129   0.00000  Uiso   1.00
C22    C     0.51050   0.41879   0.94561   0.00000  Uiso   1.00
C23    C     0.53955   0.41312   0.99147   0.00000  Uiso   1.00
H24    H     0.46259   0.32284   0.18540   0.00000  Uiso   1.00
H25    H     0.42438   0.37277   0.29565   0.00000  Uiso   1.00
H26    H     0.44264   0.24815   0.09129   0.00000  Uiso   1.00
H27    H     0.52189   0.33969   0.19394   0.00000  Uiso   1.00
H28    H     0.38022   0.44054   0.37890   0.00000  Uiso   1.00
H29    H     0.41874   0.17776   0.94799   0.00000  Uiso   1.00
H30    H     0.58584   0.37078   0.16444   0.00000  Uiso   1.00
H31    H     0.44882   0.41846   0.88518   0.00000  Uiso   1.00
H32    H     0.40985   0.47365   0.97895   0.00000  Uiso   1.00
H33    H     0.42811   0.34902   0.77459   0.00000  Uiso   1.00
H34    H     0.50735   0.44056   0.87724   0.00000  Uiso   1.00
H35    H     0.36842   0.52241   0.12186   0.00000  Uiso   1.00
H36    H     0.40694   0.25963   0.69095   0.00000  Uiso   1.00
H37    H     0.57404   0.45265   0.90740   0.00000  Uiso   1.00
O38    O     0.34892   0.51605   0.31748   0.00000  Uiso   1.00
O39    O     0.39947   0.17128   0.75213   0.00000  Uiso   1.00
O40    O     0.61870   0.42452   0.03612   0.00000  Uiso   1.00
N41    N     0.38279   0.45224   0.30555   0.00000  Uiso   1.00
N42    N     0.41880   0.20655   0.90267   0.00000  Uiso   1.00
N43    N     0.57503   0.38700   0.10502   0.00000  Uiso   1.00
N44    N     0.37645   0.49630   0.16724   0.00000  Uiso   1.00
N45    N     0.41245   0.25061   0.76436   0.00000  Uiso   1.00
N46    N     0.56868   0.43106   0.96671   0.00000  Uiso   1.00
C47    C     0.45944   0.84475   0.61662   0.00000  Uiso   1.00
C48    C     0.43677   0.88514   0.63489   0.00000  Uiso   1.00
C49    C     0.42124   0.89456   0.72730   0.00000  Uiso   1.00
C50    C     0.40149   0.93317   0.72823   0.00000  Uiso   1.00
C51    C     0.36689   0.99160   0.77002   0.00000  Uiso   1.00
C52    C     0.44668   0.81743   0.52386   0.00000  Uiso   1.00
C53    C     0.43950   0.76992   0.52291   0.00000  Uiso   1.00
C54    C     0.42810   0.75152   0.43037   0.00000  Uiso   1.00
C55    C     0.40893   0.70482   0.29976   0.00000  Uiso   1.00
C56    C     0.48974   0.86717   0.57964   0.00000  Uiso   1.00
C57    C     0.51876   0.86146   0.62557   0.00000  Uiso   1.00
C58    C     0.54361   0.88493   0.57998   0.00000  Uiso   1.00
C59    C     0.59129   0.91546   0.53598   0.00000  Uiso   1.00
C60    C     0.45197   0.89655   0.45396   0.00000  Uiso   1.00
C61    C     0.43271   0.91328   0.54654   0.00000  Uiso   1.00
C62    C     0.41298   0.95188   0.54734   0.00000  Uiso   1.00
C63    C     0.39742   0.96136   0.63973   0.00000  Uiso   1.00
C64    C     0.44263   0.84557   0.43551   0.00000  Uiso   1.00
C65    C     0.43124   0.82723   0.34295   0.00000  Uiso   1.00
C66    C     0.42404   0.77971   0.34186   0.00000  Uiso   1.00
C67    C     0.48569   0.89531   0.49129   0.00000  Uiso   1.00
C68    C     0.51050   0.91879   0.44561   0.00000  Uiso   1.00
C69    C     0.53955   0.91312   0.49147   0.00000  Uiso   1.00
H70    H     0.46259   0.82284   0.68540   0.00000  Uiso   1.00
H71    H     0.42438   0.87277   0.79565   0.00000  Uiso   1.00
H72    H     0.44264   0.74815   0.59129   0.00000  Uiso   1.00
H73    H     0.52189   0.83969   0.69394   0.00000  Uiso   1.00
H74    H     0.38022   0.94054   0.87890   0.00000  Uiso   1.00
H75    H     0.41874   0.67776   0.44799   0.00000  Uiso   1.00
H76    H     0.58584   0.87078   0.66444   0.00000  Uiso   1.00
H77    H     0.44882   0.91846   0.38518   0.00000  Uiso   1.00
H78    H     0.40985   0.97365   0.47895   0.00000  Uiso   1.00
H79    H     0.42811   0.84902   0.27459   0.00000  Uiso   1.00
H80    H     0.50735   0.94056   0.37724   0.00000  Uiso   1.00
H81    H     0.36842   0.02241   0.62186   0.00000  Uiso   1.00
H82    H     0.40694   0.75963   0.19095   0.00000  Uiso   1.00
H83    H     0.57404   0.95265   0.40740   0.00000  Uiso   1.00
O84    O     0.34892   0.01605   0.81748   0.00000  Uiso   1.00
O85    O     0.39947   0.67128   0.25213   0.00000  Uiso   1.00
O86    O     0.61870   0.92452   0.53612   0.00000  Uiso   1.00
N87    N     0.38279   0.95224   0.80555   0.00000  Uiso   1.00
N88    N     0.41880   0.70655   0.40267   0.00000  Uiso   1.00
N89    N     0.57503   0.88700   0.60502   0.00000  Uiso   1.00
N90    N     0.37645   0.99630   0.66724   0.00000  Uiso   1.00
N91    N     0.41245   0.75061   0.26436   0.00000  Uiso   1.00
N92    N     0.56868   0.93106   0.46671   0.00000  Uiso   1.00
C93    C     0.95944   0.34475   0.61662   0.00000  Uiso   1.00
C94    C     0.93677   0.38514   0.63489   0.00000  Uiso   1.00
C95    C     0.92124   0.39456   0.72730   0.00000  Uiso   1.00
C96    C     0.90149   0.43317   0.72823   0.00000  Uiso   1.00
C97    C     0.86689   0.49160   0.77002   0.00000  Uiso   1.00
C98    C     0.94668   0.31743   0.52386   0.00000  Uiso   1.00
C99    C     0.93950   0.26992   0.52291   0.00000  Uiso   1.00
C100   C     0.92810   0.25152   0.43037   0.00000  Uiso   1.00
C101   C     0.90893   0.20482   0.29976   0.00000  Uiso   1.00
C102   C     0.98974   0.36717   0.57964   0.00000  Uiso   1.00
C103   C     0.01876   0.36146   0.62557   0.00000  Uiso   1.00
C104   C     0.04361   0.38493   0.57998   0.00000  Uiso   1.00
C105   C     0.09129   0.41546   0.53598   0.00000  Uiso   1.00
C106   C     0.95197   0.39655   0.45396   0.00000  Uiso   1.00
C107   C     0.93271   0.41328   0.54654   0.00000  Uiso   1.00
C108   C     0.91298   0.45188   0.54734   0.00000  Uiso   1.00
C109   C     0.89742   0.46136   0.63973   0.00000  Uiso   1.00
C110   C     0.94263   0.34557   0.43551   0.00000  Uiso   1.00
C111   C     0.93124   0.32723   0.34295   0.00000  Uiso   1.00
C112   C     0.92404   0.27971   0.34186   0.00000  Uiso   1.00
C113   C     0.98569   0.39531   0.49129   0.00000  Uiso   1.00
C114   C     0.01050   0.41879   0.44561   0.00000  Uiso   1.00
C115   C     0.03955   0.41312   0.49147   0.00000  Uiso   1.00
H116   H     0.96259   0.32284   0.68540   0.00000  Uiso   1.00
H117   H     0.92438   0.37277   0.79565   0.00000  Uiso   1.00
H118   H     0.94264   0.24815   0.59129   0.00000  Uiso   1.00
H119   H     0.02189   0.33969   0.69394   0.00000  Uiso   1.00
H120   H     0.88022   0.44054   0.87890   0.00000  Uiso   1.00
H121   H     0.91874   0.17776   0.44799   0.00000  Uiso   1.00
H122   H     0.08584   0.37078   0.66444   0.00000  Uiso   1.00
H123   H     0.94882   0.41846   0.38518   0.00000  Uiso   1.00
H124   H     0.90985   0.47365   0.47895   0.00000  Uiso   1.00
H125   H     0.92811   0.34902   0.27459   0.00000  Uiso   1.00
H126   H     0.00735   0.44056   0.37724   0.00000  Uiso   1.00
H127   H     0.86842   0.52241   0.62186   0.00000  Uiso   1.00
H128   H     0.90694   0.25963   0.19095   0.00000  Uiso   1.00
H129   H     0.07404   0.45265   0.40740   0.00000  Uiso   1.00
O130   O     0.84892   0.51605   0.81748   0.00000  Uiso   1.00
O131   O     0.89947   0.17128   0.25213   0.00000  Uiso   1.00
O132   O     0.11870   0.42452   0.53612   0.00000  Uiso   1.00
N133   N     0.88279   0.45224   0.80555   0.00000  Uiso   1.00
N134   N     0.91880   0.20655   0.40267   0.00000  Uiso   1.00
N135   N     0.07503   0.38700   0.60502   0.00000  Uiso   1.00
N136   N     0.87645   0.49630   0.66724   0.00000  Uiso   1.00
N137   N     0.91245   0.25061   0.26436   0.00000  Uiso   1.00
N138   N     0.06868   0.43106   0.46671   0.00000  Uiso   1.00
C139   C     0.95944   0.84475   0.11662   0.00000  Uiso   1.00
C140   C     0.93677   0.88514   0.13489   0.00000  Uiso   1.00
C141   C     0.92124   0.89456   0.22730   0.00000  Uiso   1.00
C142   C     0.90149   0.93317   0.22823   0.00000  Uiso   1.00
C143   C     0.86689   0.99160   0.27002   0.00000  Uiso   1.00
C144   C     0.94668   0.81743   0.02386   0.00000  Uiso   1.00
C145   C     0.93950   0.76992   0.02291   0.00000  Uiso   1.00
C146   C     0.92810   0.75152   0.93037   0.00000  Uiso   1.00
C147   C     0.90893   0.70482   0.79976   0.00000  Uiso   1.00
C148   C     0.98974   0.86717   0.07964   0.00000  Uiso   1.00
C149   C     0.01876   0.86146   0.12557   0.00000  Uiso   1.00
C150   C     0.04361   0.88493   0.07998   0.00000  Uiso   1.00
C151   C     0.09129   0.91546   0.03598   0.00000  Uiso   1.00
C152   C     0.95197   0.89655   0.95396   0.00000  Uiso   1.00
C153   C     0.93271   0.91328   0.04654   0.00000  Uiso   1.00
C154   C     0.91298   0.95188   0.04734   0.00000  Uiso   1.00
C155   C     0.89742   0.96136   0.13973   0.00000  Uiso   1.00
C156   C     0.94263   0.84557   0.93551   0.00000  Uiso   1.00
C157   C     0.93124   0.82723   0.84295   0.00000  Uiso   1.00
C158   C     0.92404   0.77971   0.84186   0.00000  Uiso   1.00
C159   C     0.98569   0.89531   0.99129   0.00000  Uiso   1.00
C160   C     0.01050   0.91879   0.94561   0.00000  Uiso   1.00
C161   C     0.03955   0.91312   0.99147   0.00000  Uiso   1.00
H162   H     0.96259   0.82284   0.18540   0.00000  Uiso   1.00
H163   H     0.92438   0.87277   0.29565   0.00000  Uiso   1.00
H164   H     0.94264   0.74815   0.09129   0.00000  Uiso   1.00
H165   H     0.02189   0.83969   0.19394   0.00000  Uiso   1.00
H166   H     0.88022   0.94054   0.37890   0.00000  Uiso   1.00
H167   H     0.91874   0.67776   0.94799   0.00000  Uiso   1.00
H168   H     0.08584   0.87078   0.16444   0.00000  Uiso   1.00
H169   H     0.94882   0.91846   0.88518   0.00000  Uiso   1.00
H170   H     0.90985   0.97365   0.97895   0.00000  Uiso   1.00
H171   H     0.92811   0.84902   0.77459   0.00000  Uiso   1.00
H172   H     0.00735   0.94056   0.87724   0.00000  Uiso   1.00
H173   H     0.86842   0.02241   0.12186   0.00000  Uiso   1.00
H174   H     0.90694   0.75963   0.69095   0.00000  Uiso   1.00
H175   H     0.07404   0.95265   0.90740   0.00000  Uiso   1.00
O176   O     0.84892   0.01605   0.31748   0.00000  Uiso   1.00
O177   O     0.89947   0.67128   0.75213   0.00000  Uiso   1.00
O178   O     0.11870   0.92452   0.03612   0.00000  Uiso   1.00
N179   N     0.88279   0.95224   0.30555   0.00000  Uiso   1.00
N180   N     0.91880   0.70655   0.90267   0.00000  Uiso   1.00
N181   N     0.07503   0.88700   0.10502   0.00000  Uiso   1.00
N182   N     0.87645   0.99630   0.16724   0.00000  Uiso   1.00
N183   N     0.91245   0.75061   0.76436   0.00000  Uiso   1.00
N184   N     0.06868   0.93106   0.96671   0.00000  Uiso   1.00
C185   C     0.54056   0.65525   0.11662   0.00000  Uiso   1.00
C186   C     0.56323   0.61486   0.13489   0.00000  Uiso   1.00
C187   C     0.57876   0.60544   0.22730   0.00000  Uiso   1.00
C188   C     0.59851   0.56683   0.22823   0.00000  Uiso   1.00
C189   C     0.63311   0.50840   0.27002   0.00000  Uiso   1.00
C190   C     0.55332   0.68257   0.02386   0.00000  Uiso   1.00
C191   C     0.56050   0.73008   0.02291   0.00000  Uiso   1.00
C192   C     0.57190   0.74848   0.93037   0.00000  Uiso   1.00
C193   C     0.59107   0.79518   0.79976   0.00000  Uiso   1.00
C194   C     0.51026   0.63283   0.07964   0.00000  Uiso   1.00
C195   C     0.48124   0.63854   0.12557   0.00000  Uiso   1.00
C196   C     0.45639   0.61507   0.07998   0.00000  Uiso   1.00
C197   C     0.40871   0.58454   0.03598   0.00000  Uiso   1.00
C198   C     0.54803   0.60345   0.95396   0.00000  Uiso   1.00
C199   C     0.56729   0.58672   0.04654   0.00000  Uiso   1.00
C200   C     0.58702   0.54812   0.04734   0.00000  Uiso   1.00
C201   C     0.60258   0.53864   0.13973   0.00000  Uiso   1.00
C202   C     0.55737   0.65443   0.93551   0.00000  Uiso   1.00
C203   C     0.56876   0.67277   0.84295   0.00000  Uiso   1.00
C204   C     0.57596   0.72029   0.84186   0.00000  Uiso   1.00
C205   C     0.51431   0.60469   0.99129   0.00000  Uiso   1.00
C206   C     0.48950   0.58121   0.94561   0.00000  Uiso   1.00
C207   C     0.46045   0.58688   0.99147   0.00000  Uiso   1.00
H208   H     0.53741   0.67716   0.18540   0.00000  Uiso   1.00
H209   H     0.57562   0.62723   0.29565   0.00000  Uiso   1.00
H210   H     0.55736   0.75185   0.09129   0.00000  Uiso   1.00
H211   H     0.47811   0.66031   0.19394   0.00000  Uiso   1.00
H212   H     0.61978   0.55946   0.37890   0.00000  Uiso   1.00
H213   H     0.58126   0.82224   0.94799   0.00000  Uiso   1.00
H214   H     0.41416   0.62922   0.16444   0.00000  Uiso   1.00
H215   H     0.55118   0.58154   0.88518   0.00000  Uiso   1.00
H216   H     0.59015   0.52635   0.97895   0.00000  Uiso   1.00
H217   H     0.57189   0.65098   0.77459   0.00000  Uiso   1.00
H218   H     0.49265   0.55944   0.87724   0.00000  Uiso   1.00
H219   H     0.63158   0.47759   0.12186   0.00000  Uiso   1.00
H220   H     0.59306   0.74037   0.69095   0.00000  Uiso   1.00
H221   H     0.42596   0.54735   0.90740   0.00000  Uiso   1.00
O222   O     0.65108   0.48395   0.31748   0.00000  Uiso   1.00
O223   O     0.60053   0.82872   0.75213   0.00000  Uiso   1.00
O224   O     0.38130   0.57548   0.03612   0.00000  Uiso   1.00
N225   N     0.61721   0.54776   0.30555   0.00000  Uiso   1.00
N226   N     0.58120   0.79345   0.90267   0.00000  Uiso   1.00
N227   N     0.42497   0.61300   0.10502   0.00000  Uiso   1.00
N228   N     0.62355   0.50370   0.16724   0.00000  Uiso   1.00
N229   N     0.58755   0.74939   0.76436   0.00000  Uiso   1.00
N230   N     0.43132   0.56894   0.96671   0.00000  Uiso   1.00
C231   C     0.54056   0.15525   0.61662   0.00000  Uiso   1.00
C232   C     0.56323   0.11486   0.63489   0.00000  Uiso   1.00
C233   C     0.57876   0.10544   0.72730   0.00000  Uiso   1.00
C234   C     0.59851   0.06683   0.72823   0.00000  Uiso   1.00
C235   C     0.63311   0.00840   0.77002   0.00000  Uiso   1.00
C236   C     0.55332   0.18257   0.52386   0.00000  Uiso   1.00
C237   C     0.56050   0.23008   0.52291   0.00000  Uiso   1.00
C238   C     0.57190   0.24848   0.43037   0.00000  Uiso   1.00
C239   C     0.59107   0.29518   0.29976   0.00000  Uiso   1.00
C240   C     0.51026   0.13283   0.57964   0.00000  Uiso   1.00
C241   C     0.48124   0.13854   0.62557   0.00000  Uiso   1.00
C242   C     0.45639   0.11507   0.57998   0.00000  Uiso   1.00
C243   C     0.40871   0.08454   0.53598   0.00000  Uiso   1.00
C244   C     0.54803   0.10345   0.45396   0.00000  Uiso   1.00
C245   C     0.56729   0.08672   0.54654   0.00000  Uiso   1.00
C246   C     0.58702   0.04812   0.54734   0.00000  Uiso   1.00
C247   C     0.60258   0.03864   0.63973   0.00000  Uiso   1.00
C248   C     0.55737   0.15443   0.43551   0.00000  Uiso   1.00
C249   C     0.56876   0.17277   0.34295   0.00000  Uiso   1.00
C250   C     0.57596   0.22029   0.34186   0.00000  Uiso   1.00
C251   C     0.51431   0.10469   0.49129   0.00000  Uiso   1.00
C252   C     0.48950   0.08121   0.44561   0.00000  Uiso   1.00
C253   C     0.46045   0.08688   0.49147   0.00000  Uiso   1.00
H254   H     0.53741   0.17716   0.68540   0.00000  Uiso   1.00
H255   H     0.57562   0.12723   0.79565   0.00000  Uiso   1.00
H256   H     0.55736   0.25185   0.59129   0.00000  Uiso   1.00
H257   H     0.47811   0.16031   0.69394   0.00000  Uiso   1.00
H258   H     0.61978   0.05946   0.87890   0.00000  Uiso   1.00
H259   H     0.58126   0.32224   0.44799   0.00000  Uiso   1.00
H260   H     0.41416   0.12922   0.66444   0.00000  Uiso   1.00
H261   H     0.55118   0.08154   0.38518   0.00000  Uiso   1.00
H262   H     0.59015   0.02635   0.47895   0.00000  Uiso   1.00
H263   H     0.57189   0.15098   0.27459   0.00000  Uiso   1.00
H264   H     0.49265   0.05944   0.37724   0.00000  Uiso   1.00
H265   H     0.63158   0.97759   0.62186   0.00000  Uiso   1.00
H266   H     0.59306   0.24037   0.19095   0.00000  Uiso   1.00
H267   H     0.42596   0.04735   0.40740   0.00000  Uiso   1.00
O268   O     0.65108   0.98395   0.81748   0.00000  Uiso   1.00
O269   O     0.60053   0.32872   0.25213   0.00000  Uiso   1.00
O270   O     0.38130   0.07548   0.53612   0.00000  Uiso   1.00
N271   N     0.61721   0.04776   0.80555   0.00000  Uiso   1.00
N272   N     0.58120   0.29345   0.40267   0.00000  Uiso   1.00
N273   N     0.42497   0.11300   0.60502   0.00000  Uiso   1.00
N274   N     0.62355   0.00370   0.66724   0.00000  Uiso   1.00
N275   N     0.58755   0.24939   0.26436   0.00000  Uiso   1.00
N276   N     0.43132   0.06894   0.46671   0.00000  Uiso   1.00
C277   C     0.04056   0.65525   0.61662   0.00000  Uiso   1.00
C278   C     0.06323   0.61486   0.63489   0.00000  Uiso   1.00
C279   C     0.07876   0.60544   0.72730   0.00000  Uiso   1.00
C280   C     0.09851   0.56683   0.72823   0.00000  Uiso   1.00
C281   C     0.13311   0.50840   0.77002   0.00000  Uiso   1.00
C282   C     0.05332   0.68257   0.52386   0.00000  Uiso   1.00
C283   C     0.06050   0.73008   0.52291   0.00000  Uiso   1.00
C284   C     0.07190   0.74848   0.43037   0.00000  Uiso   1.00
C285   C     0.09107   0.79518   0.29976   0.00000  Uiso   1.00
C286   C     0.01026   0.63283   0.57964   0.00000  Uiso   1.00
C287   C     0.98124   0.63854   0.62557   0.00000  Uiso   1.00
C288   C     0.95639   0.61507   0.57998   0.00000  Uiso   1.00
C289   C     0.90871   0.58454   0.53598   0.00000  Uiso   1.00
C290   C     0.04803   0.60345   0.45396   0.00000  Uiso   1.00
C291   C     0.06729   0.58672   0.54654   0.00000  Uiso   1.00
C292   C     0.08702   0.54812   0.54734   0.00000  Uiso   1.00
C293   C     0.10258   0.53864   0.63973   0.00000  Uiso   1.00
C294   C     0.05737   0.65443   0.43551   0.00000  Uiso   1.00
C295   C     0.06876   0.67277   0.34295   0.00000  Uiso   1.00
C296   C     0.07596   0.72029   0.34186   0.00000  Uiso   1.00
C297   C     0.01431   0.60469   0.49129   0.00000  Uiso   1.00
C298   C     0.98950   0.58121   0.44561   0.00000  Uiso   1.00
C299   C     0.96045   0.58688   0.49147   0.00000  Uiso   1.00
H300   H     0.03741   0.67716   0.68540   0.00000  Uiso   1.00
H301   H     0.07562   0.62723   0.79565   0.00000  Uiso   1.00
H302   H     0.05736   0.75185   0.59129   0.00000  Uiso   1.00
H303   H     0.97811   0.66031   0.69394   0.00000  Uiso   1.00
H304   H     0.11978   0.55946   0.87890   0.00000  Uiso   1.00
H305   H     0.08126   0.82224   0.44799   0.00000  Uiso   1.00
H306   H     0.91416   0.62922   0.66444   0.00000  Uiso   1.00
H307   H     0.05118   0.58154   0.38518   0.00000  Uiso   1.00
H308   H     0.09015   0.52635   0.47895   0.00000  Uiso   1.00
H309   H     0.07189   0.65098   0.27459   0.00000  Uiso   1.00
H310   H     0.99265   0.55944   0.37724   0.00000  Uiso   1.00
H311   H     0.13158   0.47759   0.62186   0.00000  Uiso   1.00
H312   H     0.09306   0.74037   0.19095   0.00000  Uiso   1.00
H313   H     0.92596   0.54735   0.40740   0.00000  Uiso   1.00
O314   O     0.15108   0.48395   0.81748   0.00000  Uiso   1.00
O315   O     0.10053   0.82872   0.25213   0.00000  Uiso   1.00
O316   O     0.88130   0.57548   0.53612   0.00000  Uiso   1.00
N317   N     0.11721   0.54776   0.80555   0.00000  Uiso   1.00
N318   N     0.08120   0.79345   0.40267   0.00000  Uiso   1.00
N319   N     0.92497   0.61300   0.60502   0.00000  Uiso   1.00
N320   N     0.12355   0.50370   0.66724   0.00000  Uiso   1.00
N321   N     0.08755   0.74939   0.26436   0.00000  Uiso   1.00
N322   N     0.93132   0.56894   0.46671   0.00000  Uiso   1.00
C323   C     0.04056   0.15525   0.11662   0.00000  Uiso   1.00
C324   C     0.06323   0.11486   0.13489   0.00000  Uiso   1.00
C325   C     0.07876   0.10544   0.22730   0.00000  Uiso   1.00
C326   C     0.09851   0.06683   0.22823   0.00000  Uiso   1.00
C327   C     0.13311   0.00840   0.27002   0.00000  Uiso   1.00
C328   C     0.05332   0.18257   0.02386   0.00000  Uiso   1.00
C329   C     0.06050   0.23008   0.02291   0.00000  Uiso   1.00
C330   C     0.07190   0.24848   0.93037   0.00000  Uiso   1.00
C331   C     0.09107   0.29518   0.79976   0.00000  Uiso   1.00
C332   C     0.01026   0.13283   0.07964   0.00000  Uiso   1.00
C333   C     0.98124   0.13854   0.12557   0.00000  Uiso   1.00
C334   C     0.95639   0.11507   0.07998   0.00000  Uiso   1.00
C335   C     0.90871   0.08454   0.03598   0.00000  Uiso   1.00
C336   C     0.04803   0.10345   0.95396   0.00000  Uiso   1.00
C337   C     0.06729   0.08672   0.04654   0.00000  Uiso   1.00
C338   C     0.08702   0.04812   0.04734   0.00000  Uiso   1.00
C339   C     0.10258   0.03864   0.13973   0.00000  Uiso   1.00
C340   C     0.05737   0.15443   0.93551   0.00000  Uiso   1.00
C341   C     0.06876   0.17277   0.84295   0.00000  Uiso   1.00
C342   C     0.07596   0.22029   0.84186   0.00000  Uiso   1.00
C343   C     0.01431   0.10469   0.99129   0.00000  Uiso   1.00
C344   C     0.98950   0.08121   0.94561   0.00000  Uiso   1.00
C345   C     0.96045   0.08688   0.99147   0.00000  Uiso   1.00
H346   H     0.03741   0.17716   0.18540   0.00000  Uiso   1.00
H347   H     0.07562   0.12723   0.29565   0.00000  Uiso   1.00
H348   H     0.05736   0.25185   0.09129   0.00000  Uiso   1.00
H349   H     0.97811   0.16031   0.19394   0.00000  Uiso   1.00
H350   H     0.11978   0.05946   0.37890   0.00000  Uiso   1.00
H351   H     0.08126   0.32224   0.94799   0.00000  Uiso   1.00
H352   H     0.91416   0.12922   0.16444   0.00000  Uiso   1.00
H353   H     0.05118   0.08154   0.88518   0.00000  Uiso   1.00
H354   H     0.09015   0.02635   0.97895   0.00000  Uiso   1.00
H355   H     0.07189   0.15098   0.77459   0.00000  Uiso   1.00
H356   H     0.99265   0.05944   0.87724   0.00000  Uiso   1.00
H357   H     0.13158   0.97759   0.12186   0.00000  Uiso   1.00
H358   H     0.09306   0.24037   0.69095   0.00000  Uiso   1.00
H359   H     0.92596   0.04735   0.90740   0.00000  Uiso   1.00
O360   O     0.15108   0.98395   0.31748   0.00000  Uiso   1.00
O361   O     0.10053   0.32872   0.75213   0.00000  Uiso   1.00
O362   O     0.88130   0.07548   0.03612   0.00000  Uiso   1.00
N363   N     0.11721   0.04776   0.30555   0.00000  Uiso   1.00
N364   N     0.08120   0.29345   0.90267   0.00000  Uiso   1.00
N365   N     0.92497   0.11300   0.10502   0.00000  Uiso   1.00
N366   N     0.12355   0.00370   0.16724   0.00000  Uiso   1.00
N367   N     0.08755   0.24939   0.76436   0.00000  Uiso   1.00
N368   N     0.93132   0.06894   0.96671   0.00000  Uiso   1.00
C369   C     0.70944   0.90525   0.36662   0.00000  Uiso   1.00
C370   C     0.68677   0.86486   0.38489   0.00000  Uiso   1.00
C371   C     0.67124   0.85544   0.47730   0.00000  Uiso   1.00
C372   C     0.65149   0.81683   0.47823   0.00000  Uiso   1.00
C373   C     0.61689   0.75840   0.52002   0.00000  Uiso   1.00
C374   C     0.69668   0.93257   0.27386   0.00000  Uiso   1.00
C375   C     0.68950   0.98008   0.27291   0.00000  Uiso   1.00
C376   C     0.67810   0.99848   0.18037   0.00000  Uiso   1.00
C377   C     0.65893   0.04518   0.04976   0.00000  Uiso   1.00
C378   C     0.73974   0.88283   0.32964   0.00000  Uiso   1.00
C379   C     0.76876   0.88854   0.37557   0.00000  Uiso   1.00
C380   C     0.79361   0.86507   0.32998   0.00000  Uiso   1.00
C381   C     0.84129   0.83454   0.28598   0.00000  Uiso   1.00
C382   C     0.70197   0.85345   0.20396   0.00000  Uiso   1.00
C383   C     0.68271   0.83672   0.29654   0.00000  Uiso   1.00
C384   C     0.66298   0.79812   0.29734   0.00000  Uiso   1.00
C385   C     0.64742   0.78864   0.38973   0.00000  Uiso   1.00
C386   C     0.69263   0.90443   0.18551   0.00000  Uiso   1.00
C387   C     0.68124   0.92277   0.09295   0.00000  Uiso   1.00
C388   C     0.67404   0.97029   0.09186   0.00000  Uiso   1.00
C389   C     0.73569   0.85469   0.24129   0.00000  Uiso   1.00
C390   C     0.76050   0.83121   0.19561   0.00000  Uiso   1.00
C391   C     0.78955   0.83688   0.24147   0.00000  Uiso   1.00
H392   H     0.71259   0.92716   0.43540   0.00000  Uiso   1.00
H393   H     0.67438   0.87723   0.54565   0.00000  Uiso   1.00
H394   H     0.69264   0.00185   0.34129   0.00000  Uiso   1.00
H395   H     0.77189   0.91031   0.44394   0.00000  Uiso   1.00
H396   H     0.63022   0.80946   0.62890   0.00000  Uiso   1.00
H397   H     0.66874   0.07224   0.19799   0.00000  Uiso   1.00
H398   H     0.83584   0.87922   0.41444   0.00000  Uiso   1.00
H399   H     0.69882   0.83154   0.13518   0.00000  Uiso   1.00
H400   H     0.65985   0.77635   0.22895   0.00000  Uiso   1.00
H401   H     0.67811   0.90098   0.02459   0.00000  Uiso   1.00
H402   H     0.75735   0.80944   0.12724   0.00000  Uiso   1.00
H403   H     0.61842   0.72759   0.37186   0.00000  Uiso   1.00
H404   H     0.65694   0.99037   0.94095   0.00000  Uiso   1.00
H405   H     0.82404   0.79735   0.15740   0.00000  Uiso   1.00
O406   O     0.59892   0.73395   0.56748   0.00000  Uiso   1.00
O407   O     0.64947   0.07872   0.00213   0.00000  Uiso   1.00
O408   O     0.86870   0.82548   0.28612   0.00000  Uiso   1.00
N409   N     0.63279   0.79776   0.55555   0.00000  Uiso   1.00
N410   N     0.66880   0.04345   0.15267   0.00000  Uiso   1.00
N411   N     0.82503   0.86300   0.35502   0.00000  Uiso   1.00
N412   N     0.62645   0.75370   0.41724   0.00000  Uiso   1.00
N413   N     0.66245   0.99939   0.01436   0.00000  Uiso   1.00
N414   N     0.81868   0.81894   0.21671   0.00000  Uiso   1.00
C415   C     0.70944   0.40525   0.86662   0.00000  Uiso   1.00
C416   C     0.68677   0.36486   0.88489   0.00000  Uiso   1.00
C417   C     0.67124   0.35544   0.97730   0.00000  Uiso   1.00
C418   C     0.65149   0.31683   0.97823   0.00000  Uiso   1.00
C419   C     0.61689   0.25840   0.02002   0.00000  Uiso   1.00
C420   C     0.69668   0.43257   0.77386   0.00000  Uiso   1.00
C421   C     0.68950   0.48008   0.77291   0.00000  Uiso   1.00
C422   C     0.67810   0.49848   0.68037   0.00000  Uiso   1.00
C423   C     0.65893   0.54518   0.54976   0.00000  Uiso   1.00
C424   C     0.73974   0.38283   0.82964   0.00000  Uiso   1.00
C425   C     0.76876   0.38854   0.87557   0.00000  Uiso   1.00
C426   C     0.79361   0.36507   0.82998   0.00000  Uiso   1.00
C427   C     0.84129   0.33454   0.78598   0.00000  Uiso   1.00
C428   C     0.70197   0.35345   0.70396   0.00000  Uiso   1.00
C429   C     0.68271   0.33672   0.79654   0.00000  Uiso   1.00
C430   C     0.66298   0.29812   0.79734   0.00000  Uiso   1.00
C431   C     0.64742   0.28864   0.88973   0.00000  Uiso   1.00
C432   C     0.69263   0.40443   0.68551   0.00000  Uiso   1.00
C433   C     0.68124   0.42277   0.59295   0.00000  Uiso   1.00
C434   C     0.67404   0.47029   0.59186   0.00000  Uiso   1.00
C435   C     0.73569   0.35469   0.74129   0.00000  Uiso   1.00
C436   C     0.76050   0.33121   0.69561   0.00000  Uiso   1.00
C437   C     0.78955   0.33688   0.74147   0.00000  Uiso   1.00
H438   H     0.71259   0.42716   0.93540   0.00000  Uiso   1.00
H439   H     0.67438   0.37723   0.04565   0.00000  Uiso   1.00
H440   H     0.69264   0.50185   0.84129   0.00000  Uiso   1.00
H441   H     0.77189   0.41031   0.94394   0.00000  Uiso   1.00
H442   H     0.63022   0.30946   0.12890   0.00000  Uiso   1.00
H443   H     0.66874   0.57224   0.69799   0.00000  Uiso   1.00
H444   H     0.83584   0.37922   0.91444   0.00000  Uiso   1.00
H445   H     0.69882   0.33154   0.63518   0.00000  Uiso   1.00
H446   H     0.65985   0.27635   0.72895   0.00000  Uiso   1.00
H447   H     0.67811   0.40098   0.52459   0.00000  Uiso   1.00
H448   H     0.75735   0.30944   0.62724   0.00000  Uiso   1.00
H449   H     0.61842   0.22759   0.87186   0.00000  Uiso   1.00
H450   H     0.65694   0.49037   0.44095   0.00000  Uiso   1.00
H451   H     0.82404   0.29735   0.65740   0.00000  Uiso   1.00
O452   O     0.59892   0.23395   0.06748   0.00000  Uiso   1.00
O453   O     0.64947   0.57872   0.50213   0.00000  Uiso   1.00
O454   O     0.86870   0.32548   0.78612   0.00000  Uiso   1.00
N455   N     0.63279   0.29776   0.05555   0.00000  Uiso   1.00
N456   N     0.66880   0.54345   0.65267   0.00000  Uiso   1.00
N457   N     0.82503   0.36300   0.85502   0.00000  Uiso   1.00
N458   N     0.62645   0.25370   0.91724   0.00000  Uiso   1.00
N459   N     0.66245   0.49939   0.51436   0.00000  Uiso   1.00
N460   N     0.81868   0.31894   0.71671   0.00000  Uiso   1.00
C461   C     0.20944   0.90525   0.86662   0.00000  Uiso   1.00
C462   C     0.18677   0.86486   0.88489   0.00000  Uiso   1.00
C463   C     0.17124   0.85544   0.97730   0.00000  Uiso   1.00
C464   C     0.15149   0.81683   0.97823   0.00000  Uiso   1.00
C465   C     0.11689   0.75840   0.02002   0.00000  Uiso   1.00
C466   C     0.19668   0.93257   0.77386   0.00000  Uiso   1.00
C467   C     0.18950   0.98008   0.77291   0.00000  Uiso   1.00
C468   C     0.17810   0.99848   0.68037   0.00000  Uiso   1.00
C469   C     0.15893   0.04518   0.54976   0.00000  Uiso   1.00
C470   C     0.23974   0.88283   0.82964   0.00000  Uiso   1.00
C471   C     0.26876   0.88854   0.87557   0.00000  Uiso   1.00
C472   C     0.29361   0.86507   0.82998   0.00000  Uiso   1.00
C473   C     0.34129   0.83454   0.78598   0.00000  Uiso   1.00
C474   C     0.20197   0.85345   0.70396   0.00000  Uiso   1.00
C475   C     0.18271   0.83672   0.79654   0.00000  Uiso   1.00
C476   C     0.16298   0.79812   0.79734   0.00000  Uiso   1.00
C477   C     0.14742   0.78864   0.88973   0.00000  Uiso   1.00
C478   C     0.19263   0.90443   0.68551   0.00000  Uiso   1.00
C479   C     0.18124   0.92277   0.59295   0.00000  Uiso   1.00
C480   C     0.17404   0.97029   0.59186   0.00000  Uiso   1.00
C481   C     0.23569   0.85469   0.74129   0.00000  Uiso   1.00
C482   C     0.26050   0.83121   0.69561   0.00000  Uiso   1.00
C483   C     0.28955   0.83688   0.74147   0.00000  Uiso   1.00
H484   H     0.21259   0.92716   0.93540   0.00000  Uiso   1.00
H485   H     0.17438   0.87723   0.04565   0.00000  Uiso   1.00
H486   H     0.19264   0.00185   0.84129   0.00000  Uiso   1.00
H487   H     0.27189   0.91031   0.94394   0.00000  Uiso   1.00
H488   H     0.13022   0.80946   0.12890   0.00000  Uiso   1.00
H489   H     0.16874   0.07224   0.69799   0.00000  Uiso   1.00
H490   H     0.33584   0.87922   0.91444   0.00000  Uiso   1.00
H491   H     0.19882   0.83154   0.63518   0.00000  Uiso   1.00
H492   H     0.15985   0.77635   0.72895   0.00000  Uiso   1.00
H493   H     0.17811   0.90098   0.52459   0.00000  Uiso   1.00
H494   H     0.25735   0.80944   0.62724   0.00000  Uiso   1.00
H495   H     0.11842   0.72759   0.87186   0.00000  Uiso   1.00
H496   H     0.15694   0.99037   0.44095   0.00000  Uiso   1.00
H497   H     0.32404   0.79735   0.65740   0.00000  Uiso   1.00
O498   O     0.09892   0.73395   0.06748   0.00000  Uiso   1.00
O499   O     0.14947   0.07872   0.50213   0.00000  Uiso   1.00
O500   O     0.36870   0.82548   0.78612   0.00000  Uiso   1.00
N501   N     0.13279   0.79776   0.05555   0.00000  Uiso   1.00
N502   N     0.16880   0.04345   0.65267   0.00000  Uiso   1.00
N503   N     0.32503   0.86300   0.85502   0.00000  Uiso   1.00
N504   N     0.12645   0.75370   0.91724   0.00000  Uiso   1.00
N505   N     0.16245   0.99939   0.51436   0.00000  Uiso   1.00
N506   N     0.31868   0.81894   0.71671   0.00000  Uiso   1.00
C507   C     0.20944   0.40525   0.36662   0.00000  Uiso   1.00
C508   C     0.18677   0.36486   0.38489   0.00000  Uiso   1.00
C509   C     0.17124   0.35544   0.47730   0.00000  Uiso   1.00
C510   C     0.15149   0.31683   0.47823   0.00000  Uiso   1.00
C511   C     0.11689   0.25840   0.52002   0.00000  Uiso   1.00
C512   C     0.19668   0.43257   0.27386   0.00000  Uiso   1.00
C513   C     0.18950   0.48008   0.27291   0.00000  Uiso   1.00
C514   C     0.17810   0.49848   0.18037   0.00000  Uiso   1.00
C515   C     0.15893   0.54518   0.04976   0.00000  Uiso   1.00
C516   C     0.23974   0.38283   0.32964   0.00000  Uiso   1.00
C517   C     0.26876   0.38854   0.37557   0.00000  Uiso   1.00
C518   C     0.29361   0.36507   0.32998   0.00000  Uiso   1.00
C519   C     0.34129   0.33454   0.28598   0.00000  Uiso   1.00
C520   C     0.20197   0.35345   0.20396   0.00000  Uiso   1.00
C521   C     0.18271   0.33672   0.29654   0.00000  Uiso   1.00
C522   C     0.16298   0.29812   0.29734   0.00000  Uiso   1.00
C523   C     0.14742   0.28864   0.38973   0.00000  Uiso   1.00
C524   C     0.19263   0.40443   0.18551   0.00000  Uiso   1.00
C525   C     0.18124   0.42277   0.09295   0.00000  Uiso   1.00
C526   C     0.17404   0.47029   0.09186   0.00000  Uiso   1.00
C527   C     0.23569   0.35469   0.24129   0.00000  Uiso   1.00
C528   C     0.26050   0.33121   0.19561   0.00000  Uiso   1.00
C529   C     0.28955   0.33688   0.24147   0.00000  Uiso   1.00
H530   H     0.21259   0.42716   0.43540   0.00000  Uiso   1.00
H531   H     0.17438   0.37723   0.54565   0.00000  Uiso   1.00
H532   H     0.19264   0.50185   0.34129   0.00000  Uiso   1.00
H533   H     0.27189   0.41031   0.44394   0.00000  Uiso   1.00
H534   H     0.13022   0.30946   0.62890   0.00000  Uiso   1.00
H535   H     0.16874   0.57224   0.19799   0.00000  Uiso   1.00
H536   H     0.33584   0.37922   0.41444   0.00000  Uiso   1.00
H537   H     0.19882   0.33154   0.13518   0.00000  Uiso   1.00
H538   H     0.15985   0.27635   0.22895   0.00000  Uiso   1.00
H539   H     0.17811   0.40098   0.02459   0.00000  Uiso   1.00
H540   H     0.25735   0.30944   0.12724   0.00000  Uiso   1.00
H541   H     0.11842   0.22759   0.37186   0.00000  Uiso   1.00
H542   H     0.15694   0.49037   0.94095   0.00000  Uiso   1.00
H543   H     0.32404   0.29735   0.15740   0.00000  Uiso   1.00
O544   O     0.09892   0.23395   0.56748   0.00000  Uiso   1.00
O545   O     0.14947   0.57872   0.00213   0.00000  Uiso   1.00
O546   O     0.36870   0.32548   0.28612   0.00000  Uiso   1.00
N547   N     0.13279   0.29776   0.55555   0.00000  Uiso   1.00
N548   N     0.16880   0.54345   0.15267   0.00000  Uiso   1.00
N549   N     0.32503   0.36300   0.35502   0.00000  Uiso   1.00
N550   N     0.12645   0.25370   0.41724   0.00000  Uiso   1.00
N551   N     0.16245   0.49939   0.01436   0.00000  Uiso   1.00
N552   N     0.31868   0.31894   0.21671   0.00000  Uiso   1.00
C553   C     0.79056   0.59475   0.36662   0.00000  Uiso   1.00
C554   C     0.81323   0.63514   0.38489   0.00000  Uiso   1.00
C555   C     0.82876   0.64456   0.47730   0.00000  Uiso   1.00
C556   C     0.84851   0.68317   0.47823   0.00000  Uiso   1.00
C557   C     0.88311   0.74160   0.52002   0.00000  Uiso   1.00
C558   C     0.80332   0.56743   0.27386   0.00000  Uiso   1.00
C559   C     0.81050   0.51992   0.27291   0.00000  Uiso   1.00
C560   C     0.82190   0.50152   0.18037   0.00000  Uiso   1.00
C561   C     0.84107   0.45482   0.04976   0.00000  Uiso   1.00
C562   C     0.76026   0.61717   0.32964   0.00000  Uiso   1.00
C563   C     0.73124   0.61146   0.37557   0.00000  Uiso   1.00
C564   C     0.70639   0.63493   0.32998   0.00000  Uiso   1.00
C565   C     0.65871   0.66546   0.28598   0.00000  Uiso   1.00
C566   C     0.79803   0.64655   0.20396   0.00000  Uiso   1.00
C567   C     0.81729   0.66328   0.29654   0.00000  Uiso   1.00
C568   C     0.83702   0.70188   0.29734   0.00000  Uiso   1.00
C569   C     0.85258   0.71136   0.38973   0.00000  Uiso   1.00
C570   C     0.80737   0.59557   0.18551   0.00000  Uiso   1.00
C571   C     0.81876   0.57723   0.09295   0.00000  Uiso   1.00
C572   C     0.82596   0.52971   0.09186   0.00000  Uiso   1.00
C573   C     0.76431   0.64531   0.24129   0.00000  Uiso   1.00
C574   C     0.73950   0.66879   0.19561   0.00000  Uiso   1.00
C575   C     0.71045   0.66312   0.24147   0.00000  Uiso   1.00
H576   H     0.78741   0.57284   0.43540   0.00000  Uiso   1.00
H577   H     0.82562   0.62277   0.54565   0.00000  Uiso   1.00
H578   H     0.80736   0.49815   0.34129   0.00000  Uiso   1.00
H579   H     0.72811   0.58969   0.44394   0.00000  Uiso   1.00
H580   H     0.86978   0.69054   0.62890   0.00000  Uiso   1.00
H581   H     0.83126   0.42776   0.19799   0.00000  Uiso   1.00
H582   H     0.66416   0.62078   0.41444   0.00000  Uiso   1.00
H583   H     0.80118   0.66846   0.13518   0.00000  Uiso   1.00
H584   H     0.84015   0.72365   0.22895   0.00000  Uiso   1.00
H585   H     0.82189   0.59902   0.02459   0.00000  Uiso   1.00
H586   H     0.74265   0.69056   0.12724   0.00000  Uiso   1.00
H587   H     0.88158   0.77241   0.37186   0.00000  Uiso   1.00
H588   H     0.84306   0.50963   0.94095   0.00000  Uiso   1.00
H589   H     0.67596   0.70265   0.15740   0.00000  Uiso   1.00
O590   O     0.90108   0.76605   0.56748   0.00000  Uiso   1.00
O591   O     0.85053   0.42128   0.00213   0.00000  Uiso   1.00
O592   O     0.63130   0.67452   0.28612   0.00000  Uiso   1.00
N593   N     0.86721   0.70224   0.55555   0.00000  Uiso   1.00
N594   N     0.83120   0.45655   0.15267   0.00000  Uiso   1.00
N595   N     0.67497   0.63700   0.35502   0.00000  Uiso   1.00
N596   N     0.87355   0.74630   0.41724   0.00000  Uiso   1.00
N597   N     0.83755   0.50061   0.01436   0.00000  Uiso   1.00
N598   N     0.68132   0.68106   0.21671   0.00000  Uiso   1.00
C599   C     0.79056   0.09475   0.86662   0.00000  Uiso   1.00
C600   C     0.81323   0.13514   0.88489   0.00000  Uiso   1.00
C601   C     0.82876   0.14456   0.97730   0.00000  Uiso   1.00
C602   C     0.84851   0.18317   0.97823   0.00000  Uiso   1.00
C603   C     0.88311   0.24160   0.02002   0.00000  Uiso   1.00
C604   C     0.80332   0.06743   0.77386   0.00000  Uiso   1.00
C605   C     0.81050   0.01992   0.77291   0.00000  Uiso   1.00
C606   C     0.82190   0.00152   0.68037   0.00000  Uiso   1.00
C607   C     0.84107   0.95482   0.54976   0.00000  Uiso   1.00
C608   C     0.76026   0.11717   0.82964   0.00000  Uiso   1.00
C609   C     0.73124   0.11146   0.87557   0.00000  Uiso   1.00
C610   C     0.70639   0.13493   0.82998   0.00000  Uiso   1.00
C611   C     0.65871   0.16546   0.78598   0.00000  Uiso   1.00
C612   C     0.79803   0.14655   0.70396   0.00000  Uiso   1.00
C613   C     0.81729   0.16328   0.79654   0.00000  Uiso   1.00
C614   C     0.83702   0.20188   0.79734   0.00000  Uiso   1.00
C615   C     0.85258   0.21136   0.88973   0.00000  Uiso   1.00
C616   C     0.80737   0.09557   0.68551   0.00000  Uiso   1.00
C617   C     0.81876   0.07723   0.59295   0.00000  Uiso   1.00
C618   C     0.82596   0.02971   0.59186   0.00000  Uiso   1.00
C619   C     0.76431   0.14531   0.74129   0.00000  Uiso   1.00
C620   C     0.73950   0.16879   0.69561   0.00000  Uiso   1.00
C621   C     0.71045   0.16312   0.74147   0.00000  Uiso   1.00
H622   H     0.78741   0.07284   0.93540   0.00000  Uiso   1.00
H623   H     0.82562   0.12277   0.04565   0.00000  Uiso   1.00
H624   H     0.80736   0.99815   0.84129   0.00000  Uiso   1.00
H625   H     0.72811   0.08969   0.94394   0.00000  Uiso   1.00
H626   H     0.86978   0.19054   0.12890   0.00000  Uiso   1.00
H627   H     0.83126   0.92776   0.69799   0.00000  Uiso   1.00
H628   H     0.66416   0.12078   0.91444   0.00000  Uiso   1.00
H629   H     0.80118   0.16846   0.63518   0.00000  Uiso   1.00
H630   H     0.84015   0.22365   0.72895   0.00000  Uiso   1.00
H631   H     0.82189   0.09902   0.52459   0.00000  Uiso   1.00
H632   H     0.74265   0.19056   0.62724   0.00000  Uiso   1.00
H633   H     0.88158   0.27241   0.87186   0.00000  Uiso   1.00
H634   H     0.84306   0.00963   0.44095   0.00000  Uiso   1.00
H635   H     0.67596   0.20265   0.65740   0.00000  Uiso   1.00
O636   O     0.90108   0.26605   0.06748   0.00000  Uiso   1.00
O637   O     0.85053   0.92128   0.50213   0.00000  Uiso   1.00
O638   O     0.63130   0.17452   0.78612   0.00000  Uiso   1.00
N639   N     0.86721   0.20224   0.05555   0.00000  Uiso   1.00
N640   N     0.83120   0.95655   0.65267   0.00000  Uiso   1.00
N641   N     0.67497   0.13700   0.85502   0.00000  Uiso   1.00
N642   N     0.87355   0.24630   0.91724   0.00000  Uiso   1.00
N643   N     0.83755   0.00061   0.51436   0.00000  Uiso   1.00
N644   N     0.68132   0.18106   0.71671   0.00000  Uiso   1.00
C645   C     0.29056   0.59475   0.86662   0.00000  Uiso   1.00
C646   C     0.31323   0.63514   0.88489   0.00000  Uiso   1.00
C647   C     0.32876   0.64456   0.97730   0.00000  Uiso   1.00
C648   C     0.34851   0.68317   0.97823   0.00000  Uiso   1.00
C649   C     0.38311   0.74160   0.02002   0.00000  Uiso   1.00
C650   C     0.30332   0.56743   0.77386   0.00000  Uiso   1.00
C651   C     0.31050   0.51992   0.77291   0.00000  Uiso   1.00
C652   C     0.32190   0.50152   0.68037   0.00000  Uiso   1.00
C653   C     0.34107   0.45482   0.54976   0.00000  Uiso   1.00
C654   C     0.26026   0.61717   0.82964   0.00000  Uiso   1.00
C655   C     0.23124   0.61146   0.87557   0.00000  Uiso   1.00
C656   C     0.20639   0.63493   0.82998   0.00000  Uiso   1.00
C657   C     0.15871   0.66546   0.78598   0.00000  Uiso   1.00
C658   C     0.29803   0.64655   0.70396   0.00000  Uiso   1.00
C659   C     0.31729   0.66328   0.79654   0.00000  Uiso   1.00
C660   C     0.33702   0.70188   0.79734   0.00000  Uiso   1.00
C661   C     0.35258   0.71136   0.88973   0.00000  Uiso   1.00
C662   C     0.30737   0.59557   0.68551   0.00000  Uiso   1.00
C663   C     0.31876   0.57723   0.59295   0.00000  Uiso   1.00
C664   C     0.32596   0.52971   0.59186   0.00000  Uiso   1.00
C665   C     0.26431   0.64531   0.74129   0.00000  Uiso   1.00
C666   C     0.23950   0.66879   0.69561   0.00000  Uiso   1.00
C667   C     0.21045   0.66312   0.74147   0.00000  Uiso   1.00
H668   H     0.28741   0.57284   0.93540   0.00000  Uiso   1.00
H669   H     0.32562   0.62277   0.04565   0.00000  Uiso   1.00
H670   H     0.30736   0.49815   0.84129   0.00000  Uiso   1.00
H671   H     0.22811   0.58969   0.94394   0.00000  Uiso   1.00
H672   H     0.36978   0.69054   0.12890   0.00000  Uiso   1.00
H673   H     0.33126   0.42776   0.69799   0.00000  Uiso   1.00
H674   H     0.16416   0.62078   0.91444   0.00000  Uiso   1.00
H675   H     0.30118   0.66846   0.63518   0.00000  Uiso   1.00
H676   H     0.34015   0.72365   0.72895   0.00000  Uiso   1.00
H677   H     0.32189   0.59902   0.52459   0.00000  Uiso   1.00
H678   H     0.24265   0.69056   0.62724   0.00000  Uiso   1.00
H679   H     0.38158   0.77241   0.87186   0.00000  Uiso   1.00
H680   H     0.34306   0.50963   0.44095   0.00000  Uiso   1.00
H681   H     0.17596   0.70265   0.65740   0.00000  Uiso   1.00
O682   O     0.40108   0.76605   0.06748   0.00000  Uiso   1.00
O683   O     0.35053   0.42128   0.50213   0.00000  Uiso   1.00
O684   O     0.13130   0.67452   0.78612   0.00000  Uiso   1.00
N685   N     0.36721   0.70224   0.05555   0.00000  Uiso   1.00
N686   N     0.33120   0.45655   0.65267   0.00000  Uiso   1.00
N687   N     0.17497   0.63700   0.85502   0.00000  Uiso   1.00
N688   N     0.37355   0.74630   0.91724   0.00000  Uiso   1.00
N689   N     0.33755   0.50061   0.51436   0.00000  Uiso   1.00
N690   N     0.18132   0.68106   0.71671   0.00000  Uiso   1.00
C691   C     0.29056   0.09475   0.36662   0.00000  Uiso   1.00
C692   C     0.31323   0.13514   0.38489   0.00000  Uiso   1.00
C693   C     0.32876   0.14456   0.47730   0.00000  Uiso   1.00
C694   C     0.34851   0.18317   0.47823   0.00000  Uiso   1.00
C695   C     0.38311   0.24160   0.52002   0.00000  Uiso   1.00
C696   C     0.30332   0.06743   0.27386   0.00000  Uiso   1.00
C697   C     0.31050   0.01992   0.27291   0.00000  Uiso   1.00
C698   C     0.32190   0.00152   0.18037   0.00000  Uiso   1.00
C699   C     0.34107   0.95482   0.04976   0.00000  Uiso   1.00
C700   C     0.26026   0.11717   0.32964   0.00000  Uiso   1.00
C701   C     0.23124   0.11146   0.37557   0.00000  Uiso   1.00
C702   C     0.20639   0.13493   0.32998   0.00000  Uiso   1.00
C703   C     0.15871   0.16546   0.28598   0.00000  Uiso   1.00
C704   C     0.29803   0.14655   0.20396   0.00000  Uiso   1.00
C705   C     0.31729   0.16328   0.29654   0.00000  Uiso   1.00
C706   C     0.33702   0.20188   0.29734   0.00000  Uiso   1.00
C707   C     0.35258   0.21136   0.38973   0.00000  Uiso   1.00
C708   C     0.30737   0.09557   0.18551   0.00000  Uiso   1.00
C709   C     0.31876   0.07723   0.09295   0.00000  Uiso   1.00
C710   C     0.32596   0.02971   0.09186   0.00000  Uiso   1.00
C711   C     0.26431   0.14531   0.24129   0.00000  Uiso   1.00
C712   C     0.23950   0.16879   0.19561   0.00000  Uiso   1.00
C713   C     0.21045   0.16312   0.24147   0.00000  Uiso   1.00
H714   H     0.28741   0.07284   0.43540   0.00000  Uiso   1.00
H715   H     0.32562   0.12277   0.54565   0.00000  Uiso   1.00
H716   H     0.30736   0.99815   0.34129   0.00000  Uiso   1.00
H717   H     0.22811   0.08969   0.44394   0.00000  Uiso   1.00
H718   H     0.36978   0.19054   0.62890   0.00000  Uiso   1.00
H719   H     0.33126   0.92776   0.19799   0.00000  Uiso   1.00
H720   H     0.16416   0.12078   0.41444   0.00000  Uiso   1.00
H721   H     0.30118   0.16846   0.13518   0.00000  Uiso   1.00
H722   H     0.34015   0.22365   0.22895   0.00000  Uiso   1.00
H723   H     0.32189   0.09902   0.02459   0.00000  Uiso   1.00
H724   H     0.24265   0.19056   0.12724   0.00000  Uiso   1.00
H725   H     0.38158   0.27241   0.37186   0.00000  Uiso   1.00
H726   H     0.34306   0.00963   0.94095   0.00000  Uiso   1.00
H727   H     0.17596   0.20265   0.15740   0.00000  Uiso   1.00
O728   O     0.40108   0.26605   0.56748   0.00000  Uiso   1.00
O729   O     0.35053   0.92128   0.00213   0.00000  Uiso   1.00
O730   O     0.13130   0.17452   0.28612   0.00000  Uiso   1.00
N731   N     0.36721   0.20224   0.55555   0.00000  Uiso   1.00
N732   N     0.33120   0.95655   0.15267   0.00000  Uiso   1.00
N733   N     0.17497   0.13700   0.35502   0.00000  Uiso   1.00
N734   N     0.37355   0.24630   0.41724   0.00000  Uiso   1.00
N735   N     0.33755   0.00061   0.01436   0.00000  Uiso   1.00
N736   N     0.18132   0.18106   0.21671   0.00000  Uiso   1.00
