data_job_02951
_audit_creation_date              2018-12-19
_audit_creation_method            'Materials Studio'
_symmetry_space_group_name_H-M    'P1'
_symmetry_Int_Tables_number       1
_symmetry_cell_setting            triclinic
loop_
_symmetry_equiv_pos_as_xyz
  x,y,z
_cell_length_a                    35.4443
_cell_length_b                    35.4443
_cell_length_c                    12.4831
_cell_angle_alpha                 90.0000
_cell_angle_beta                  90.0000
_cell_angle_gamma                 90.0000
loop_
_atom_site_label
_atom_site_type_symbol
_atom_site_fract_x
_atom_site_fract_y
_atom_site_fract_z
_atom_site_U_iso_or_equiv
_atom_site_adp_type
_atom_site_occupancy
C1     C     0.26994   0.58226   0.70129   0.00000  Uiso   1.00
C2     C     0.26349   0.61488   0.62375   0.00000  Uiso   1.00
C3     C     0.28424   0.62199   0.53167   0.00000  Uiso   1.00
C4     C     0.27391   0.65326   0.47144   0.00000  Uiso   1.00
C5     C     0.26848   0.70037   0.34639   0.00000  Uiso   1.00
C6     C     0.27594   0.60015   0.81108   0.00000  Uiso   1.00
C7     C     0.30716   0.59487   0.87649   0.00000  Uiso   1.00
C8     C     0.30731   0.61373   0.97397   0.00000  Uiso   1.00
C9     C     0.32119   0.63795   0.13977   0.00000  Uiso   1.00
C10    C     0.23253   0.56115   0.70796   0.00000  Uiso   1.00
C11    C     0.22724   0.52308   0.68671   0.00000  Uiso   1.00
C12    C     0.19083   0.50912   0.69740   0.00000  Uiso   1.00
C13    C     0.13731   0.47279   0.70310   0.00000  Uiso   1.00
C14    C     0.21469   0.62515   0.75809   0.00000  Uiso   1.00
C15    C     0.23348   0.63817   0.65461   0.00000  Uiso   1.00
C16    C     0.22312   0.66944   0.59451   0.00000  Uiso   1.00
C17    C     0.24385   0.67660   0.50235   0.00000  Uiso   1.00
C18    C     0.24594   0.62344   0.84193   0.00000  Uiso   1.00
C19    C     0.24604   0.64231   0.93934   0.00000  Uiso   1.00
C20    C     0.27725   0.63707   0.00488   0.00000  Uiso   1.00
C21    C     0.20252   0.58445   0.73881   0.00000  Uiso   1.00
C22    C     0.16611   0.57053   0.74955   0.00000  Uiso   1.00
C23    C     0.16077   0.53245   0.72831   0.00000  Uiso   1.00
H24    H     0.29330   0.56413   0.67727   0.00000  Uiso   1.00
H25    H     0.30746   0.60396   0.50782   0.00000  Uiso   1.00
H26    H     0.33038   0.57684   0.85260   0.00000  Uiso   1.00
H27    H     0.25047   0.50507   0.66284   0.00000  Uiso   1.00
H28    H     0.30994   0.65840   0.33358   0.00000  Uiso   1.00
H29    H     0.35825   0.60120   0.06058   0.00000  Uiso   1.00
H30    H     0.18974   0.44986   0.66043   0.00000  Uiso   1.00
H31    H     0.19133   0.64328   0.78211   0.00000  Uiso   1.00
H32    H     0.19990   0.68746   0.61841   0.00000  Uiso   1.00
H33    H     0.22281   0.66034   0.96319   0.00000  Uiso   1.00
H34    H     0.14290   0.58857   0.77343   0.00000  Uiso   1.00
H35    H     0.22264   0.72617   0.42334   0.00000  Uiso   1.00
H36    H     0.27094   0.66897   0.15034   0.00000  Uiso   1.00
H37    H     0.10244   0.51763   0.75019   0.00000  Uiso   1.00
O38    O     0.27377   0.71993   0.26890   0.00000  Uiso   1.00
O39    O     0.33714   0.64488   0.22270   0.00000  Uiso   1.00
O40    O     0.11607   0.44632   0.69771   0.00000  Uiso   1.00
N41    N     0.28821   0.66828   0.37716   0.00000  Uiso   1.00
N42    N     0.33338   0.61481   0.05685   0.00000  Uiso   1.00
N43    N     0.17584   0.47332   0.68278   0.00000  Uiso   1.00
N44    N     0.24123   0.70475   0.42546   0.00000  Uiso   1.00
N45    N     0.28640   0.65128   0.10515   0.00000  Uiso   1.00
N46    N     0.12886   0.50979   0.73107   0.00000  Uiso   1.00
C47    C     0.76994   0.08226   0.20129   0.00000  Uiso   1.00
C48    C     0.76349   0.11488   0.12375   0.00000  Uiso   1.00
C49    C     0.78424   0.12199   0.03167   0.00000  Uiso   1.00
C50    C     0.77391   0.15326   0.97144   0.00000  Uiso   1.00
C51    C     0.76848   0.20037   0.84639   0.00000  Uiso   1.00
C52    C     0.77594   0.10015   0.31108   0.00000  Uiso   1.00
C53    C     0.80716   0.09487   0.37649   0.00000  Uiso   1.00
C54    C     0.80731   0.11373   0.47397   0.00000  Uiso   1.00
C55    C     0.82119   0.13795   0.63977   0.00000  Uiso   1.00
C56    C     0.73253   0.06115   0.20796   0.00000  Uiso   1.00
C57    C     0.72724   0.02308   0.18671   0.00000  Uiso   1.00
C58    C     0.69083   0.00912   0.19740   0.00000  Uiso   1.00
C59    C     0.63731   0.97279   0.20310   0.00000  Uiso   1.00
C60    C     0.71469   0.12515   0.25809   0.00000  Uiso   1.00
C61    C     0.73348   0.13817   0.15461   0.00000  Uiso   1.00
C62    C     0.72312   0.16944   0.09451   0.00000  Uiso   1.00
C63    C     0.74385   0.17660   0.00235   0.00000  Uiso   1.00
C64    C     0.74594   0.12344   0.34193   0.00000  Uiso   1.00
C65    C     0.74604   0.14231   0.43934   0.00000  Uiso   1.00
C66    C     0.77725   0.13707   0.50488   0.00000  Uiso   1.00
C67    C     0.70252   0.08445   0.23881   0.00000  Uiso   1.00
C68    C     0.66611   0.07053   0.24955   0.00000  Uiso   1.00
C69    C     0.66077   0.03245   0.22831   0.00000  Uiso   1.00
H70    H     0.79330   0.06413   0.17727   0.00000  Uiso   1.00
H71    H     0.80746   0.10396   0.00782   0.00000  Uiso   1.00
H72    H     0.83038   0.07684   0.35260   0.00000  Uiso   1.00
H73    H     0.75047   0.00507   0.16284   0.00000  Uiso   1.00
H74    H     0.80994   0.15840   0.83358   0.00000  Uiso   1.00
H75    H     0.85825   0.10120   0.56058   0.00000  Uiso   1.00
H76    H     0.68974   0.94986   0.16043   0.00000  Uiso   1.00
H77    H     0.69133   0.14328   0.28211   0.00000  Uiso   1.00
H78    H     0.69990   0.18746   0.11841   0.00000  Uiso   1.00
H79    H     0.72281   0.16034   0.46319   0.00000  Uiso   1.00
H80    H     0.64290   0.08857   0.27343   0.00000  Uiso   1.00
H81    H     0.72264   0.22617   0.92334   0.00000  Uiso   1.00
H82    H     0.77094   0.16897   0.65034   0.00000  Uiso   1.00
H83    H     0.60244   0.01763   0.25019   0.00000  Uiso   1.00
O84    O     0.77377   0.21993   0.76890   0.00000  Uiso   1.00
O85    O     0.83714   0.14488   0.72270   0.00000  Uiso   1.00
O86    O     0.61607   0.94632   0.19771   0.00000  Uiso   1.00
N87    N     0.78821   0.16828   0.87716   0.00000  Uiso   1.00
N88    N     0.83338   0.11481   0.55685   0.00000  Uiso   1.00
N89    N     0.67584   0.97332   0.18278   0.00000  Uiso   1.00
N90    N     0.74123   0.20475   0.92546   0.00000  Uiso   1.00
N91    N     0.78640   0.15128   0.60515   0.00000  Uiso   1.00
N92    N     0.62886   0.00979   0.23107   0.00000  Uiso   1.00
C93    C     0.23006   0.91774   0.20129   0.00000  Uiso   1.00
C94    C     0.23651   0.88512   0.12375   0.00000  Uiso   1.00
C95    C     0.21576   0.87801   0.03167   0.00000  Uiso   1.00
C96    C     0.22609   0.84674   0.97144   0.00000  Uiso   1.00
C97    C     0.23152   0.79963   0.84639   0.00000  Uiso   1.00
C98    C     0.22406   0.89985   0.31108   0.00000  Uiso   1.00
C99    C     0.19284   0.90513   0.37649   0.00000  Uiso   1.00
C100   C     0.19269   0.88627   0.47397   0.00000  Uiso   1.00
C101   C     0.17881   0.86205   0.63977   0.00000  Uiso   1.00
C102   C     0.26747   0.93885   0.20796   0.00000  Uiso   1.00
C103   C     0.27276   0.97692   0.18671   0.00000  Uiso   1.00
C104   C     0.30917   0.99088   0.19740   0.00000  Uiso   1.00
C105   C     0.36269   0.02721   0.20310   0.00000  Uiso   1.00
C106   C     0.28531   0.87485   0.25809   0.00000  Uiso   1.00
C107   C     0.26652   0.86183   0.15461   0.00000  Uiso   1.00
C108   C     0.27688   0.83056   0.09451   0.00000  Uiso   1.00
C109   C     0.25615   0.82340   0.00235   0.00000  Uiso   1.00
C110   C     0.25406   0.87656   0.34193   0.00000  Uiso   1.00
C111   C     0.25396   0.85769   0.43934   0.00000  Uiso   1.00
C112   C     0.22275   0.86293   0.50488   0.00000  Uiso   1.00
C113   C     0.29748   0.91555   0.23881   0.00000  Uiso   1.00
C114   C     0.33389   0.92947   0.24955   0.00000  Uiso   1.00
C115   C     0.33923   0.96755   0.22831   0.00000  Uiso   1.00
H116   H     0.20670   0.93587   0.17727   0.00000  Uiso   1.00
H117   H     0.19254   0.89604   0.00782   0.00000  Uiso   1.00
H118   H     0.16962   0.92316   0.35260   0.00000  Uiso   1.00
H119   H     0.24953   0.99493   0.16284   0.00000  Uiso   1.00
H120   H     0.19006   0.84160   0.83358   0.00000  Uiso   1.00
H121   H     0.14175   0.89880   0.56058   0.00000  Uiso   1.00
H122   H     0.31026   0.05014   0.16043   0.00000  Uiso   1.00
H123   H     0.30867   0.85672   0.28211   0.00000  Uiso   1.00
H124   H     0.30010   0.81254   0.11841   0.00000  Uiso   1.00
H125   H     0.27719   0.83966   0.46319   0.00000  Uiso   1.00
H126   H     0.35710   0.91143   0.27343   0.00000  Uiso   1.00
H127   H     0.27736   0.77383   0.92334   0.00000  Uiso   1.00
H128   H     0.22906   0.83103   0.65034   0.00000  Uiso   1.00
H129   H     0.39756   0.98237   0.25019   0.00000  Uiso   1.00
O130   O     0.22623   0.78007   0.76890   0.00000  Uiso   1.00
O131   O     0.16286   0.85512   0.72270   0.00000  Uiso   1.00
O132   O     0.38393   0.05368   0.19771   0.00000  Uiso   1.00
N133   N     0.21179   0.83172   0.87716   0.00000  Uiso   1.00
N134   N     0.16662   0.88519   0.55685   0.00000  Uiso   1.00
N135   N     0.32416   0.02668   0.18278   0.00000  Uiso   1.00
N136   N     0.25877   0.79525   0.92546   0.00000  Uiso   1.00
N137   N     0.21360   0.84872   0.60515   0.00000  Uiso   1.00
N138   N     0.37114   0.99021   0.23107   0.00000  Uiso   1.00
C139   C     0.73006   0.41774   0.70129   0.00000  Uiso   1.00
C140   C     0.73651   0.38512   0.62375   0.00000  Uiso   1.00
C141   C     0.71576   0.37801   0.53167   0.00000  Uiso   1.00
C142   C     0.72609   0.34674   0.47144   0.00000  Uiso   1.00
C143   C     0.73152   0.29963   0.34639   0.00000  Uiso   1.00
C144   C     0.72406   0.39985   0.81108   0.00000  Uiso   1.00
C145   C     0.69284   0.40513   0.87649   0.00000  Uiso   1.00
C146   C     0.69269   0.38627   0.97397   0.00000  Uiso   1.00
C147   C     0.67881   0.36205   0.13977   0.00000  Uiso   1.00
C148   C     0.76747   0.43885   0.70796   0.00000  Uiso   1.00
C149   C     0.77276   0.47692   0.68671   0.00000  Uiso   1.00
C150   C     0.80917   0.49088   0.69740   0.00000  Uiso   1.00
C151   C     0.86269   0.52721   0.70310   0.00000  Uiso   1.00
C152   C     0.78531   0.37485   0.75809   0.00000  Uiso   1.00
C153   C     0.76652   0.36183   0.65461   0.00000  Uiso   1.00
C154   C     0.77688   0.33056   0.59451   0.00000  Uiso   1.00
C155   C     0.75615   0.32340   0.50235   0.00000  Uiso   1.00
C156   C     0.75406   0.37656   0.84193   0.00000  Uiso   1.00
C157   C     0.75396   0.35769   0.93934   0.00000  Uiso   1.00
C158   C     0.72275   0.36293   0.00488   0.00000  Uiso   1.00
C159   C     0.79748   0.41555   0.73881   0.00000  Uiso   1.00
C160   C     0.83389   0.42947   0.74955   0.00000  Uiso   1.00
C161   C     0.83923   0.46755   0.72831   0.00000  Uiso   1.00
H162   H     0.70670   0.43587   0.67727   0.00000  Uiso   1.00
H163   H     0.69254   0.39604   0.50782   0.00000  Uiso   1.00
H164   H     0.66962   0.42316   0.85260   0.00000  Uiso   1.00
H165   H     0.74953   0.49493   0.66284   0.00000  Uiso   1.00
H166   H     0.69006   0.34160   0.33358   0.00000  Uiso   1.00
H167   H     0.64175   0.39880   0.06058   0.00000  Uiso   1.00
H168   H     0.81026   0.55014   0.66043   0.00000  Uiso   1.00
H169   H     0.80867   0.35672   0.78211   0.00000  Uiso   1.00
H170   H     0.80010   0.31254   0.61841   0.00000  Uiso   1.00
H171   H     0.77719   0.33966   0.96319   0.00000  Uiso   1.00
H172   H     0.85710   0.41143   0.77343   0.00000  Uiso   1.00
H173   H     0.77736   0.27383   0.42334   0.00000  Uiso   1.00
H174   H     0.72906   0.33103   0.15034   0.00000  Uiso   1.00
H175   H     0.89756   0.48237   0.75019   0.00000  Uiso   1.00
O176   O     0.72623   0.28007   0.26890   0.00000  Uiso   1.00
O177   O     0.66286   0.35512   0.22270   0.00000  Uiso   1.00
O178   O     0.88393   0.55368   0.69771   0.00000  Uiso   1.00
N179   N     0.71179   0.33172   0.37716   0.00000  Uiso   1.00
N180   N     0.66662   0.38519   0.05685   0.00000  Uiso   1.00
N181   N     0.82416   0.52668   0.68278   0.00000  Uiso   1.00
N182   N     0.75877   0.29525   0.42546   0.00000  Uiso   1.00
N183   N     0.71360   0.34872   0.10515   0.00000  Uiso   1.00
N184   N     0.87114   0.49021   0.73107   0.00000  Uiso   1.00
C185   C     0.41774   0.76994   0.95129   0.00000  Uiso   1.00
C186   C     0.38512   0.76349   0.87375   0.00000  Uiso   1.00
C187   C     0.37801   0.78424   0.78167   0.00000  Uiso   1.00
C188   C     0.34674   0.77391   0.72144   0.00000  Uiso   1.00
C189   C     0.29963   0.76848   0.59639   0.00000  Uiso   1.00
C190   C     0.39985   0.77594   0.06108   0.00000  Uiso   1.00
C191   C     0.40513   0.80716   0.12649   0.00000  Uiso   1.00
C192   C     0.38627   0.80731   0.22397   0.00000  Uiso   1.00
C193   C     0.36205   0.82119   0.38977   0.00000  Uiso   1.00
C194   C     0.43885   0.73253   0.95796   0.00000  Uiso   1.00
C195   C     0.47692   0.72724   0.93671   0.00000  Uiso   1.00
C196   C     0.49088   0.69083   0.94740   0.00000  Uiso   1.00
C197   C     0.52721   0.63731   0.95310   0.00000  Uiso   1.00
C198   C     0.37485   0.71469   0.00809   0.00000  Uiso   1.00
C199   C     0.36183   0.73348   0.90461   0.00000  Uiso   1.00
C200   C     0.33056   0.72312   0.84451   0.00000  Uiso   1.00
C201   C     0.32340   0.74385   0.75235   0.00000  Uiso   1.00
C202   C     0.37656   0.74594   0.09193   0.00000  Uiso   1.00
C203   C     0.35769   0.74604   0.18934   0.00000  Uiso   1.00
C204   C     0.36293   0.77725   0.25488   0.00000  Uiso   1.00
C205   C     0.41555   0.70252   0.98881   0.00000  Uiso   1.00
C206   C     0.42947   0.66611   0.99955   0.00000  Uiso   1.00
C207   C     0.46755   0.66077   0.97831   0.00000  Uiso   1.00
H208   H     0.43587   0.79330   0.92727   0.00000  Uiso   1.00
H209   H     0.39604   0.80746   0.75782   0.00000  Uiso   1.00
H210   H     0.42316   0.83038   0.10260   0.00000  Uiso   1.00
H211   H     0.49493   0.75047   0.91284   0.00000  Uiso   1.00
H212   H     0.34160   0.80994   0.58358   0.00000  Uiso   1.00
H213   H     0.39880   0.85825   0.31058   0.00000  Uiso   1.00
H214   H     0.55014   0.68974   0.91043   0.00000  Uiso   1.00
H215   H     0.35672   0.69133   0.03211   0.00000  Uiso   1.00
H216   H     0.31254   0.69990   0.86841   0.00000  Uiso   1.00
H217   H     0.33966   0.72281   0.21319   0.00000  Uiso   1.00
H218   H     0.41143   0.64290   0.02343   0.00000  Uiso   1.00
H219   H     0.27383   0.72264   0.67334   0.00000  Uiso   1.00
H220   H     0.33103   0.77094   0.40034   0.00000  Uiso   1.00
H221   H     0.48237   0.60244   0.00019   0.00000  Uiso   1.00
O222   O     0.28007   0.77377   0.51890   0.00000  Uiso   1.00
O223   O     0.35512   0.83714   0.47270   0.00000  Uiso   1.00
O224   O     0.55368   0.61607   0.94771   0.00000  Uiso   1.00
N225   N     0.33172   0.78821   0.62716   0.00000  Uiso   1.00
N226   N     0.38519   0.83338   0.30685   0.00000  Uiso   1.00
N227   N     0.52668   0.67584   0.93278   0.00000  Uiso   1.00
N228   N     0.29525   0.74123   0.67546   0.00000  Uiso   1.00
N229   N     0.34872   0.78640   0.35515   0.00000  Uiso   1.00
N230   N     0.49021   0.62886   0.98107   0.00000  Uiso   1.00
C231   C     0.91774   0.26994   0.45129   0.00000  Uiso   1.00
C232   C     0.88512   0.26349   0.37375   0.00000  Uiso   1.00
C233   C     0.87801   0.28424   0.28167   0.00000  Uiso   1.00
C234   C     0.84674   0.27391   0.22144   0.00000  Uiso   1.00
C235   C     0.79963   0.26848   0.09639   0.00000  Uiso   1.00
C236   C     0.89985   0.27594   0.56108   0.00000  Uiso   1.00
C237   C     0.90513   0.30716   0.62649   0.00000  Uiso   1.00
C238   C     0.88627   0.30731   0.72397   0.00000  Uiso   1.00
C239   C     0.86205   0.32119   0.88977   0.00000  Uiso   1.00
C240   C     0.93885   0.23253   0.45796   0.00000  Uiso   1.00
C241   C     0.97692   0.22724   0.43671   0.00000  Uiso   1.00
C242   C     0.99088   0.19083   0.44740   0.00000  Uiso   1.00
C243   C     0.02721   0.13731   0.45310   0.00000  Uiso   1.00
C244   C     0.87485   0.21469   0.50809   0.00000  Uiso   1.00
C245   C     0.86183   0.23348   0.40461   0.00000  Uiso   1.00
C246   C     0.83056   0.22312   0.34451   0.00000  Uiso   1.00
C247   C     0.82340   0.24385   0.25235   0.00000  Uiso   1.00
C248   C     0.87656   0.24594   0.59193   0.00000  Uiso   1.00
C249   C     0.85769   0.24604   0.68934   0.00000  Uiso   1.00
C250   C     0.86293   0.27725   0.75488   0.00000  Uiso   1.00
C251   C     0.91555   0.20252   0.48881   0.00000  Uiso   1.00
C252   C     0.92947   0.16611   0.49955   0.00000  Uiso   1.00
C253   C     0.96755   0.16077   0.47831   0.00000  Uiso   1.00
H254   H     0.93587   0.29330   0.42727   0.00000  Uiso   1.00
H255   H     0.89604   0.30746   0.25782   0.00000  Uiso   1.00
H256   H     0.92316   0.33038   0.60260   0.00000  Uiso   1.00
H257   H     0.99493   0.25047   0.41284   0.00000  Uiso   1.00
H258   H     0.84160   0.30994   0.08358   0.00000  Uiso   1.00
H259   H     0.89880   0.35825   0.81058   0.00000  Uiso   1.00
H260   H     0.05014   0.18974   0.41043   0.00000  Uiso   1.00
H261   H     0.85672   0.19133   0.53211   0.00000  Uiso   1.00
H262   H     0.81254   0.19990   0.36841   0.00000  Uiso   1.00
H263   H     0.83966   0.22281   0.71319   0.00000  Uiso   1.00
H264   H     0.91143   0.14290   0.52343   0.00000  Uiso   1.00
H265   H     0.77383   0.22264   0.17334   0.00000  Uiso   1.00
H266   H     0.83103   0.27094   0.90034   0.00000  Uiso   1.00
H267   H     0.98237   0.10244   0.50019   0.00000  Uiso   1.00
O268   O     0.78007   0.27377   0.01890   0.00000  Uiso   1.00
O269   O     0.85512   0.33714   0.97270   0.00000  Uiso   1.00
O270   O     0.05368   0.11607   0.44771   0.00000  Uiso   1.00
N271   N     0.83172   0.28821   0.12716   0.00000  Uiso   1.00
N272   N     0.88519   0.33338   0.80685   0.00000  Uiso   1.00
N273   N     0.02668   0.17584   0.43278   0.00000  Uiso   1.00
N274   N     0.79525   0.24123   0.17546   0.00000  Uiso   1.00
N275   N     0.84872   0.28640   0.85515   0.00000  Uiso   1.00
N276   N     0.99021   0.12886   0.48107   0.00000  Uiso   1.00
C277   C     0.08226   0.73006   0.45129   0.00000  Uiso   1.00
C278   C     0.11488   0.73651   0.37375   0.00000  Uiso   1.00
C279   C     0.12199   0.71576   0.28167   0.00000  Uiso   1.00
C280   C     0.15326   0.72609   0.22144   0.00000  Uiso   1.00
C281   C     0.20037   0.73152   0.09639   0.00000  Uiso   1.00
C282   C     0.10015   0.72406   0.56108   0.00000  Uiso   1.00
C283   C     0.09487   0.69284   0.62649   0.00000  Uiso   1.00
C284   C     0.11373   0.69269   0.72397   0.00000  Uiso   1.00
C285   C     0.13795   0.67881   0.88977   0.00000  Uiso   1.00
C286   C     0.06115   0.76747   0.45796   0.00000  Uiso   1.00
C287   C     0.02308   0.77276   0.43671   0.00000  Uiso   1.00
C288   C     0.00912   0.80917   0.44740   0.00000  Uiso   1.00
C289   C     0.97279   0.86269   0.45310   0.00000  Uiso   1.00
C290   C     0.12515   0.78531   0.50809   0.00000  Uiso   1.00
C291   C     0.13817   0.76652   0.40461   0.00000  Uiso   1.00
C292   C     0.16944   0.77688   0.34451   0.00000  Uiso   1.00
C293   C     0.17660   0.75615   0.25235   0.00000  Uiso   1.00
C294   C     0.12344   0.75406   0.59193   0.00000  Uiso   1.00
C295   C     0.14231   0.75396   0.68934   0.00000  Uiso   1.00
C296   C     0.13707   0.72275   0.75488   0.00000  Uiso   1.00
C297   C     0.08445   0.79748   0.48881   0.00000  Uiso   1.00
C298   C     0.07053   0.83389   0.49955   0.00000  Uiso   1.00
C299   C     0.03245   0.83923   0.47831   0.00000  Uiso   1.00
H300   H     0.06413   0.70670   0.42727   0.00000  Uiso   1.00
H301   H     0.10396   0.69254   0.25782   0.00000  Uiso   1.00
H302   H     0.07684   0.66962   0.60260   0.00000  Uiso   1.00
H303   H     0.00507   0.74953   0.41284   0.00000  Uiso   1.00
H304   H     0.15840   0.69006   0.08358   0.00000  Uiso   1.00
H305   H     0.10120   0.64175   0.81058   0.00000  Uiso   1.00
H306   H     0.94986   0.81026   0.41043   0.00000  Uiso   1.00
H307   H     0.14328   0.80867   0.53211   0.00000  Uiso   1.00
H308   H     0.18746   0.80010   0.36841   0.00000  Uiso   1.00
H309   H     0.16034   0.77719   0.71319   0.00000  Uiso   1.00
H310   H     0.08857   0.85710   0.52343   0.00000  Uiso   1.00
H311   H     0.22617   0.77736   0.17334   0.00000  Uiso   1.00
H312   H     0.16897   0.72906   0.90034   0.00000  Uiso   1.00
H313   H     0.01763   0.89756   0.50019   0.00000  Uiso   1.00
O314   O     0.21993   0.72623   0.01890   0.00000  Uiso   1.00
O315   O     0.14488   0.66286   0.97270   0.00000  Uiso   1.00
O316   O     0.94632   0.88393   0.44771   0.00000  Uiso   1.00
N317   N     0.16828   0.71179   0.12716   0.00000  Uiso   1.00
N318   N     0.11481   0.66662   0.80685   0.00000  Uiso   1.00
N319   N     0.97332   0.82416   0.43278   0.00000  Uiso   1.00
N320   N     0.20475   0.75877   0.17546   0.00000  Uiso   1.00
N321   N     0.15128   0.71360   0.85515   0.00000  Uiso   1.00
N322   N     0.00979   0.87114   0.48107   0.00000  Uiso   1.00
C323   C     0.58226   0.23006   0.95129   0.00000  Uiso   1.00
C324   C     0.61488   0.23651   0.87375   0.00000  Uiso   1.00
C325   C     0.62199   0.21576   0.78167   0.00000  Uiso   1.00
C326   C     0.65326   0.22609   0.72144   0.00000  Uiso   1.00
C327   C     0.70037   0.23152   0.59639   0.00000  Uiso   1.00
C328   C     0.60015   0.22406   0.06108   0.00000  Uiso   1.00
C329   C     0.59487   0.19284   0.12649   0.00000  Uiso   1.00
C330   C     0.61373   0.19269   0.22397   0.00000  Uiso   1.00
C331   C     0.63795   0.17881   0.38977   0.00000  Uiso   1.00
C332   C     0.56115   0.26747   0.95796   0.00000  Uiso   1.00
C333   C     0.52308   0.27276   0.93671   0.00000  Uiso   1.00
C334   C     0.50912   0.30917   0.94740   0.00000  Uiso   1.00
C335   C     0.47279   0.36269   0.95310   0.00000  Uiso   1.00
C336   C     0.62515   0.28531   0.00809   0.00000  Uiso   1.00
C337   C     0.63817   0.26652   0.90461   0.00000  Uiso   1.00
C338   C     0.66944   0.27688   0.84451   0.00000  Uiso   1.00
C339   C     0.67660   0.25615   0.75235   0.00000  Uiso   1.00
C340   C     0.62344   0.25406   0.09193   0.00000  Uiso   1.00
C341   C     0.64231   0.25396   0.18934   0.00000  Uiso   1.00
C342   C     0.63707   0.22275   0.25488   0.00000  Uiso   1.00
C343   C     0.58445   0.29748   0.98881   0.00000  Uiso   1.00
C344   C     0.57053   0.33389   0.99955   0.00000  Uiso   1.00
C345   C     0.53245   0.33923   0.97831   0.00000  Uiso   1.00
H346   H     0.56413   0.20670   0.92727   0.00000  Uiso   1.00
H347   H     0.60396   0.19254   0.75782   0.00000  Uiso   1.00
H348   H     0.57684   0.16962   0.10260   0.00000  Uiso   1.00
H349   H     0.50507   0.24953   0.91284   0.00000  Uiso   1.00
H350   H     0.65840   0.19006   0.58358   0.00000  Uiso   1.00
H351   H     0.60120   0.14175   0.31058   0.00000  Uiso   1.00
H352   H     0.44986   0.31026   0.91043   0.00000  Uiso   1.00
H353   H     0.64328   0.30867   0.03211   0.00000  Uiso   1.00
H354   H     0.68746   0.30010   0.86841   0.00000  Uiso   1.00
H355   H     0.66034   0.27719   0.21319   0.00000  Uiso   1.00
H356   H     0.58857   0.35710   0.02343   0.00000  Uiso   1.00
H357   H     0.72617   0.27736   0.67334   0.00000  Uiso   1.00
H358   H     0.66897   0.22906   0.40034   0.00000  Uiso   1.00
H359   H     0.51763   0.39756   0.00019   0.00000  Uiso   1.00
O360   O     0.71993   0.22623   0.51890   0.00000  Uiso   1.00
O361   O     0.64488   0.16286   0.47270   0.00000  Uiso   1.00
O362   O     0.44632   0.38393   0.94771   0.00000  Uiso   1.00
N363   N     0.66828   0.21179   0.62716   0.00000  Uiso   1.00
N364   N     0.61481   0.16662   0.30685   0.00000  Uiso   1.00
N365   N     0.47332   0.32416   0.93278   0.00000  Uiso   1.00
N366   N     0.70475   0.25877   0.67546   0.00000  Uiso   1.00
N367   N     0.65128   0.21360   0.35515   0.00000  Uiso   1.00
N368   N     0.50979   0.37114   0.98107   0.00000  Uiso   1.00
C369   C     0.73006   0.91774   0.54871   0.00000  Uiso   1.00
C370   C     0.73651   0.88512   0.62625   0.00000  Uiso   1.00
C371   C     0.71576   0.87801   0.71833   0.00000  Uiso   1.00
C372   C     0.72609   0.84674   0.77856   0.00000  Uiso   1.00
C373   C     0.73152   0.79963   0.90361   0.00000  Uiso   1.00
C374   C     0.72406   0.89985   0.43892   0.00000  Uiso   1.00
C375   C     0.69284   0.90513   0.37351   0.00000  Uiso   1.00
C376   C     0.69269   0.88627   0.27603   0.00000  Uiso   1.00
C377   C     0.67881   0.86205   0.11023   0.00000  Uiso   1.00
C378   C     0.76747   0.93885   0.54204   0.00000  Uiso   1.00
C379   C     0.77276   0.97692   0.56329   0.00000  Uiso   1.00
C380   C     0.80917   0.99088   0.55260   0.00000  Uiso   1.00
C381   C     0.86269   0.02721   0.54690   0.00000  Uiso   1.00
C382   C     0.78531   0.87485   0.49191   0.00000  Uiso   1.00
C383   C     0.76652   0.86183   0.59539   0.00000  Uiso   1.00
C384   C     0.77688   0.83056   0.65549   0.00000  Uiso   1.00
C385   C     0.75615   0.82340   0.74765   0.00000  Uiso   1.00
C386   C     0.75406   0.87656   0.40807   0.00000  Uiso   1.00
C387   C     0.75396   0.85769   0.31066   0.00000  Uiso   1.00
C388   C     0.72275   0.86293   0.24512   0.00000  Uiso   1.00
C389   C     0.79748   0.91555   0.51119   0.00000  Uiso   1.00
C390   C     0.83389   0.92947   0.50045   0.00000  Uiso   1.00
C391   C     0.83923   0.96755   0.52169   0.00000  Uiso   1.00
H392   H     0.70670   0.93587   0.57273   0.00000  Uiso   1.00
H393   H     0.69254   0.89604   0.74218   0.00000  Uiso   1.00
H394   H     0.66962   0.92316   0.39740   0.00000  Uiso   1.00
H395   H     0.74953   0.99493   0.58716   0.00000  Uiso   1.00
H396   H     0.69006   0.84160   0.91642   0.00000  Uiso   1.00
H397   H     0.64175   0.89880   0.18942   0.00000  Uiso   1.00
H398   H     0.81026   0.05014   0.58957   0.00000  Uiso   1.00
H399   H     0.80867   0.85672   0.46789   0.00000  Uiso   1.00
H400   H     0.80010   0.81254   0.63159   0.00000  Uiso   1.00
H401   H     0.77719   0.83966   0.28681   0.00000  Uiso   1.00
H402   H     0.85710   0.91143   0.47657   0.00000  Uiso   1.00
H403   H     0.77736   0.77383   0.82666   0.00000  Uiso   1.00
H404   H     0.72906   0.83103   0.09966   0.00000  Uiso   1.00
H405   H     0.89756   0.98237   0.49981   0.00000  Uiso   1.00
O406   O     0.72623   0.78007   0.98110   0.00000  Uiso   1.00
O407   O     0.66286   0.85512   0.02730   0.00000  Uiso   1.00
O408   O     0.88393   0.05368   0.55229   0.00000  Uiso   1.00
N409   N     0.71179   0.83172   0.87284   0.00000  Uiso   1.00
N410   N     0.66662   0.88519   0.19315   0.00000  Uiso   1.00
N411   N     0.82416   0.02668   0.56722   0.00000  Uiso   1.00
N412   N     0.75877   0.79525   0.82454   0.00000  Uiso   1.00
N413   N     0.71360   0.84872   0.14485   0.00000  Uiso   1.00
N414   N     0.87114   0.99021   0.51893   0.00000  Uiso   1.00
C415   C     0.23006   0.41774   0.04871   0.00000  Uiso   1.00
C416   C     0.23651   0.38512   0.12625   0.00000  Uiso   1.00
C417   C     0.21576   0.37801   0.21833   0.00000  Uiso   1.00
C418   C     0.22609   0.34674   0.27856   0.00000  Uiso   1.00
C419   C     0.23152   0.29963   0.40361   0.00000  Uiso   1.00
C420   C     0.22406   0.39985   0.93892   0.00000  Uiso   1.00
C421   C     0.19284   0.40513   0.87351   0.00000  Uiso   1.00
C422   C     0.19269   0.38627   0.77603   0.00000  Uiso   1.00
C423   C     0.17881   0.36205   0.61023   0.00000  Uiso   1.00
C424   C     0.26747   0.43885   0.04204   0.00000  Uiso   1.00
C425   C     0.27276   0.47692   0.06329   0.00000  Uiso   1.00
C426   C     0.30917   0.49088   0.05260   0.00000  Uiso   1.00
C427   C     0.36269   0.52721   0.04690   0.00000  Uiso   1.00
C428   C     0.28531   0.37485   0.99191   0.00000  Uiso   1.00
C429   C     0.26652   0.36183   0.09539   0.00000  Uiso   1.00
C430   C     0.27688   0.33056   0.15549   0.00000  Uiso   1.00
C431   C     0.25615   0.32340   0.24765   0.00000  Uiso   1.00
C432   C     0.25406   0.37656   0.90807   0.00000  Uiso   1.00
C433   C     0.25396   0.35769   0.81066   0.00000  Uiso   1.00
C434   C     0.22275   0.36293   0.74512   0.00000  Uiso   1.00
C435   C     0.29748   0.41555   0.01119   0.00000  Uiso   1.00
C436   C     0.33389   0.42947   0.00045   0.00000  Uiso   1.00
C437   C     0.33923   0.46755   0.02169   0.00000  Uiso   1.00
H438   H     0.20670   0.43587   0.07273   0.00000  Uiso   1.00
H439   H     0.19254   0.39604   0.24218   0.00000  Uiso   1.00
H440   H     0.16962   0.42316   0.89740   0.00000  Uiso   1.00
H441   H     0.24953   0.49493   0.08716   0.00000  Uiso   1.00
H442   H     0.19006   0.34160   0.41642   0.00000  Uiso   1.00
H443   H     0.14175   0.39880   0.68942   0.00000  Uiso   1.00
H444   H     0.31026   0.55014   0.08957   0.00000  Uiso   1.00
H445   H     0.30867   0.35672   0.96789   0.00000  Uiso   1.00
H446   H     0.30010   0.31254   0.13159   0.00000  Uiso   1.00
H447   H     0.27719   0.33966   0.78681   0.00000  Uiso   1.00
H448   H     0.35710   0.41143   0.97657   0.00000  Uiso   1.00
H449   H     0.27736   0.27383   0.32666   0.00000  Uiso   1.00
H450   H     0.22906   0.33103   0.59966   0.00000  Uiso   1.00
H451   H     0.39756   0.48237   0.99981   0.00000  Uiso   1.00
O452   O     0.22623   0.28007   0.48110   0.00000  Uiso   1.00
O453   O     0.16286   0.35512   0.52730   0.00000  Uiso   1.00
O454   O     0.38393   0.55368   0.05229   0.00000  Uiso   1.00
N455   N     0.21179   0.33172   0.37284   0.00000  Uiso   1.00
N456   N     0.16662   0.38519   0.69315   0.00000  Uiso   1.00
N457   N     0.32416   0.52668   0.06722   0.00000  Uiso   1.00
N458   N     0.25877   0.29525   0.32454   0.00000  Uiso   1.00
N459   N     0.21360   0.34872   0.64485   0.00000  Uiso   1.00
N460   N     0.37114   0.49021   0.01893   0.00000  Uiso   1.00
C461   C     0.76994   0.58226   0.04871   0.00000  Uiso   1.00
C462   C     0.76349   0.61488   0.12625   0.00000  Uiso   1.00
C463   C     0.78424   0.62199   0.21833   0.00000  Uiso   1.00
C464   C     0.77391   0.65326   0.27856   0.00000  Uiso   1.00
C465   C     0.76848   0.70037   0.40361   0.00000  Uiso   1.00
C466   C     0.77594   0.60015   0.93892   0.00000  Uiso   1.00
C467   C     0.80716   0.59487   0.87351   0.00000  Uiso   1.00
C468   C     0.80731   0.61373   0.77603   0.00000  Uiso   1.00
C469   C     0.82119   0.63795   0.61023   0.00000  Uiso   1.00
C470   C     0.73253   0.56115   0.04204   0.00000  Uiso   1.00
C471   C     0.72724   0.52308   0.06329   0.00000  Uiso   1.00
C472   C     0.69083   0.50912   0.05260   0.00000  Uiso   1.00
C473   C     0.63731   0.47279   0.04690   0.00000  Uiso   1.00
C474   C     0.71469   0.62515   0.99191   0.00000  Uiso   1.00
C475   C     0.73348   0.63817   0.09539   0.00000  Uiso   1.00
C476   C     0.72312   0.66944   0.15549   0.00000  Uiso   1.00
C477   C     0.74385   0.67660   0.24765   0.00000  Uiso   1.00
C478   C     0.74594   0.62344   0.90807   0.00000  Uiso   1.00
C479   C     0.74604   0.64231   0.81066   0.00000  Uiso   1.00
C480   C     0.77725   0.63707   0.74512   0.00000  Uiso   1.00
C481   C     0.70252   0.58445   0.01119   0.00000  Uiso   1.00
C482   C     0.66611   0.57053   0.00045   0.00000  Uiso   1.00
C483   C     0.66077   0.53245   0.02169   0.00000  Uiso   1.00
H484   H     0.79330   0.56413   0.07273   0.00000  Uiso   1.00
H485   H     0.80746   0.60396   0.24218   0.00000  Uiso   1.00
H486   H     0.83038   0.57684   0.89740   0.00000  Uiso   1.00
H487   H     0.75047   0.50507   0.08716   0.00000  Uiso   1.00
H488   H     0.80994   0.65840   0.41642   0.00000  Uiso   1.00
H489   H     0.85825   0.60120   0.68942   0.00000  Uiso   1.00
H490   H     0.68974   0.44986   0.08957   0.00000  Uiso   1.00
H491   H     0.69133   0.64328   0.96789   0.00000  Uiso   1.00
H492   H     0.69990   0.68746   0.13159   0.00000  Uiso   1.00
H493   H     0.72281   0.66034   0.78681   0.00000  Uiso   1.00
H494   H     0.64290   0.58857   0.97657   0.00000  Uiso   1.00
H495   H     0.72264   0.72617   0.32666   0.00000  Uiso   1.00
H496   H     0.77094   0.66897   0.59966   0.00000  Uiso   1.00
H497   H     0.60244   0.51763   0.99981   0.00000  Uiso   1.00
O498   O     0.77377   0.71993   0.48110   0.00000  Uiso   1.00
O499   O     0.83714   0.64488   0.52730   0.00000  Uiso   1.00
O500   O     0.61607   0.44632   0.05229   0.00000  Uiso   1.00
N501   N     0.78821   0.66828   0.37284   0.00000  Uiso   1.00
N502   N     0.83338   0.61481   0.69315   0.00000  Uiso   1.00
N503   N     0.67584   0.47332   0.06722   0.00000  Uiso   1.00
N504   N     0.74123   0.70475   0.32454   0.00000  Uiso   1.00
N505   N     0.78640   0.65128   0.64485   0.00000  Uiso   1.00
N506   N     0.62886   0.50979   0.01893   0.00000  Uiso   1.00
C507   C     0.26994   0.08226   0.54871   0.00000  Uiso   1.00
C508   C     0.26349   0.11488   0.62625   0.00000  Uiso   1.00
C509   C     0.28424   0.12199   0.71833   0.00000  Uiso   1.00
C510   C     0.27391   0.15326   0.77856   0.00000  Uiso   1.00
C511   C     0.26848   0.20037   0.90361   0.00000  Uiso   1.00
C512   C     0.27594   0.10015   0.43892   0.00000  Uiso   1.00
C513   C     0.30716   0.09487   0.37351   0.00000  Uiso   1.00
C514   C     0.30731   0.11373   0.27603   0.00000  Uiso   1.00
C515   C     0.32119   0.13795   0.11023   0.00000  Uiso   1.00
C516   C     0.23253   0.06115   0.54204   0.00000  Uiso   1.00
C517   C     0.22724   0.02308   0.56329   0.00000  Uiso   1.00
C518   C     0.19083   0.00912   0.55260   0.00000  Uiso   1.00
C519   C     0.13731   0.97279   0.54690   0.00000  Uiso   1.00
C520   C     0.21469   0.12515   0.49191   0.00000  Uiso   1.00
C521   C     0.23348   0.13817   0.59539   0.00000  Uiso   1.00
C522   C     0.22312   0.16944   0.65549   0.00000  Uiso   1.00
C523   C     0.24385   0.17660   0.74765   0.00000  Uiso   1.00
C524   C     0.24594   0.12344   0.40807   0.00000  Uiso   1.00
C525   C     0.24604   0.14231   0.31066   0.00000  Uiso   1.00
C526   C     0.27725   0.13707   0.24512   0.00000  Uiso   1.00
C527   C     0.20252   0.08445   0.51119   0.00000  Uiso   1.00
C528   C     0.16611   0.07053   0.50045   0.00000  Uiso   1.00
C529   C     0.16077   0.03245   0.52169   0.00000  Uiso   1.00
H530   H     0.29330   0.06413   0.57273   0.00000  Uiso   1.00
H531   H     0.30746   0.10396   0.74218   0.00000  Uiso   1.00
H532   H     0.33038   0.07684   0.39740   0.00000  Uiso   1.00
H533   H     0.25047   0.00507   0.58716   0.00000  Uiso   1.00
H534   H     0.30994   0.15840   0.91642   0.00000  Uiso   1.00
H535   H     0.35825   0.10120   0.18942   0.00000  Uiso   1.00
H536   H     0.18974   0.94986   0.58957   0.00000  Uiso   1.00
H537   H     0.19133   0.14328   0.46789   0.00000  Uiso   1.00
H538   H     0.19990   0.18746   0.63159   0.00000  Uiso   1.00
H539   H     0.22281   0.16034   0.28681   0.00000  Uiso   1.00
H540   H     0.14290   0.08857   0.47657   0.00000  Uiso   1.00
H541   H     0.22264   0.22617   0.82666   0.00000  Uiso   1.00
H542   H     0.27094   0.16897   0.09966   0.00000  Uiso   1.00
H543   H     0.10244   0.01763   0.49981   0.00000  Uiso   1.00
O544   O     0.27377   0.21993   0.98110   0.00000  Uiso   1.00
O545   O     0.33714   0.14488   0.02730   0.00000  Uiso   1.00
O546   O     0.11607   0.94632   0.55229   0.00000  Uiso   1.00
N547   N     0.28821   0.16828   0.87284   0.00000  Uiso   1.00
N548   N     0.33338   0.11481   0.19315   0.00000  Uiso   1.00
N549   N     0.17584   0.97332   0.56722   0.00000  Uiso   1.00
N550   N     0.24123   0.20475   0.82454   0.00000  Uiso   1.00
N551   N     0.28640   0.15128   0.14485   0.00000  Uiso   1.00
N552   N     0.12886   0.00979   0.51893   0.00000  Uiso   1.00
C553   C     0.58226   0.73006   0.29871   0.00000  Uiso   1.00
C554   C     0.61488   0.73651   0.37625   0.00000  Uiso   1.00
C555   C     0.62199   0.71576   0.46833   0.00000  Uiso   1.00
C556   C     0.65326   0.72609   0.52856   0.00000  Uiso   1.00
C557   C     0.70037   0.73152   0.65361   0.00000  Uiso   1.00
C558   C     0.60015   0.72406   0.18892   0.00000  Uiso   1.00
C559   C     0.59487   0.69284   0.12351   0.00000  Uiso   1.00
C560   C     0.61373   0.69269   0.02603   0.00000  Uiso   1.00
C561   C     0.63795   0.67881   0.86023   0.00000  Uiso   1.00
C562   C     0.56115   0.76747   0.29204   0.00000  Uiso   1.00
C563   C     0.52308   0.77276   0.31329   0.00000  Uiso   1.00
C564   C     0.50912   0.80917   0.30260   0.00000  Uiso   1.00
C565   C     0.47279   0.86269   0.29690   0.00000  Uiso   1.00
C566   C     0.62515   0.78531   0.24191   0.00000  Uiso   1.00
C567   C     0.63817   0.76652   0.34539   0.00000  Uiso   1.00
C568   C     0.66944   0.77688   0.40549   0.00000  Uiso   1.00
C569   C     0.67660   0.75615   0.49765   0.00000  Uiso   1.00
C570   C     0.62344   0.75406   0.15807   0.00000  Uiso   1.00
C571   C     0.64231   0.75396   0.06066   0.00000  Uiso   1.00
C572   C     0.63707   0.72275   0.99512   0.00000  Uiso   1.00
C573   C     0.58445   0.79748   0.26119   0.00000  Uiso   1.00
C574   C     0.57053   0.83389   0.25045   0.00000  Uiso   1.00
C575   C     0.53245   0.83923   0.27169   0.00000  Uiso   1.00
H576   H     0.56413   0.70670   0.32273   0.00000  Uiso   1.00
H577   H     0.60396   0.69254   0.49218   0.00000  Uiso   1.00
H578   H     0.57684   0.66962   0.14740   0.00000  Uiso   1.00
H579   H     0.50507   0.74953   0.33716   0.00000  Uiso   1.00
H580   H     0.65840   0.69006   0.66642   0.00000  Uiso   1.00
H581   H     0.60120   0.64175   0.93942   0.00000  Uiso   1.00
H582   H     0.44986   0.81026   0.33957   0.00000  Uiso   1.00
H583   H     0.64328   0.80867   0.21789   0.00000  Uiso   1.00
H584   H     0.68746   0.80010   0.38159   0.00000  Uiso   1.00
H585   H     0.66034   0.77719   0.03681   0.00000  Uiso   1.00
H586   H     0.58857   0.85710   0.22657   0.00000  Uiso   1.00
H587   H     0.72617   0.77736   0.57666   0.00000  Uiso   1.00
H588   H     0.66897   0.72906   0.84966   0.00000  Uiso   1.00
H589   H     0.51763   0.89756   0.24981   0.00000  Uiso   1.00
O590   O     0.71993   0.72623   0.73110   0.00000  Uiso   1.00
O591   O     0.64488   0.66286   0.77730   0.00000  Uiso   1.00
O592   O     0.44632   0.88393   0.30229   0.00000  Uiso   1.00
N593   N     0.66828   0.71179   0.62284   0.00000  Uiso   1.00
N594   N     0.61481   0.66662   0.94315   0.00000  Uiso   1.00
N595   N     0.47332   0.82416   0.31722   0.00000  Uiso   1.00
N596   N     0.70475   0.75877   0.57454   0.00000  Uiso   1.00
N597   N     0.65128   0.71360   0.89485   0.00000  Uiso   1.00
N598   N     0.50979   0.87114   0.26893   0.00000  Uiso   1.00
C599   C     0.08226   0.23006   0.79871   0.00000  Uiso   1.00
C600   C     0.11488   0.23651   0.87625   0.00000  Uiso   1.00
C601   C     0.12199   0.21576   0.96833   0.00000  Uiso   1.00
C602   C     0.15326   0.22609   0.02856   0.00000  Uiso   1.00
C603   C     0.20037   0.23152   0.15361   0.00000  Uiso   1.00
C604   C     0.10015   0.22406   0.68892   0.00000  Uiso   1.00
C605   C     0.09487   0.19284   0.62351   0.00000  Uiso   1.00
C606   C     0.11373   0.19269   0.52603   0.00000  Uiso   1.00
C607   C     0.13795   0.17881   0.36023   0.00000  Uiso   1.00
C608   C     0.06115   0.26747   0.79204   0.00000  Uiso   1.00
C609   C     0.02308   0.27276   0.81329   0.00000  Uiso   1.00
C610   C     0.00912   0.30917   0.80260   0.00000  Uiso   1.00
C611   C     0.97279   0.36269   0.79690   0.00000  Uiso   1.00
C612   C     0.12515   0.28531   0.74191   0.00000  Uiso   1.00
C613   C     0.13817   0.26652   0.84539   0.00000  Uiso   1.00
C614   C     0.16944   0.27688   0.90549   0.00000  Uiso   1.00
C615   C     0.17660   0.25615   0.99765   0.00000  Uiso   1.00
C616   C     0.12344   0.25406   0.65807   0.00000  Uiso   1.00
C617   C     0.14231   0.25396   0.56066   0.00000  Uiso   1.00
C618   C     0.13707   0.22275   0.49512   0.00000  Uiso   1.00
C619   C     0.08445   0.29748   0.76119   0.00000  Uiso   1.00
C620   C     0.07053   0.33389   0.75045   0.00000  Uiso   1.00
C621   C     0.03245   0.33923   0.77169   0.00000  Uiso   1.00
H622   H     0.06413   0.20670   0.82273   0.00000  Uiso   1.00
H623   H     0.10396   0.19254   0.99218   0.00000  Uiso   1.00
H624   H     0.07684   0.16962   0.64740   0.00000  Uiso   1.00
H625   H     0.00507   0.24953   0.83716   0.00000  Uiso   1.00
H626   H     0.15840   0.19006   0.16642   0.00000  Uiso   1.00
H627   H     0.10120   0.14175   0.43942   0.00000  Uiso   1.00
H628   H     0.94986   0.31026   0.83957   0.00000  Uiso   1.00
H629   H     0.14328   0.30867   0.71789   0.00000  Uiso   1.00
H630   H     0.18746   0.30010   0.88159   0.00000  Uiso   1.00
H631   H     0.16034   0.27719   0.53681   0.00000  Uiso   1.00
H632   H     0.08857   0.35710   0.72657   0.00000  Uiso   1.00
H633   H     0.22617   0.27736   0.07666   0.00000  Uiso   1.00
H634   H     0.16897   0.22906   0.34966   0.00000  Uiso   1.00
H635   H     0.01763   0.39756   0.74981   0.00000  Uiso   1.00
O636   O     0.21993   0.22623   0.23110   0.00000  Uiso   1.00
O637   O     0.14488   0.16286   0.27730   0.00000  Uiso   1.00
O638   O     0.94632   0.38393   0.80229   0.00000  Uiso   1.00
N639   N     0.16828   0.21179   0.12284   0.00000  Uiso   1.00
N640   N     0.11481   0.16662   0.44315   0.00000  Uiso   1.00
N641   N     0.97332   0.32416   0.81722   0.00000  Uiso   1.00
N642   N     0.20475   0.25877   0.07454   0.00000  Uiso   1.00
N643   N     0.15128   0.21360   0.39485   0.00000  Uiso   1.00
N644   N     0.00979   0.37114   0.76893   0.00000  Uiso   1.00
C645   C     0.91774   0.76994   0.79871   0.00000  Uiso   1.00
C646   C     0.88512   0.76349   0.87625   0.00000  Uiso   1.00
C647   C     0.87801   0.78424   0.96833   0.00000  Uiso   1.00
C648   C     0.84674   0.77391   0.02856   0.00000  Uiso   1.00
C649   C     0.79963   0.76848   0.15361   0.00000  Uiso   1.00
C650   C     0.89985   0.77594   0.68892   0.00000  Uiso   1.00
C651   C     0.90513   0.80716   0.62351   0.00000  Uiso   1.00
C652   C     0.88627   0.80731   0.52603   0.00000  Uiso   1.00
C653   C     0.86205   0.82119   0.36023   0.00000  Uiso   1.00
C654   C     0.93885   0.73253   0.79204   0.00000  Uiso   1.00
C655   C     0.97692   0.72724   0.81329   0.00000  Uiso   1.00
C656   C     0.99088   0.69083   0.80260   0.00000  Uiso   1.00
C657   C     0.02721   0.63731   0.79690   0.00000  Uiso   1.00
C658   C     0.87485   0.71469   0.74191   0.00000  Uiso   1.00
C659   C     0.86183   0.73348   0.84539   0.00000  Uiso   1.00
C660   C     0.83056   0.72312   0.90549   0.00000  Uiso   1.00
C661   C     0.82340   0.74385   0.99765   0.00000  Uiso   1.00
C662   C     0.87656   0.74594   0.65807   0.00000  Uiso   1.00
C663   C     0.85769   0.74604   0.56066   0.00000  Uiso   1.00
C664   C     0.86293   0.77725   0.49512   0.00000  Uiso   1.00
C665   C     0.91555   0.70252   0.76119   0.00000  Uiso   1.00
C666   C     0.92947   0.66611   0.75045   0.00000  Uiso   1.00
C667   C     0.96755   0.66077   0.77169   0.00000  Uiso   1.00
H668   H     0.93587   0.79330   0.82273   0.00000  Uiso   1.00
H669   H     0.89604   0.80746   0.99218   0.00000  Uiso   1.00
H670   H     0.92316   0.83038   0.64740   0.00000  Uiso   1.00
H671   H     0.99493   0.75047   0.83716   0.00000  Uiso   1.00
H672   H     0.84160   0.80994   0.16642   0.00000  Uiso   1.00
H673   H     0.89880   0.85825   0.43942   0.00000  Uiso   1.00
H674   H     0.05014   0.68974   0.83957   0.00000  Uiso   1.00
H675   H     0.85672   0.69133   0.71789   0.00000  Uiso   1.00
H676   H     0.81254   0.69990   0.88159   0.00000  Uiso   1.00
H677   H     0.83966   0.72281   0.53681   0.00000  Uiso   1.00
H678   H     0.91143   0.64290   0.72657   0.00000  Uiso   1.00
H679   H     0.77383   0.72264   0.07666   0.00000  Uiso   1.00
H680   H     0.83103   0.77094   0.34966   0.00000  Uiso   1.00
H681   H     0.98237   0.60244   0.74981   0.00000  Uiso   1.00
O682   O     0.78007   0.77377   0.23110   0.00000  Uiso   1.00
O683   O     0.85512   0.83714   0.27730   0.00000  Uiso   1.00
O684   O     0.05368   0.61607   0.80229   0.00000  Uiso   1.00
N685   N     0.83172   0.78821   0.12284   0.00000  Uiso   1.00
N686   N     0.88519   0.83338   0.44315   0.00000  Uiso   1.00
N687   N     0.02668   0.67584   0.81722   0.00000  Uiso   1.00
N688   N     0.79525   0.74123   0.07454   0.00000  Uiso   1.00
N689   N     0.84872   0.78640   0.39485   0.00000  Uiso   1.00
N690   N     0.99021   0.62886   0.76893   0.00000  Uiso   1.00
C691   C     0.41774   0.26994   0.29871   0.00000  Uiso   1.00
C692   C     0.38512   0.26349   0.37625   0.00000  Uiso   1.00
C693   C     0.37801   0.28424   0.46833   0.00000  Uiso   1.00
C694   C     0.34674   0.27391   0.52856   0.00000  Uiso   1.00
C695   C     0.29963   0.26848   0.65361   0.00000  Uiso   1.00
C696   C     0.39985   0.27594   0.18892   0.00000  Uiso   1.00
C697   C     0.40513   0.30716   0.12351   0.00000  Uiso   1.00
C698   C     0.38627   0.30731   0.02603   0.00000  Uiso   1.00
C699   C     0.36205   0.32119   0.86023   0.00000  Uiso   1.00
C700   C     0.43885   0.23253   0.29204   0.00000  Uiso   1.00
C701   C     0.47692   0.22724   0.31329   0.00000  Uiso   1.00
C702   C     0.49088   0.19083   0.30260   0.00000  Uiso   1.00
C703   C     0.52721   0.13731   0.29690   0.00000  Uiso   1.00
C704   C     0.37485   0.21469   0.24191   0.00000  Uiso   1.00
C705   C     0.36183   0.23348   0.34539   0.00000  Uiso   1.00
C706   C     0.33056   0.22312   0.40549   0.00000  Uiso   1.00
C707   C     0.32340   0.24385   0.49765   0.00000  Uiso   1.00
C708   C     0.37656   0.24594   0.15807   0.00000  Uiso   1.00
C709   C     0.35769   0.24604   0.06066   0.00000  Uiso   1.00
C710   C     0.36293   0.27725   0.99512   0.00000  Uiso   1.00
C711   C     0.41555   0.20252   0.26119   0.00000  Uiso   1.00
C712   C     0.42947   0.16611   0.25045   0.00000  Uiso   1.00
C713   C     0.46755   0.16077   0.27169   0.00000  Uiso   1.00
H714   H     0.43587   0.29330   0.32273   0.00000  Uiso   1.00
H715   H     0.39604   0.30746   0.49218   0.00000  Uiso   1.00
H716   H     0.42316   0.33038   0.14740   0.00000  Uiso   1.00
H717   H     0.49493   0.25047   0.33716   0.00000  Uiso   1.00
H718   H     0.34160   0.30994   0.66642   0.00000  Uiso   1.00
H719   H     0.39880   0.35825   0.93942   0.00000  Uiso   1.00
H720   H     0.55014   0.18974   0.33957   0.00000  Uiso   1.00
H721   H     0.35672   0.19133   0.21789   0.00000  Uiso   1.00
H722   H     0.31254   0.19990   0.38159   0.00000  Uiso   1.00
H723   H     0.33966   0.22281   0.03681   0.00000  Uiso   1.00
H724   H     0.41143   0.14290   0.22657   0.00000  Uiso   1.00
H725   H     0.27383   0.22264   0.57666   0.00000  Uiso   1.00
H726   H     0.33103   0.27094   0.84966   0.00000  Uiso   1.00
H727   H     0.48237   0.10244   0.24981   0.00000  Uiso   1.00
O728   O     0.28007   0.27377   0.73110   0.00000  Uiso   1.00
O729   O     0.35512   0.33714   0.77730   0.00000  Uiso   1.00
O730   O     0.55368   0.11607   0.30229   0.00000  Uiso   1.00
N731   N     0.33172   0.28821   0.62284   0.00000  Uiso   1.00
N732   N     0.38519   0.33338   0.94315   0.00000  Uiso   1.00
N733   N     0.52668   0.17584   0.31722   0.00000  Uiso   1.00
N734   N     0.29525   0.24123   0.57454   0.00000  Uiso   1.00
N735   N     0.34872   0.28640   0.89485   0.00000  Uiso   1.00
N736   N     0.49021   0.12886   0.26893   0.00000  Uiso   1.00
