data_job_05813
_audit_creation_date              2018-12-19
_audit_creation_method            'Materials Studio'
_symmetry_space_group_name_H-M    'P1'
_symmetry_Int_Tables_number       1
_symmetry_cell_setting            triclinic
loop_
_symmetry_equiv_pos_as_xyz
  x,y,z
_cell_length_a                    29.8795
_cell_length_b                    27.1320
_cell_length_c                    12.3342
_cell_angle_alpha                 90.0000
_cell_angle_beta                  90.0000
_cell_angle_gamma                 90.0000
loop_
_atom_site_label
_atom_site_type_symbol
_atom_site_fract_x
_atom_site_fract_y
_atom_site_fract_z
_atom_site_U_iso_or_equiv
_atom_site_adp_type
_atom_site_occupancy
C1     C     0.42164   0.31672   0.32848   0.00000  Uiso   1.00
C2     C     0.40476   0.34190   0.22578   0.00000  Uiso   1.00
C3     C     0.36639   0.32931   0.16875   0.00000  Uiso   1.00
C4     C     0.35672   0.35682   0.07678   0.00000  Uiso   1.00
C5     C     0.32630   0.39001   0.92240   0.00000  Uiso   1.00
C6     C     0.46924   0.29987   0.30369   0.00000  Uiso   1.00
C7     C     0.48508   0.25194   0.31217   0.00000  Uiso   1.00
C8     C     0.52969   0.24408   0.28580   0.00000  Uiso   1.00
C9     C     0.59939   0.21202   0.25245   0.00000  Uiso   1.00
C10    C     0.42590   0.35723   0.41355   0.00000  Uiso   1.00
C11    C     0.40532   0.35753   0.51442   0.00000  Uiso   1.00
C12    C     0.41345   0.39797   0.58055   0.00000  Uiso   1.00
C13    C     0.41587   0.45498   0.71777   0.00000  Uiso   1.00
C14    C     0.47268   0.38798   0.26658   0.00000  Uiso   1.00
C15    C     0.43249   0.38060   0.19216   0.00000  Uiso   1.00
C16    C     0.42287   0.40815   0.10026   0.00000  Uiso   1.00
C17    C     0.38449   0.39560   0.04310   0.00000  Uiso   1.00
C18    C     0.49696   0.33857   0.27007   0.00000  Uiso   1.00
C19    C     0.54156   0.33078   0.24369   0.00000  Uiso   1.00
C20    C     0.55747   0.28285   0.25212   0.00000  Uiso   1.00
C21    C     0.45363   0.39594   0.37993   0.00000  Uiso   1.00
C22    C     0.46180   0.43638   0.44593   0.00000  Uiso   1.00
C23    C     0.44123   0.43674   0.54687   0.00000  Uiso   1.00
H24    H     0.40005   0.28659   0.35466   0.00000  Uiso   1.00
H25    H     0.34494   0.29935   0.19479   0.00000  Uiso   1.00
H26    H     0.46362   0.22200   0.33820   0.00000  Uiso   1.00
H27    H     0.38387   0.32758   0.54041   0.00000  Uiso   1.00
H28    H     0.29608   0.33055   0.00269   0.00000  Uiso   1.00
H29    H     0.54631   0.16745   0.30512   0.00000  Uiso   1.00
H30    H     0.37815   0.39009   0.73152   0.00000  Uiso   1.00
H31    H     0.49427   0.41812   0.24041   0.00000  Uiso   1.00
H32    H     0.44433   0.43810   0.07427   0.00000  Uiso   1.00
H33    H     0.56301   0.36075   0.21768   0.00000  Uiso   1.00
H34    H     0.48326   0.46633   0.41988   0.00000  Uiso   1.00
H35    H     0.37675   0.44316   0.90487   0.00000  Uiso   1.00
H36    H     0.62698   0.28007   0.20730   0.00000  Uiso   1.00
H37    H     0.45882   0.50270   0.63369   0.00000  Uiso   1.00
O38    O     0.30187   0.39761   0.84653   0.00000  Uiso   1.00
O39    O     0.63017   0.18364   0.24333   0.00000  Uiso   1.00
O40    O     0.40953   0.47573   0.80274   0.00000  Uiso   1.00
N41    N     0.32191   0.35432   0.00248   0.00000  Uiso   1.00
N42    N     0.55587   0.20183   0.28522   0.00000  Uiso   1.00
N43    N     0.39865   0.40997   0.68387   0.00000  Uiso   1.00
N44    N     0.36532   0.41492   0.94985   0.00000  Uiso   1.00
N45    N     0.59927   0.26243   0.23258   0.00000  Uiso   1.00
N46    N     0.44206   0.47057   0.63124   0.00000  Uiso   1.00
C47    C     0.42164   0.81672   0.82848   0.00000  Uiso   1.00
C48    C     0.40476   0.84190   0.72578   0.00000  Uiso   1.00
C49    C     0.36639   0.82931   0.66875   0.00000  Uiso   1.00
C50    C     0.35672   0.85682   0.57678   0.00000  Uiso   1.00
C51    C     0.32630   0.89001   0.42240   0.00000  Uiso   1.00
C52    C     0.46924   0.79987   0.80369   0.00000  Uiso   1.00
C53    C     0.48508   0.75194   0.81217   0.00000  Uiso   1.00
C54    C     0.52969   0.74408   0.78580   0.00000  Uiso   1.00
C55    C     0.59939   0.71202   0.75245   0.00000  Uiso   1.00
C56    C     0.42590   0.85723   0.91355   0.00000  Uiso   1.00
C57    C     0.40532   0.85753   0.01442   0.00000  Uiso   1.00
C58    C     0.41345   0.89797   0.08055   0.00000  Uiso   1.00
C59    C     0.41587   0.95498   0.21777   0.00000  Uiso   1.00
C60    C     0.47268   0.88798   0.76658   0.00000  Uiso   1.00
C61    C     0.43249   0.88060   0.69216   0.00000  Uiso   1.00
C62    C     0.42287   0.90815   0.60026   0.00000  Uiso   1.00
C63    C     0.38449   0.89560   0.54310   0.00000  Uiso   1.00
C64    C     0.49696   0.83857   0.77007   0.00000  Uiso   1.00
C65    C     0.54156   0.83078   0.74369   0.00000  Uiso   1.00
C66    C     0.55747   0.78285   0.75212   0.00000  Uiso   1.00
C67    C     0.45363   0.89594   0.87993   0.00000  Uiso   1.00
C68    C     0.46180   0.93638   0.94593   0.00000  Uiso   1.00
C69    C     0.44123   0.93674   0.04687   0.00000  Uiso   1.00
H70    H     0.40005   0.78659   0.85466   0.00000  Uiso   1.00
H71    H     0.34494   0.79935   0.69479   0.00000  Uiso   1.00
H72    H     0.46362   0.72200   0.83820   0.00000  Uiso   1.00
H73    H     0.38387   0.82758   0.04041   0.00000  Uiso   1.00
H74    H     0.29608   0.83055   0.50269   0.00000  Uiso   1.00
H75    H     0.54631   0.66745   0.80512   0.00000  Uiso   1.00
H76    H     0.37815   0.89009   0.23152   0.00000  Uiso   1.00
H77    H     0.49427   0.91812   0.74041   0.00000  Uiso   1.00
H78    H     0.44433   0.93810   0.57427   0.00000  Uiso   1.00
H79    H     0.56301   0.86075   0.71768   0.00000  Uiso   1.00
H80    H     0.48326   0.96633   0.91988   0.00000  Uiso   1.00
H81    H     0.37675   0.94316   0.40487   0.00000  Uiso   1.00
H82    H     0.62698   0.78007   0.70730   0.00000  Uiso   1.00
H83    H     0.45882   0.00270   0.13369   0.00000  Uiso   1.00
O84    O     0.30187   0.89761   0.34653   0.00000  Uiso   1.00
O85    O     0.63017   0.68364   0.74333   0.00000  Uiso   1.00
O86    O     0.40953   0.97573   0.30274   0.00000  Uiso   1.00
N87    N     0.32191   0.85432   0.50248   0.00000  Uiso   1.00
N88    N     0.55587   0.70183   0.78522   0.00000  Uiso   1.00
N89    N     0.39865   0.90997   0.18387   0.00000  Uiso   1.00
N90    N     0.36532   0.91492   0.44985   0.00000  Uiso   1.00
N91    N     0.59927   0.76243   0.73258   0.00000  Uiso   1.00
N92    N     0.44206   0.97057   0.13124   0.00000  Uiso   1.00
C93    C     0.92164   0.31672   0.82848   0.00000  Uiso   1.00
C94    C     0.90476   0.34190   0.72578   0.00000  Uiso   1.00
C95    C     0.86639   0.32931   0.66875   0.00000  Uiso   1.00
C96    C     0.85672   0.35682   0.57678   0.00000  Uiso   1.00
C97    C     0.82630   0.39001   0.42240   0.00000  Uiso   1.00
C98    C     0.96924   0.29987   0.80369   0.00000  Uiso   1.00
C99    C     0.98508   0.25194   0.81217   0.00000  Uiso   1.00
C100   C     0.02969   0.24408   0.78580   0.00000  Uiso   1.00
C101   C     0.09939   0.21202   0.75245   0.00000  Uiso   1.00
C102   C     0.92590   0.35723   0.91355   0.00000  Uiso   1.00
C103   C     0.90532   0.35753   0.01442   0.00000  Uiso   1.00
C104   C     0.91345   0.39797   0.08055   0.00000  Uiso   1.00
C105   C     0.91587   0.45498   0.21777   0.00000  Uiso   1.00
C106   C     0.97268   0.38798   0.76658   0.00000  Uiso   1.00
C107   C     0.93249   0.38060   0.69216   0.00000  Uiso   1.00
C108   C     0.92287   0.40815   0.60026   0.00000  Uiso   1.00
C109   C     0.88449   0.39560   0.54310   0.00000  Uiso   1.00
C110   C     0.99696   0.33857   0.77007   0.00000  Uiso   1.00
C111   C     0.04156   0.33078   0.74369   0.00000  Uiso   1.00
C112   C     0.05747   0.28285   0.75212   0.00000  Uiso   1.00
C113   C     0.95363   0.39594   0.87993   0.00000  Uiso   1.00
C114   C     0.96180   0.43638   0.94593   0.00000  Uiso   1.00
C115   C     0.94123   0.43674   0.04687   0.00000  Uiso   1.00
H116   H     0.90005   0.28659   0.85466   0.00000  Uiso   1.00
H117   H     0.84494   0.29935   0.69479   0.00000  Uiso   1.00
H118   H     0.96362   0.22200   0.83820   0.00000  Uiso   1.00
H119   H     0.88387   0.32758   0.04041   0.00000  Uiso   1.00
H120   H     0.79608   0.33055   0.50269   0.00000  Uiso   1.00
H121   H     0.04631   0.16745   0.80512   0.00000  Uiso   1.00
H122   H     0.87815   0.39009   0.23152   0.00000  Uiso   1.00
H123   H     0.99427   0.41812   0.74041   0.00000  Uiso   1.00
H124   H     0.94433   0.43810   0.57427   0.00000  Uiso   1.00
H125   H     0.06301   0.36075   0.71768   0.00000  Uiso   1.00
H126   H     0.98326   0.46633   0.91988   0.00000  Uiso   1.00
H127   H     0.87675   0.44316   0.40487   0.00000  Uiso   1.00
H128   H     0.12698   0.28007   0.70730   0.00000  Uiso   1.00
H129   H     0.95882   0.50270   0.13369   0.00000  Uiso   1.00
O130   O     0.80187   0.39761   0.34653   0.00000  Uiso   1.00
O131   O     0.13017   0.18364   0.74333   0.00000  Uiso   1.00
O132   O     0.90953   0.47573   0.30274   0.00000  Uiso   1.00
N133   N     0.82191   0.35432   0.50248   0.00000  Uiso   1.00
N134   N     0.05587   0.20183   0.78522   0.00000  Uiso   1.00
N135   N     0.89865   0.40997   0.18387   0.00000  Uiso   1.00
N136   N     0.86532   0.41492   0.44985   0.00000  Uiso   1.00
N137   N     0.09927   0.26243   0.73258   0.00000  Uiso   1.00
N138   N     0.94206   0.47057   0.13124   0.00000  Uiso   1.00
C139   C     0.92164   0.81672   0.32848   0.00000  Uiso   1.00
C140   C     0.90476   0.84190   0.22578   0.00000  Uiso   1.00
C141   C     0.86639   0.82931   0.16875   0.00000  Uiso   1.00
C142   C     0.85672   0.85682   0.07678   0.00000  Uiso   1.00
C143   C     0.82630   0.89001   0.92240   0.00000  Uiso   1.00
C144   C     0.96924   0.79987   0.30369   0.00000  Uiso   1.00
C145   C     0.98508   0.75194   0.31217   0.00000  Uiso   1.00
C146   C     0.02969   0.74408   0.28580   0.00000  Uiso   1.00
C147   C     0.09939   0.71202   0.25245   0.00000  Uiso   1.00
C148   C     0.92590   0.85723   0.41355   0.00000  Uiso   1.00
C149   C     0.90532   0.85753   0.51442   0.00000  Uiso   1.00
C150   C     0.91345   0.89797   0.58055   0.00000  Uiso   1.00
C151   C     0.91587   0.95498   0.71777   0.00000  Uiso   1.00
C152   C     0.97268   0.88798   0.26658   0.00000  Uiso   1.00
C153   C     0.93249   0.88060   0.19216   0.00000  Uiso   1.00
C154   C     0.92287   0.90815   0.10026   0.00000  Uiso   1.00
C155   C     0.88449   0.89560   0.04310   0.00000  Uiso   1.00
C156   C     0.99696   0.83857   0.27007   0.00000  Uiso   1.00
C157   C     0.04156   0.83078   0.24369   0.00000  Uiso   1.00
C158   C     0.05747   0.78285   0.25212   0.00000  Uiso   1.00
C159   C     0.95363   0.89594   0.37993   0.00000  Uiso   1.00
C160   C     0.96180   0.93638   0.44593   0.00000  Uiso   1.00
C161   C     0.94123   0.93674   0.54687   0.00000  Uiso   1.00
H162   H     0.90005   0.78659   0.35466   0.00000  Uiso   1.00
H163   H     0.84494   0.79935   0.19479   0.00000  Uiso   1.00
H164   H     0.96362   0.72200   0.33820   0.00000  Uiso   1.00
H165   H     0.88387   0.82758   0.54041   0.00000  Uiso   1.00
H166   H     0.79608   0.83055   0.00269   0.00000  Uiso   1.00
H167   H     0.04631   0.66745   0.30512   0.00000  Uiso   1.00
H168   H     0.87815   0.89009   0.73152   0.00000  Uiso   1.00
H169   H     0.99427   0.91812   0.24041   0.00000  Uiso   1.00
H170   H     0.94433   0.93810   0.07427   0.00000  Uiso   1.00
H171   H     0.06301   0.86075   0.21768   0.00000  Uiso   1.00
H172   H     0.98326   0.96633   0.41988   0.00000  Uiso   1.00
H173   H     0.87675   0.94316   0.90487   0.00000  Uiso   1.00
H174   H     0.12698   0.78007   0.20730   0.00000  Uiso   1.00
H175   H     0.95882   0.00270   0.63369   0.00000  Uiso   1.00
O176   O     0.80187   0.89761   0.84653   0.00000  Uiso   1.00
O177   O     0.13017   0.68364   0.24333   0.00000  Uiso   1.00
O178   O     0.90953   0.97573   0.80274   0.00000  Uiso   1.00
N179   N     0.82191   0.85432   0.00248   0.00000  Uiso   1.00
N180   N     0.05587   0.70183   0.28522   0.00000  Uiso   1.00
N181   N     0.89865   0.90997   0.68387   0.00000  Uiso   1.00
N182   N     0.86532   0.91492   0.94985   0.00000  Uiso   1.00
N183   N     0.09927   0.76243   0.23258   0.00000  Uiso   1.00
N184   N     0.94206   0.97057   0.63124   0.00000  Uiso   1.00
C185   C     0.57836   0.68328   0.32848   0.00000  Uiso   1.00
C186   C     0.59524   0.65810   0.22578   0.00000  Uiso   1.00
C187   C     0.63361   0.67069   0.16875   0.00000  Uiso   1.00
C188   C     0.64328   0.64318   0.07678   0.00000  Uiso   1.00
C189   C     0.67370   0.60999   0.92240   0.00000  Uiso   1.00
C190   C     0.53076   0.70013   0.30369   0.00000  Uiso   1.00
C191   C     0.51492   0.74806   0.31217   0.00000  Uiso   1.00
C192   C     0.47031   0.75592   0.28580   0.00000  Uiso   1.00
C193   C     0.40061   0.78798   0.25245   0.00000  Uiso   1.00
C194   C     0.57410   0.64277   0.41355   0.00000  Uiso   1.00
C195   C     0.59468   0.64247   0.51442   0.00000  Uiso   1.00
C196   C     0.58655   0.60203   0.58055   0.00000  Uiso   1.00
C197   C     0.58413   0.54502   0.71777   0.00000  Uiso   1.00
C198   C     0.52732   0.61202   0.26658   0.00000  Uiso   1.00
C199   C     0.56751   0.61940   0.19216   0.00000  Uiso   1.00
C200   C     0.57713   0.59185   0.10026   0.00000  Uiso   1.00
C201   C     0.61551   0.60440   0.04310   0.00000  Uiso   1.00
C202   C     0.50304   0.66143   0.27007   0.00000  Uiso   1.00
C203   C     0.45844   0.66922   0.24369   0.00000  Uiso   1.00
C204   C     0.44253   0.71715   0.25212   0.00000  Uiso   1.00
C205   C     0.54637   0.60406   0.37993   0.00000  Uiso   1.00
C206   C     0.53820   0.56362   0.44593   0.00000  Uiso   1.00
C207   C     0.55877   0.56326   0.54687   0.00000  Uiso   1.00
H208   H     0.59995   0.71341   0.35466   0.00000  Uiso   1.00
H209   H     0.65506   0.70065   0.19479   0.00000  Uiso   1.00
H210   H     0.53638   0.77800   0.33820   0.00000  Uiso   1.00
H211   H     0.61613   0.67242   0.54041   0.00000  Uiso   1.00
H212   H     0.70392   0.66945   0.00269   0.00000  Uiso   1.00
H213   H     0.45369   0.83255   0.30512   0.00000  Uiso   1.00
H214   H     0.62185   0.60991   0.73152   0.00000  Uiso   1.00
H215   H     0.50573   0.58188   0.24041   0.00000  Uiso   1.00
H216   H     0.55567   0.56190   0.07427   0.00000  Uiso   1.00
H217   H     0.43699   0.63925   0.21768   0.00000  Uiso   1.00
H218   H     0.51674   0.53367   0.41988   0.00000  Uiso   1.00
H219   H     0.62325   0.55684   0.90487   0.00000  Uiso   1.00
H220   H     0.37302   0.71993   0.20730   0.00000  Uiso   1.00
H221   H     0.54118   0.49730   0.63369   0.00000  Uiso   1.00
O222   O     0.69813   0.60239   0.84653   0.00000  Uiso   1.00
O223   O     0.36983   0.81636   0.24333   0.00000  Uiso   1.00
O224   O     0.59047   0.52427   0.80274   0.00000  Uiso   1.00
N225   N     0.67809   0.64568   0.00248   0.00000  Uiso   1.00
N226   N     0.44413   0.79817   0.28522   0.00000  Uiso   1.00
N227   N     0.60135   0.59003   0.68387   0.00000  Uiso   1.00
N228   N     0.63468   0.58508   0.94985   0.00000  Uiso   1.00
N229   N     0.40073   0.73757   0.23258   0.00000  Uiso   1.00
N230   N     0.55794   0.52943   0.63124   0.00000  Uiso   1.00
C231   C     0.57836   0.18328   0.82848   0.00000  Uiso   1.00
C232   C     0.59524   0.15810   0.72578   0.00000  Uiso   1.00
C233   C     0.63361   0.17069   0.66875   0.00000  Uiso   1.00
C234   C     0.64328   0.14318   0.57678   0.00000  Uiso   1.00
C235   C     0.67370   0.10999   0.42240   0.00000  Uiso   1.00
C236   C     0.53076   0.20013   0.80369   0.00000  Uiso   1.00
C237   C     0.51492   0.24806   0.81217   0.00000  Uiso   1.00
C238   C     0.47031   0.25592   0.78580   0.00000  Uiso   1.00
C239   C     0.40061   0.28798   0.75245   0.00000  Uiso   1.00
C240   C     0.57410   0.14277   0.91355   0.00000  Uiso   1.00
C241   C     0.59468   0.14247   0.01442   0.00000  Uiso   1.00
C242   C     0.58655   0.10203   0.08055   0.00000  Uiso   1.00
C243   C     0.58413   0.04502   0.21777   0.00000  Uiso   1.00
C244   C     0.52732   0.11202   0.76658   0.00000  Uiso   1.00
C245   C     0.56751   0.11940   0.69216   0.00000  Uiso   1.00
C246   C     0.57713   0.09185   0.60026   0.00000  Uiso   1.00
C247   C     0.61551   0.10440   0.54310   0.00000  Uiso   1.00
C248   C     0.50304   0.16143   0.77007   0.00000  Uiso   1.00
C249   C     0.45844   0.16922   0.74369   0.00000  Uiso   1.00
C250   C     0.44253   0.21715   0.75212   0.00000  Uiso   1.00
C251   C     0.54637   0.10406   0.87993   0.00000  Uiso   1.00
C252   C     0.53820   0.06362   0.94593   0.00000  Uiso   1.00
C253   C     0.55877   0.06326   0.04687   0.00000  Uiso   1.00
H254   H     0.59995   0.21341   0.85466   0.00000  Uiso   1.00
H255   H     0.65506   0.20065   0.69479   0.00000  Uiso   1.00
H256   H     0.53638   0.27800   0.83820   0.00000  Uiso   1.00
H257   H     0.61613   0.17242   0.04041   0.00000  Uiso   1.00
H258   H     0.70392   0.16945   0.50269   0.00000  Uiso   1.00
H259   H     0.45369   0.33255   0.80512   0.00000  Uiso   1.00
H260   H     0.62185   0.10991   0.23152   0.00000  Uiso   1.00
H261   H     0.50573   0.08188   0.74041   0.00000  Uiso   1.00
H262   H     0.55567   0.06190   0.57427   0.00000  Uiso   1.00
H263   H     0.43699   0.13925   0.71768   0.00000  Uiso   1.00
H264   H     0.51674   0.03367   0.91988   0.00000  Uiso   1.00
H265   H     0.62325   0.05684   0.40487   0.00000  Uiso   1.00
H266   H     0.37302   0.21993   0.70730   0.00000  Uiso   1.00
H267   H     0.54118   0.99730   0.13369   0.00000  Uiso   1.00
O268   O     0.69813   0.10239   0.34653   0.00000  Uiso   1.00
O269   O     0.36983   0.31636   0.74333   0.00000  Uiso   1.00
O270   O     0.59047   0.02427   0.30274   0.00000  Uiso   1.00
N271   N     0.67809   0.14568   0.50248   0.00000  Uiso   1.00
N272   N     0.44413   0.29817   0.78522   0.00000  Uiso   1.00
N273   N     0.60135   0.09003   0.18387   0.00000  Uiso   1.00
N274   N     0.63468   0.08508   0.44985   0.00000  Uiso   1.00
N275   N     0.40073   0.23757   0.73258   0.00000  Uiso   1.00
N276   N     0.55794   0.02943   0.13124   0.00000  Uiso   1.00
C277   C     0.07836   0.68328   0.82848   0.00000  Uiso   1.00
C278   C     0.09524   0.65810   0.72578   0.00000  Uiso   1.00
C279   C     0.13361   0.67069   0.66875   0.00000  Uiso   1.00
C280   C     0.14328   0.64318   0.57678   0.00000  Uiso   1.00
C281   C     0.17370   0.60999   0.42240   0.00000  Uiso   1.00
C282   C     0.03076   0.70013   0.80369   0.00000  Uiso   1.00
C283   C     0.01492   0.74806   0.81217   0.00000  Uiso   1.00
C284   C     0.97031   0.75592   0.78580   0.00000  Uiso   1.00
C285   C     0.90061   0.78798   0.75245   0.00000  Uiso   1.00
C286   C     0.07410   0.64277   0.91355   0.00000  Uiso   1.00
C287   C     0.09468   0.64247   0.01442   0.00000  Uiso   1.00
C288   C     0.08655   0.60203   0.08055   0.00000  Uiso   1.00
C289   C     0.08413   0.54502   0.21777   0.00000  Uiso   1.00
C290   C     0.02732   0.61202   0.76658   0.00000  Uiso   1.00
C291   C     0.06751   0.61940   0.69216   0.00000  Uiso   1.00
C292   C     0.07713   0.59185   0.60026   0.00000  Uiso   1.00
C293   C     0.11551   0.60440   0.54310   0.00000  Uiso   1.00
C294   C     0.00304   0.66143   0.77007   0.00000  Uiso   1.00
C295   C     0.95844   0.66922   0.74369   0.00000  Uiso   1.00
C296   C     0.94253   0.71715   0.75212   0.00000  Uiso   1.00
C297   C     0.04637   0.60406   0.87993   0.00000  Uiso   1.00
C298   C     0.03820   0.56362   0.94593   0.00000  Uiso   1.00
C299   C     0.05877   0.56326   0.04687   0.00000  Uiso   1.00
H300   H     0.09995   0.71341   0.85466   0.00000  Uiso   1.00
H301   H     0.15506   0.70065   0.69479   0.00000  Uiso   1.00
H302   H     0.03638   0.77800   0.83820   0.00000  Uiso   1.00
H303   H     0.11613   0.67242   0.04041   0.00000  Uiso   1.00
H304   H     0.20392   0.66945   0.50269   0.00000  Uiso   1.00
H305   H     0.95369   0.83255   0.80512   0.00000  Uiso   1.00
H306   H     0.12185   0.60991   0.23152   0.00000  Uiso   1.00
H307   H     0.00573   0.58188   0.74041   0.00000  Uiso   1.00
H308   H     0.05567   0.56190   0.57427   0.00000  Uiso   1.00
H309   H     0.93699   0.63925   0.71768   0.00000  Uiso   1.00
H310   H     0.01674   0.53367   0.91988   0.00000  Uiso   1.00
H311   H     0.12325   0.55684   0.40487   0.00000  Uiso   1.00
H312   H     0.87302   0.71993   0.70730   0.00000  Uiso   1.00
H313   H     0.04118   0.49730   0.13369   0.00000  Uiso   1.00
O314   O     0.19813   0.60239   0.34653   0.00000  Uiso   1.00
O315   O     0.86983   0.81636   0.74333   0.00000  Uiso   1.00
O316   O     0.09047   0.52427   0.30274   0.00000  Uiso   1.00
N317   N     0.17809   0.64568   0.50248   0.00000  Uiso   1.00
N318   N     0.94413   0.79817   0.78522   0.00000  Uiso   1.00
N319   N     0.10135   0.59003   0.18387   0.00000  Uiso   1.00
N320   N     0.13468   0.58508   0.44985   0.00000  Uiso   1.00
N321   N     0.90073   0.73757   0.73258   0.00000  Uiso   1.00
N322   N     0.05794   0.52943   0.13124   0.00000  Uiso   1.00
C323   C     0.07836   0.18328   0.32848   0.00000  Uiso   1.00
C324   C     0.09524   0.15810   0.22578   0.00000  Uiso   1.00
C325   C     0.13361   0.17069   0.16875   0.00000  Uiso   1.00
C326   C     0.14328   0.14318   0.07678   0.00000  Uiso   1.00
C327   C     0.17370   0.10999   0.92240   0.00000  Uiso   1.00
C328   C     0.03076   0.20013   0.30369   0.00000  Uiso   1.00
C329   C     0.01492   0.24806   0.31217   0.00000  Uiso   1.00
C330   C     0.97031   0.25592   0.28580   0.00000  Uiso   1.00
C331   C     0.90061   0.28798   0.25245   0.00000  Uiso   1.00
C332   C     0.07410   0.14277   0.41355   0.00000  Uiso   1.00
C333   C     0.09468   0.14247   0.51442   0.00000  Uiso   1.00
C334   C     0.08655   0.10203   0.58055   0.00000  Uiso   1.00
C335   C     0.08413   0.04502   0.71777   0.00000  Uiso   1.00
C336   C     0.02732   0.11202   0.26658   0.00000  Uiso   1.00
C337   C     0.06751   0.11940   0.19216   0.00000  Uiso   1.00
C338   C     0.07713   0.09185   0.10026   0.00000  Uiso   1.00
C339   C     0.11551   0.10440   0.04310   0.00000  Uiso   1.00
C340   C     0.00304   0.16143   0.27007   0.00000  Uiso   1.00
C341   C     0.95844   0.16922   0.24369   0.00000  Uiso   1.00
C342   C     0.94253   0.21715   0.25212   0.00000  Uiso   1.00
C343   C     0.04637   0.10406   0.37993   0.00000  Uiso   1.00
C344   C     0.03820   0.06362   0.44593   0.00000  Uiso   1.00
C345   C     0.05877   0.06326   0.54687   0.00000  Uiso   1.00
H346   H     0.09995   0.21341   0.35466   0.00000  Uiso   1.00
H347   H     0.15506   0.20065   0.19479   0.00000  Uiso   1.00
H348   H     0.03638   0.27800   0.33820   0.00000  Uiso   1.00
H349   H     0.11613   0.17242   0.54041   0.00000  Uiso   1.00
H350   H     0.20392   0.16945   0.00269   0.00000  Uiso   1.00
H351   H     0.95369   0.33255   0.30512   0.00000  Uiso   1.00
H352   H     0.12185   0.10991   0.73152   0.00000  Uiso   1.00
H353   H     0.00573   0.08188   0.24041   0.00000  Uiso   1.00
H354   H     0.05567   0.06190   0.07427   0.00000  Uiso   1.00
H355   H     0.93699   0.13925   0.21768   0.00000  Uiso   1.00
H356   H     0.01674   0.03367   0.41988   0.00000  Uiso   1.00
H357   H     0.12325   0.05684   0.90487   0.00000  Uiso   1.00
H358   H     0.87302   0.21993   0.20730   0.00000  Uiso   1.00
H359   H     0.04118   0.99730   0.63369   0.00000  Uiso   1.00
O360   O     0.19813   0.10239   0.84653   0.00000  Uiso   1.00
O361   O     0.86983   0.31636   0.24333   0.00000  Uiso   1.00
O362   O     0.09047   0.02427   0.80274   0.00000  Uiso   1.00
N363   N     0.17809   0.14568   0.00248   0.00000  Uiso   1.00
N364   N     0.94413   0.29817   0.28522   0.00000  Uiso   1.00
N365   N     0.10135   0.09003   0.68387   0.00000  Uiso   1.00
N366   N     0.13468   0.08508   0.94985   0.00000  Uiso   1.00
N367   N     0.90073   0.23757   0.23258   0.00000  Uiso   1.00
N368   N     0.05794   0.02943   0.63124   0.00000  Uiso   1.00
C369   C     0.67164   0.93328   0.57848   0.00000  Uiso   1.00
C370   C     0.65476   0.90810   0.47578   0.00000  Uiso   1.00
C371   C     0.61639   0.92069   0.41875   0.00000  Uiso   1.00
C372   C     0.60672   0.89318   0.32678   0.00000  Uiso   1.00
C373   C     0.57630   0.85999   0.17240   0.00000  Uiso   1.00
C374   C     0.71924   0.95013   0.55369   0.00000  Uiso   1.00
C375   C     0.73508   0.99806   0.56217   0.00000  Uiso   1.00
C376   C     0.77969   0.00592   0.53580   0.00000  Uiso   1.00
C377   C     0.84939   0.03798   0.50245   0.00000  Uiso   1.00
C378   C     0.67590   0.89277   0.66355   0.00000  Uiso   1.00
C379   C     0.65532   0.89247   0.76442   0.00000  Uiso   1.00
C380   C     0.66345   0.85203   0.83055   0.00000  Uiso   1.00
C381   C     0.66587   0.79502   0.96777   0.00000  Uiso   1.00
C382   C     0.72268   0.86202   0.51658   0.00000  Uiso   1.00
C383   C     0.68249   0.86940   0.44216   0.00000  Uiso   1.00
C384   C     0.67287   0.84185   0.35026   0.00000  Uiso   1.00
C385   C     0.63449   0.85440   0.29310   0.00000  Uiso   1.00
C386   C     0.74696   0.91143   0.52007   0.00000  Uiso   1.00
C387   C     0.79156   0.91922   0.49369   0.00000  Uiso   1.00
C388   C     0.80747   0.96715   0.50212   0.00000  Uiso   1.00
C389   C     0.70363   0.85406   0.62993   0.00000  Uiso   1.00
C390   C     0.71180   0.81362   0.69593   0.00000  Uiso   1.00
C391   C     0.69123   0.81326   0.79687   0.00000  Uiso   1.00
H392   H     0.65005   0.96341   0.60466   0.00000  Uiso   1.00
H393   H     0.59494   0.95065   0.44479   0.00000  Uiso   1.00
H394   H     0.71362   0.02800   0.58820   0.00000  Uiso   1.00
H395   H     0.63387   0.92242   0.79041   0.00000  Uiso   1.00
H396   H     0.54608   0.91945   0.25269   0.00000  Uiso   1.00
H397   H     0.79631   0.08255   0.55512   0.00000  Uiso   1.00
H398   H     0.62815   0.85991   0.98152   0.00000  Uiso   1.00
H399   H     0.74427   0.83188   0.49041   0.00000  Uiso   1.00
H400   H     0.69433   0.81190   0.32427   0.00000  Uiso   1.00
H401   H     0.81301   0.88925   0.46768   0.00000  Uiso   1.00
H402   H     0.73326   0.78367   0.66988   0.00000  Uiso   1.00
H403   H     0.62675   0.80684   0.15487   0.00000  Uiso   1.00
H404   H     0.87698   0.96993   0.45730   0.00000  Uiso   1.00
H405   H     0.70882   0.74730   0.88369   0.00000  Uiso   1.00
O406   O     0.55187   0.85239   0.09653   0.00000  Uiso   1.00
O407   O     0.88017   0.06636   0.49333   0.00000  Uiso   1.00
O408   O     0.65953   0.77427   0.05274   0.00000  Uiso   1.00
N409   N     0.57191   0.89568   0.25248   0.00000  Uiso   1.00
N410   N     0.80587   0.04817   0.53522   0.00000  Uiso   1.00
N411   N     0.64865   0.84003   0.93387   0.00000  Uiso   1.00
N412   N     0.61532   0.83508   0.19985   0.00000  Uiso   1.00
N413   N     0.84927   0.98757   0.48258   0.00000  Uiso   1.00
N414   N     0.69206   0.77943   0.88124   0.00000  Uiso   1.00
C415   C     0.67164   0.43328   0.07848   0.00000  Uiso   1.00
C416   C     0.65476   0.40810   0.97578   0.00000  Uiso   1.00
C417   C     0.61639   0.42069   0.91875   0.00000  Uiso   1.00
C418   C     0.60672   0.39318   0.82678   0.00000  Uiso   1.00
C419   C     0.57630   0.35999   0.67240   0.00000  Uiso   1.00
C420   C     0.71924   0.45013   0.05369   0.00000  Uiso   1.00
C421   C     0.73508   0.49806   0.06217   0.00000  Uiso   1.00
C422   C     0.77969   0.50592   0.03580   0.00000  Uiso   1.00
C423   C     0.84939   0.53798   0.00245   0.00000  Uiso   1.00
C424   C     0.67590   0.39277   0.16355   0.00000  Uiso   1.00
C425   C     0.65532   0.39247   0.26442   0.00000  Uiso   1.00
C426   C     0.66345   0.35203   0.33055   0.00000  Uiso   1.00
C427   C     0.66587   0.29502   0.46777   0.00000  Uiso   1.00
C428   C     0.72268   0.36202   0.01658   0.00000  Uiso   1.00
C429   C     0.68249   0.36940   0.94216   0.00000  Uiso   1.00
C430   C     0.67287   0.34185   0.85026   0.00000  Uiso   1.00
C431   C     0.63449   0.35440   0.79310   0.00000  Uiso   1.00
C432   C     0.74696   0.41143   0.02007   0.00000  Uiso   1.00
C433   C     0.79156   0.41922   0.99369   0.00000  Uiso   1.00
C434   C     0.80747   0.46715   0.00212   0.00000  Uiso   1.00
C435   C     0.70363   0.35406   0.12993   0.00000  Uiso   1.00
C436   C     0.71180   0.31362   0.19593   0.00000  Uiso   1.00
C437   C     0.69123   0.31326   0.29687   0.00000  Uiso   1.00
H438   H     0.65005   0.46341   0.10466   0.00000  Uiso   1.00
H439   H     0.59494   0.45065   0.94479   0.00000  Uiso   1.00
H440   H     0.71362   0.52800   0.08820   0.00000  Uiso   1.00
H441   H     0.63387   0.42242   0.29041   0.00000  Uiso   1.00
H442   H     0.54608   0.41945   0.75269   0.00000  Uiso   1.00
H443   H     0.79631   0.58255   0.05512   0.00000  Uiso   1.00
H444   H     0.62815   0.35991   0.48152   0.00000  Uiso   1.00
H445   H     0.74427   0.33188   0.99041   0.00000  Uiso   1.00
H446   H     0.69433   0.31190   0.82427   0.00000  Uiso   1.00
H447   H     0.81301   0.38925   0.96768   0.00000  Uiso   1.00
H448   H     0.73326   0.28367   0.16988   0.00000  Uiso   1.00
H449   H     0.62675   0.30684   0.65487   0.00000  Uiso   1.00
H450   H     0.87698   0.46993   0.95730   0.00000  Uiso   1.00
H451   H     0.70882   0.24730   0.38369   0.00000  Uiso   1.00
O452   O     0.55187   0.35239   0.59653   0.00000  Uiso   1.00
O453   O     0.88017   0.56636   0.99333   0.00000  Uiso   1.00
O454   O     0.65953   0.27427   0.55274   0.00000  Uiso   1.00
N455   N     0.57191   0.39568   0.75248   0.00000  Uiso   1.00
N456   N     0.80587   0.54817   0.03522   0.00000  Uiso   1.00
N457   N     0.64865   0.34003   0.43387   0.00000  Uiso   1.00
N458   N     0.61532   0.33508   0.69985   0.00000  Uiso   1.00
N459   N     0.84927   0.48757   0.98258   0.00000  Uiso   1.00
N460   N     0.69206   0.27943   0.38124   0.00000  Uiso   1.00
C461   C     0.17164   0.93328   0.07848   0.00000  Uiso   1.00
C462   C     0.15476   0.90810   0.97578   0.00000  Uiso   1.00
C463   C     0.11639   0.92069   0.91875   0.00000  Uiso   1.00
C464   C     0.10672   0.89318   0.82678   0.00000  Uiso   1.00
C465   C     0.07630   0.85999   0.67240   0.00000  Uiso   1.00
C466   C     0.21924   0.95013   0.05369   0.00000  Uiso   1.00
C467   C     0.23508   0.99806   0.06217   0.00000  Uiso   1.00
C468   C     0.27969   0.00592   0.03580   0.00000  Uiso   1.00
C469   C     0.34939   0.03798   0.00245   0.00000  Uiso   1.00
C470   C     0.17590   0.89277   0.16355   0.00000  Uiso   1.00
C471   C     0.15532   0.89247   0.26442   0.00000  Uiso   1.00
C472   C     0.16345   0.85203   0.33055   0.00000  Uiso   1.00
C473   C     0.16587   0.79502   0.46777   0.00000  Uiso   1.00
C474   C     0.22268   0.86202   0.01658   0.00000  Uiso   1.00
C475   C     0.18249   0.86940   0.94216   0.00000  Uiso   1.00
C476   C     0.17287   0.84185   0.85026   0.00000  Uiso   1.00
C477   C     0.13449   0.85440   0.79310   0.00000  Uiso   1.00
C478   C     0.24696   0.91143   0.02007   0.00000  Uiso   1.00
C479   C     0.29156   0.91922   0.99369   0.00000  Uiso   1.00
C480   C     0.30747   0.96715   0.00212   0.00000  Uiso   1.00
C481   C     0.20363   0.85406   0.12993   0.00000  Uiso   1.00
C482   C     0.21180   0.81362   0.19593   0.00000  Uiso   1.00
C483   C     0.19123   0.81326   0.29687   0.00000  Uiso   1.00
H484   H     0.15005   0.96341   0.10466   0.00000  Uiso   1.00
H485   H     0.09494   0.95065   0.94479   0.00000  Uiso   1.00
H486   H     0.21362   0.02800   0.08820   0.00000  Uiso   1.00
H487   H     0.13387   0.92242   0.29041   0.00000  Uiso   1.00
H488   H     0.04608   0.91945   0.75269   0.00000  Uiso   1.00
H489   H     0.29631   0.08255   0.05512   0.00000  Uiso   1.00
H490   H     0.12815   0.85991   0.48152   0.00000  Uiso   1.00
H491   H     0.24427   0.83188   0.99041   0.00000  Uiso   1.00
H492   H     0.19433   0.81190   0.82427   0.00000  Uiso   1.00
H493   H     0.31301   0.88925   0.96768   0.00000  Uiso   1.00
H494   H     0.23326   0.78367   0.16988   0.00000  Uiso   1.00
H495   H     0.12675   0.80684   0.65487   0.00000  Uiso   1.00
H496   H     0.37698   0.96993   0.95730   0.00000  Uiso   1.00
H497   H     0.20882   0.74730   0.38369   0.00000  Uiso   1.00
O498   O     0.05187   0.85239   0.59653   0.00000  Uiso   1.00
O499   O     0.38017   0.06636   0.99333   0.00000  Uiso   1.00
O500   O     0.15953   0.77427   0.55274   0.00000  Uiso   1.00
N501   N     0.07191   0.89568   0.75248   0.00000  Uiso   1.00
N502   N     0.30587   0.04817   0.03522   0.00000  Uiso   1.00
N503   N     0.14865   0.84003   0.43387   0.00000  Uiso   1.00
N504   N     0.11532   0.83508   0.69985   0.00000  Uiso   1.00
N505   N     0.34927   0.98757   0.98258   0.00000  Uiso   1.00
N506   N     0.19206   0.77943   0.38124   0.00000  Uiso   1.00
C507   C     0.17164   0.43328   0.57848   0.00000  Uiso   1.00
C508   C     0.15476   0.40810   0.47578   0.00000  Uiso   1.00
C509   C     0.11639   0.42069   0.41875   0.00000  Uiso   1.00
C510   C     0.10672   0.39318   0.32678   0.00000  Uiso   1.00
C511   C     0.07630   0.35999   0.17240   0.00000  Uiso   1.00
C512   C     0.21924   0.45013   0.55369   0.00000  Uiso   1.00
C513   C     0.23508   0.49806   0.56217   0.00000  Uiso   1.00
C514   C     0.27969   0.50592   0.53580   0.00000  Uiso   1.00
C515   C     0.34939   0.53798   0.50245   0.00000  Uiso   1.00
C516   C     0.17590   0.39277   0.66355   0.00000  Uiso   1.00
C517   C     0.15532   0.39247   0.76442   0.00000  Uiso   1.00
C518   C     0.16345   0.35203   0.83055   0.00000  Uiso   1.00
C519   C     0.16587   0.29502   0.96777   0.00000  Uiso   1.00
C520   C     0.22268   0.36202   0.51658   0.00000  Uiso   1.00
C521   C     0.18249   0.36940   0.44216   0.00000  Uiso   1.00
C522   C     0.17287   0.34185   0.35026   0.00000  Uiso   1.00
C523   C     0.13449   0.35440   0.29310   0.00000  Uiso   1.00
C524   C     0.24696   0.41143   0.52007   0.00000  Uiso   1.00
C525   C     0.29156   0.41922   0.49369   0.00000  Uiso   1.00
C526   C     0.30747   0.46715   0.50212   0.00000  Uiso   1.00
C527   C     0.20363   0.35406   0.62993   0.00000  Uiso   1.00
C528   C     0.21180   0.31362   0.69593   0.00000  Uiso   1.00
C529   C     0.19123   0.31326   0.79687   0.00000  Uiso   1.00
H530   H     0.15005   0.46341   0.60466   0.00000  Uiso   1.00
H531   H     0.09494   0.45065   0.44479   0.00000  Uiso   1.00
H532   H     0.21362   0.52800   0.58820   0.00000  Uiso   1.00
H533   H     0.13387   0.42242   0.79041   0.00000  Uiso   1.00
H534   H     0.04608   0.41945   0.25269   0.00000  Uiso   1.00
H535   H     0.29631   0.58255   0.55512   0.00000  Uiso   1.00
H536   H     0.12815   0.35991   0.98152   0.00000  Uiso   1.00
H537   H     0.24427   0.33188   0.49041   0.00000  Uiso   1.00
H538   H     0.19433   0.31190   0.32427   0.00000  Uiso   1.00
H539   H     0.31301   0.38925   0.46768   0.00000  Uiso   1.00
H540   H     0.23326   0.28367   0.66988   0.00000  Uiso   1.00
H541   H     0.12675   0.30684   0.15487   0.00000  Uiso   1.00
H542   H     0.37698   0.46993   0.45730   0.00000  Uiso   1.00
H543   H     0.20882   0.24730   0.88369   0.00000  Uiso   1.00
O544   O     0.05187   0.35239   0.09653   0.00000  Uiso   1.00
O545   O     0.38017   0.56636   0.49333   0.00000  Uiso   1.00
O546   O     0.15953   0.27427   0.05274   0.00000  Uiso   1.00
N547   N     0.07191   0.39568   0.25248   0.00000  Uiso   1.00
N548   N     0.30587   0.54817   0.53522   0.00000  Uiso   1.00
N549   N     0.14865   0.34003   0.93387   0.00000  Uiso   1.00
N550   N     0.11532   0.33508   0.19985   0.00000  Uiso   1.00
N551   N     0.34927   0.48757   0.48258   0.00000  Uiso   1.00
N552   N     0.19206   0.27943   0.88124   0.00000  Uiso   1.00
C553   C     0.82836   0.56672   0.57848   0.00000  Uiso   1.00
C554   C     0.84524   0.59190   0.47578   0.00000  Uiso   1.00
C555   C     0.88361   0.57931   0.41875   0.00000  Uiso   1.00
C556   C     0.89328   0.60682   0.32678   0.00000  Uiso   1.00
C557   C     0.92370   0.64001   0.17240   0.00000  Uiso   1.00
C558   C     0.78076   0.54987   0.55369   0.00000  Uiso   1.00
C559   C     0.76492   0.50194   0.56217   0.00000  Uiso   1.00
C560   C     0.72031   0.49408   0.53580   0.00000  Uiso   1.00
C561   C     0.65061   0.46202   0.50245   0.00000  Uiso   1.00
C562   C     0.82410   0.60723   0.66355   0.00000  Uiso   1.00
C563   C     0.84468   0.60753   0.76442   0.00000  Uiso   1.00
C564   C     0.83655   0.64797   0.83055   0.00000  Uiso   1.00
C565   C     0.83413   0.70498   0.96777   0.00000  Uiso   1.00
C566   C     0.77732   0.63798   0.51658   0.00000  Uiso   1.00
C567   C     0.81751   0.63060   0.44216   0.00000  Uiso   1.00
C568   C     0.82713   0.65815   0.35026   0.00000  Uiso   1.00
C569   C     0.86551   0.64560   0.29310   0.00000  Uiso   1.00
C570   C     0.75304   0.58857   0.52007   0.00000  Uiso   1.00
C571   C     0.70844   0.58078   0.49369   0.00000  Uiso   1.00
C572   C     0.69253   0.53285   0.50212   0.00000  Uiso   1.00
C573   C     0.79637   0.64594   0.62993   0.00000  Uiso   1.00
C574   C     0.78820   0.68638   0.69593   0.00000  Uiso   1.00
C575   C     0.80877   0.68674   0.79687   0.00000  Uiso   1.00
H576   H     0.84995   0.53659   0.60466   0.00000  Uiso   1.00
H577   H     0.90506   0.54935   0.44479   0.00000  Uiso   1.00
H578   H     0.78638   0.47200   0.58820   0.00000  Uiso   1.00
H579   H     0.86613   0.57758   0.79041   0.00000  Uiso   1.00
H580   H     0.95392   0.58055   0.25269   0.00000  Uiso   1.00
H581   H     0.70369   0.41745   0.55512   0.00000  Uiso   1.00
H582   H     0.87185   0.64009   0.98152   0.00000  Uiso   1.00
H583   H     0.75573   0.66812   0.49041   0.00000  Uiso   1.00
H584   H     0.80567   0.68810   0.32427   0.00000  Uiso   1.00
H585   H     0.68699   0.61075   0.46768   0.00000  Uiso   1.00
H586   H     0.76674   0.71633   0.66988   0.00000  Uiso   1.00
H587   H     0.87325   0.69316   0.15487   0.00000  Uiso   1.00
H588   H     0.62302   0.53007   0.45730   0.00000  Uiso   1.00
H589   H     0.79118   0.75270   0.88369   0.00000  Uiso   1.00
O590   O     0.94813   0.64761   0.09653   0.00000  Uiso   1.00
O591   O     0.61983   0.43364   0.49333   0.00000  Uiso   1.00
O592   O     0.84047   0.72573   0.05274   0.00000  Uiso   1.00
N593   N     0.92809   0.60432   0.25248   0.00000  Uiso   1.00
N594   N     0.69413   0.45183   0.53522   0.00000  Uiso   1.00
N595   N     0.85135   0.65997   0.93387   0.00000  Uiso   1.00
N596   N     0.88468   0.66492   0.19985   0.00000  Uiso   1.00
N597   N     0.65073   0.51243   0.48258   0.00000  Uiso   1.00
N598   N     0.80794   0.72057   0.88124   0.00000  Uiso   1.00
C599   C     0.82836   0.06672   0.07848   0.00000  Uiso   1.00
C600   C     0.84524   0.09190   0.97578   0.00000  Uiso   1.00
C601   C     0.88361   0.07931   0.91875   0.00000  Uiso   1.00
C602   C     0.89328   0.10682   0.82678   0.00000  Uiso   1.00
C603   C     0.92370   0.14001   0.67240   0.00000  Uiso   1.00
C604   C     0.78076   0.04987   0.05369   0.00000  Uiso   1.00
C605   C     0.76492   0.00194   0.06217   0.00000  Uiso   1.00
C606   C     0.72031   0.99408   0.03580   0.00000  Uiso   1.00
C607   C     0.65061   0.96202   0.00245   0.00000  Uiso   1.00
C608   C     0.82410   0.10723   0.16355   0.00000  Uiso   1.00
C609   C     0.84468   0.10753   0.26442   0.00000  Uiso   1.00
C610   C     0.83655   0.14797   0.33055   0.00000  Uiso   1.00
C611   C     0.83413   0.20498   0.46777   0.00000  Uiso   1.00
C612   C     0.77732   0.13798   0.01658   0.00000  Uiso   1.00
C613   C     0.81751   0.13060   0.94216   0.00000  Uiso   1.00
C614   C     0.82713   0.15815   0.85026   0.00000  Uiso   1.00
C615   C     0.86551   0.14560   0.79310   0.00000  Uiso   1.00
C616   C     0.75304   0.08857   0.02007   0.00000  Uiso   1.00
C617   C     0.70844   0.08078   0.99369   0.00000  Uiso   1.00
C618   C     0.69253   0.03285   0.00212   0.00000  Uiso   1.00
C619   C     0.79637   0.14594   0.12993   0.00000  Uiso   1.00
C620   C     0.78820   0.18638   0.19593   0.00000  Uiso   1.00
C621   C     0.80877   0.18674   0.29687   0.00000  Uiso   1.00
H622   H     0.84995   0.03659   0.10466   0.00000  Uiso   1.00
H623   H     0.90506   0.04935   0.94479   0.00000  Uiso   1.00
H624   H     0.78638   0.97200   0.08820   0.00000  Uiso   1.00
H625   H     0.86613   0.07758   0.29041   0.00000  Uiso   1.00
H626   H     0.95392   0.08055   0.75269   0.00000  Uiso   1.00
H627   H     0.70369   0.91745   0.05512   0.00000  Uiso   1.00
H628   H     0.87185   0.14009   0.48152   0.00000  Uiso   1.00
H629   H     0.75573   0.16812   0.99041   0.00000  Uiso   1.00
H630   H     0.80567   0.18810   0.82427   0.00000  Uiso   1.00
H631   H     0.68699   0.11075   0.96768   0.00000  Uiso   1.00
H632   H     0.76674   0.21633   0.16988   0.00000  Uiso   1.00
H633   H     0.87325   0.19316   0.65487   0.00000  Uiso   1.00
H634   H     0.62302   0.03007   0.95730   0.00000  Uiso   1.00
H635   H     0.79118   0.25270   0.38369   0.00000  Uiso   1.00
O636   O     0.94813   0.14761   0.59653   0.00000  Uiso   1.00
O637   O     0.61983   0.93364   0.99333   0.00000  Uiso   1.00
O638   O     0.84047   0.22573   0.55274   0.00000  Uiso   1.00
N639   N     0.92809   0.10432   0.75248   0.00000  Uiso   1.00
N640   N     0.69413   0.95183   0.03522   0.00000  Uiso   1.00
N641   N     0.85135   0.15997   0.43387   0.00000  Uiso   1.00
N642   N     0.88468   0.16492   0.69985   0.00000  Uiso   1.00
N643   N     0.65073   0.01243   0.98258   0.00000  Uiso   1.00
N644   N     0.80794   0.22057   0.38124   0.00000  Uiso   1.00
C645   C     0.32836   0.56672   0.07848   0.00000  Uiso   1.00
C646   C     0.34524   0.59190   0.97578   0.00000  Uiso   1.00
C647   C     0.38361   0.57931   0.91875   0.00000  Uiso   1.00
C648   C     0.39328   0.60682   0.82678   0.00000  Uiso   1.00
C649   C     0.42370   0.64001   0.67240   0.00000  Uiso   1.00
C650   C     0.28076   0.54987   0.05369   0.00000  Uiso   1.00
C651   C     0.26492   0.50194   0.06217   0.00000  Uiso   1.00
C652   C     0.22031   0.49408   0.03580   0.00000  Uiso   1.00
C653   C     0.15061   0.46202   0.00245   0.00000  Uiso   1.00
C654   C     0.32410   0.60723   0.16355   0.00000  Uiso   1.00
C655   C     0.34468   0.60753   0.26442   0.00000  Uiso   1.00
C656   C     0.33655   0.64797   0.33055   0.00000  Uiso   1.00
C657   C     0.33413   0.70498   0.46777   0.00000  Uiso   1.00
C658   C     0.27732   0.63798   0.01658   0.00000  Uiso   1.00
C659   C     0.31751   0.63060   0.94216   0.00000  Uiso   1.00
C660   C     0.32713   0.65815   0.85026   0.00000  Uiso   1.00
C661   C     0.36551   0.64560   0.79310   0.00000  Uiso   1.00
C662   C     0.25304   0.58857   0.02007   0.00000  Uiso   1.00
C663   C     0.20844   0.58078   0.99369   0.00000  Uiso   1.00
C664   C     0.19253   0.53285   0.00212   0.00000  Uiso   1.00
C665   C     0.29637   0.64594   0.12993   0.00000  Uiso   1.00
C666   C     0.28820   0.68638   0.19593   0.00000  Uiso   1.00
C667   C     0.30877   0.68674   0.29687   0.00000  Uiso   1.00
H668   H     0.34995   0.53659   0.10466   0.00000  Uiso   1.00
H669   H     0.40506   0.54935   0.94479   0.00000  Uiso   1.00
H670   H     0.28638   0.47200   0.08820   0.00000  Uiso   1.00
H671   H     0.36613   0.57758   0.29041   0.00000  Uiso   1.00
H672   H     0.45392   0.58055   0.75269   0.00000  Uiso   1.00
H673   H     0.20369   0.41745   0.05512   0.00000  Uiso   1.00
H674   H     0.37185   0.64009   0.48152   0.00000  Uiso   1.00
H675   H     0.25573   0.66812   0.99041   0.00000  Uiso   1.00
H676   H     0.30567   0.68810   0.82427   0.00000  Uiso   1.00
H677   H     0.18699   0.61075   0.96768   0.00000  Uiso   1.00
H678   H     0.26674   0.71633   0.16988   0.00000  Uiso   1.00
H679   H     0.37325   0.69316   0.65487   0.00000  Uiso   1.00
H680   H     0.12302   0.53007   0.95730   0.00000  Uiso   1.00
H681   H     0.29118   0.75270   0.38369   0.00000  Uiso   1.00
O682   O     0.44813   0.64761   0.59653   0.00000  Uiso   1.00
O683   O     0.11983   0.43364   0.99333   0.00000  Uiso   1.00
O684   O     0.34047   0.72573   0.55274   0.00000  Uiso   1.00
N685   N     0.42809   0.60432   0.75248   0.00000  Uiso   1.00
N686   N     0.19413   0.45183   0.03522   0.00000  Uiso   1.00
N687   N     0.35135   0.65997   0.43387   0.00000  Uiso   1.00
N688   N     0.38468   0.66492   0.69985   0.00000  Uiso   1.00
N689   N     0.15073   0.51243   0.98258   0.00000  Uiso   1.00
N690   N     0.30794   0.72057   0.38124   0.00000  Uiso   1.00
C691   C     0.32836   0.06672   0.57848   0.00000  Uiso   1.00
C692   C     0.34524   0.09190   0.47578   0.00000  Uiso   1.00
C693   C     0.38361   0.07931   0.41875   0.00000  Uiso   1.00
C694   C     0.39328   0.10682   0.32678   0.00000  Uiso   1.00
C695   C     0.42370   0.14001   0.17240   0.00000  Uiso   1.00
C696   C     0.28076   0.04987   0.55369   0.00000  Uiso   1.00
C697   C     0.26492   0.00194   0.56217   0.00000  Uiso   1.00
C698   C     0.22031   0.99408   0.53580   0.00000  Uiso   1.00
C699   C     0.15061   0.96202   0.50245   0.00000  Uiso   1.00
C700   C     0.32410   0.10723   0.66355   0.00000  Uiso   1.00
C701   C     0.34468   0.10753   0.76442   0.00000  Uiso   1.00
C702   C     0.33655   0.14797   0.83055   0.00000  Uiso   1.00
C703   C     0.33413   0.20498   0.96777   0.00000  Uiso   1.00
C704   C     0.27732   0.13798   0.51658   0.00000  Uiso   1.00
C705   C     0.31751   0.13060   0.44216   0.00000  Uiso   1.00
C706   C     0.32713   0.15815   0.35026   0.00000  Uiso   1.00
C707   C     0.36551   0.14560   0.29310   0.00000  Uiso   1.00
C708   C     0.25304   0.08857   0.52007   0.00000  Uiso   1.00
C709   C     0.20844   0.08078   0.49369   0.00000  Uiso   1.00
C710   C     0.19253   0.03285   0.50212   0.00000  Uiso   1.00
C711   C     0.29637   0.14594   0.62993   0.00000  Uiso   1.00
C712   C     0.28820   0.18638   0.69593   0.00000  Uiso   1.00
C713   C     0.30877   0.18674   0.79687   0.00000  Uiso   1.00
H714   H     0.34995   0.03659   0.60466   0.00000  Uiso   1.00
H715   H     0.40506   0.04935   0.44479   0.00000  Uiso   1.00
H716   H     0.28638   0.97200   0.58820   0.00000  Uiso   1.00
H717   H     0.36613   0.07758   0.79041   0.00000  Uiso   1.00
H718   H     0.45392   0.08055   0.25269   0.00000  Uiso   1.00
H719   H     0.20369   0.91745   0.55512   0.00000  Uiso   1.00
H720   H     0.37185   0.14009   0.98152   0.00000  Uiso   1.00
H721   H     0.25573   0.16812   0.49041   0.00000  Uiso   1.00
H722   H     0.30567   0.18810   0.32427   0.00000  Uiso   1.00
H723   H     0.18699   0.11075   0.46768   0.00000  Uiso   1.00
H724   H     0.26674   0.21633   0.66988   0.00000  Uiso   1.00
H725   H     0.37325   0.19316   0.15487   0.00000  Uiso   1.00
H726   H     0.12302   0.03007   0.45730   0.00000  Uiso   1.00
H727   H     0.29118   0.25270   0.88369   0.00000  Uiso   1.00
O728   O     0.44813   0.14761   0.09653   0.00000  Uiso   1.00
O729   O     0.11983   0.93364   0.49333   0.00000  Uiso   1.00
O730   O     0.34047   0.22573   0.05274   0.00000  Uiso   1.00
N731   N     0.42809   0.10432   0.25248   0.00000  Uiso   1.00
N732   N     0.19413   0.95183   0.53522   0.00000  Uiso   1.00
N733   N     0.35135   0.15997   0.93387   0.00000  Uiso   1.00
N734   N     0.38468   0.16492   0.19985   0.00000  Uiso   1.00
N735   N     0.15073   0.01243   0.48258   0.00000  Uiso   1.00
N736   N     0.30794   0.22057   0.88124   0.00000  Uiso   1.00
