data_job_03795
_audit_creation_date              2018-12-19
_audit_creation_method            'Materials Studio'
_symmetry_space_group_name_H-M    'P1'
_symmetry_Int_Tables_number       1
_symmetry_cell_setting            triclinic
loop_
_symmetry_equiv_pos_as_xyz
  x,y,z
_cell_length_a                    22.8700
_cell_length_b                    22.8700
_cell_length_c                    29.6439
_cell_angle_alpha                 90.0000
_cell_angle_beta                  90.0000
_cell_angle_gamma                 90.0000
loop_
_atom_site_label
_atom_site_type_symbol
_atom_site_fract_x
_atom_site_fract_y
_atom_site_fract_z
_atom_site_U_iso_or_equiv
_atom_site_adp_type
_atom_site_occupancy
C1     C     0.17067   0.61580   0.44115   0.00000  Uiso   1.00
C2     C     0.18434   0.55410   0.45755   0.00000  Uiso   1.00
C3     C     0.23962   0.52939   0.46057   0.00000  Uiso   1.00
C4     C     0.24291   0.47234   0.47639   0.00000  Uiso   1.00
C5     C     0.27177   0.38127   0.49997   0.00000  Uiso   1.00
C6     C     0.12756   0.60879   0.40228   0.00000  Uiso   1.00
C7     C     0.13510   0.63007   0.35883   0.00000  Uiso   1.00
C8     C     0.09059   0.61908   0.32813   0.00000  Uiso   1.00
C9     C     0.03127   0.61295   0.26590   0.00000  Uiso   1.00
C10    C     0.13676   0.64519   0.47919   0.00000  Uiso   1.00
C11    C     0.15203   0.69710   0.50039   0.00000  Uiso   1.00
C12    C     0.11526   0.71676   0.53444   0.00000  Uiso   1.00
C13    C     0.07024   0.76716   0.59162   0.00000  Uiso   1.00
C14    C     0.07821   0.55843   0.46390   0.00000  Uiso   1.00
C15    C     0.13411   0.52294   0.46991   0.00000  Uiso   1.00
C16    C     0.13732   0.46592   0.48574   0.00000  Uiso   1.00
C17    C     0.19260   0.44113   0.48877   0.00000  Uiso   1.00
C18    C     0.07733   0.57763   0.41464   0.00000  Uiso   1.00
C19    C     0.03280   0.56661   0.38400   0.00000  Uiso   1.00
C20    C     0.04027   0.58786   0.34051   0.00000  Uiso   1.00
C21    C     0.08654   0.61404   0.49155   0.00000  Uiso   1.00
C22    C     0.04974   0.63363   0.52556   0.00000  Uiso   1.00
C23    C     0.06495   0.68555   0.54681   0.00000  Uiso   1.00
H24    H     0.20977   0.64006   0.43153   0.00000  Uiso   1.00
H25    H     0.27848   0.55351   0.45100   0.00000  Uiso   1.00
H26    H     0.17397   0.65419   0.34928   0.00000  Uiso   1.00
H27    H     0.19090   0.72120   0.49082   0.00000  Uiso   1.00
H28    H     0.33250   0.44381   0.47802   0.00000  Uiso   1.00
H29    H     0.11212   0.65611   0.26354   0.00000  Uiso   1.00
H30    H     0.14784   0.79742   0.56201   0.00000  Uiso   1.00
H31    H     0.03911   0.53417   0.47352   0.00000  Uiso   1.00
H32    H     0.09845   0.44182   0.49529   0.00000  Uiso   1.00
H33    H     0.99394   0.54249   0.39357   0.00000  Uiso   1.00
H34    H     0.01087   0.60950   0.53512   0.00000  Uiso   1.00
H35    H     0.18638   0.35316   0.51397   0.00000  Uiso   1.00
H36    H     0.96600   0.56546   0.29949   0.00000  Uiso   1.00
H37    H     0.00172   0.70676   0.59796   0.00000  Uiso   1.00
O38    O     0.30156   0.33964   0.50955   0.00000  Uiso   1.00
O39    O     0.01243   0.61817   0.22816   0.00000  Uiso   1.00
O40    O     0.05928   0.80356   0.61975   0.00000  Uiso   1.00
N41    N     0.28997   0.43516   0.48350   0.00000  Uiso   1.00
N42    N     0.08393   0.63364   0.28297   0.00000  Uiso   1.00
N43    N     0.11731   0.76575   0.56201   0.00000  Uiso   1.00
N44    N     0.21134   0.38638   0.50285   0.00000  Uiso   1.00
N45    N     0.00531   0.58485   0.30232   0.00000  Uiso   1.00
N46    N     0.03869   0.71697   0.58136   0.00000  Uiso   1.00
C47    C     0.67067   0.11580   0.94115   0.00000  Uiso   1.00
C48    C     0.68434   0.05410   0.95755   0.00000  Uiso   1.00
C49    C     0.73962   0.02939   0.96057   0.00000  Uiso   1.00
C50    C     0.74291   0.97234   0.97639   0.00000  Uiso   1.00
C51    C     0.77177   0.88127   0.99997   0.00000  Uiso   1.00
C52    C     0.62756   0.10879   0.90228   0.00000  Uiso   1.00
C53    C     0.63510   0.13007   0.85883   0.00000  Uiso   1.00
C54    C     0.59059   0.11908   0.82813   0.00000  Uiso   1.00
C55    C     0.53127   0.11295   0.76590   0.00000  Uiso   1.00
C56    C     0.63676   0.14519   0.97919   0.00000  Uiso   1.00
C57    C     0.65203   0.19710   0.00039   0.00000  Uiso   1.00
C58    C     0.61526   0.21676   0.03444   0.00000  Uiso   1.00
C59    C     0.57024   0.26716   0.09162   0.00000  Uiso   1.00
C60    C     0.57821   0.05843   0.96390   0.00000  Uiso   1.00
C61    C     0.63411   0.02294   0.96991   0.00000  Uiso   1.00
C62    C     0.63732   0.96592   0.98574   0.00000  Uiso   1.00
C63    C     0.69260   0.94113   0.98877   0.00000  Uiso   1.00
C64    C     0.57733   0.07763   0.91464   0.00000  Uiso   1.00
C65    C     0.53280   0.06661   0.88400   0.00000  Uiso   1.00
C66    C     0.54027   0.08786   0.84051   0.00000  Uiso   1.00
C67    C     0.58654   0.11404   0.99155   0.00000  Uiso   1.00
C68    C     0.54974   0.13363   0.02556   0.00000  Uiso   1.00
C69    C     0.56495   0.18555   0.04681   0.00000  Uiso   1.00
H70    H     0.70977   0.14006   0.93153   0.00000  Uiso   1.00
H71    H     0.77848   0.05351   0.95100   0.00000  Uiso   1.00
H72    H     0.67397   0.15419   0.84928   0.00000  Uiso   1.00
H73    H     0.69090   0.22120   0.99082   0.00000  Uiso   1.00
H74    H     0.83250   0.94381   0.97802   0.00000  Uiso   1.00
H75    H     0.61212   0.15611   0.76354   0.00000  Uiso   1.00
H76    H     0.64784   0.29742   0.06201   0.00000  Uiso   1.00
H77    H     0.53911   0.03417   0.97352   0.00000  Uiso   1.00
H78    H     0.59845   0.94182   0.99529   0.00000  Uiso   1.00
H79    H     0.49394   0.04249   0.89357   0.00000  Uiso   1.00
H80    H     0.51087   0.10950   0.03512   0.00000  Uiso   1.00
H81    H     0.68638   0.85316   0.01397   0.00000  Uiso   1.00
H82    H     0.46600   0.06546   0.79949   0.00000  Uiso   1.00
H83    H     0.50172   0.20676   0.09796   0.00000  Uiso   1.00
O84    O     0.80156   0.83964   0.00955   0.00000  Uiso   1.00
O85    O     0.51243   0.11817   0.72816   0.00000  Uiso   1.00
O86    O     0.55928   0.30356   0.11975   0.00000  Uiso   1.00
N87    N     0.78997   0.93516   0.98350   0.00000  Uiso   1.00
N88    N     0.58393   0.13364   0.78297   0.00000  Uiso   1.00
N89    N     0.61731   0.26575   0.06201   0.00000  Uiso   1.00
N90    N     0.71134   0.88638   0.00285   0.00000  Uiso   1.00
N91    N     0.50531   0.08485   0.80232   0.00000  Uiso   1.00
N92    N     0.53869   0.21697   0.08136   0.00000  Uiso   1.00
C93    C     0.32933   0.88420   0.94115   0.00000  Uiso   1.00
C94    C     0.31566   0.94590   0.95755   0.00000  Uiso   1.00
C95    C     0.26038   0.97061   0.96057   0.00000  Uiso   1.00
C96    C     0.25709   0.02766   0.97639   0.00000  Uiso   1.00
C97    C     0.22823   0.11873   0.99997   0.00000  Uiso   1.00
C98    C     0.37244   0.89121   0.90228   0.00000  Uiso   1.00
C99    C     0.36490   0.86993   0.85883   0.00000  Uiso   1.00
C100   C     0.40941   0.88092   0.82813   0.00000  Uiso   1.00
C101   C     0.46873   0.88705   0.76590   0.00000  Uiso   1.00
C102   C     0.36324   0.85481   0.97919   0.00000  Uiso   1.00
C103   C     0.34797   0.80290   0.00039   0.00000  Uiso   1.00
C104   C     0.38474   0.78324   0.03444   0.00000  Uiso   1.00
C105   C     0.42976   0.73284   0.09162   0.00000  Uiso   1.00
C106   C     0.42179   0.94157   0.96390   0.00000  Uiso   1.00
C107   C     0.36589   0.97706   0.96991   0.00000  Uiso   1.00
C108   C     0.36268   0.03408   0.98574   0.00000  Uiso   1.00
C109   C     0.30740   0.05887   0.98877   0.00000  Uiso   1.00
C110   C     0.42267   0.92237   0.91464   0.00000  Uiso   1.00
C111   C     0.46720   0.93339   0.88400   0.00000  Uiso   1.00
C112   C     0.45973   0.91214   0.84051   0.00000  Uiso   1.00
C113   C     0.41346   0.88596   0.99155   0.00000  Uiso   1.00
C114   C     0.45026   0.86637   0.02556   0.00000  Uiso   1.00
C115   C     0.43505   0.81445   0.04681   0.00000  Uiso   1.00
H116   H     0.29023   0.85994   0.93153   0.00000  Uiso   1.00
H117   H     0.22152   0.94649   0.95100   0.00000  Uiso   1.00
H118   H     0.32603   0.84581   0.84928   0.00000  Uiso   1.00
H119   H     0.30910   0.77880   0.99082   0.00000  Uiso   1.00
H120   H     0.16750   0.05619   0.97802   0.00000  Uiso   1.00
H121   H     0.38788   0.84389   0.76354   0.00000  Uiso   1.00
H122   H     0.35216   0.70258   0.06201   0.00000  Uiso   1.00
H123   H     0.46089   0.96583   0.97352   0.00000  Uiso   1.00
H124   H     0.40155   0.05818   0.99529   0.00000  Uiso   1.00
H125   H     0.50606   0.95751   0.89357   0.00000  Uiso   1.00
H126   H     0.48913   0.89050   0.03512   0.00000  Uiso   1.00
H127   H     0.31362   0.14684   0.01397   0.00000  Uiso   1.00
H128   H     0.53400   0.93454   0.79949   0.00000  Uiso   1.00
H129   H     0.49828   0.79324   0.09796   0.00000  Uiso   1.00
O130   O     0.19844   0.16036   0.00955   0.00000  Uiso   1.00
O131   O     0.48757   0.88183   0.72816   0.00000  Uiso   1.00
O132   O     0.44072   0.69644   0.11975   0.00000  Uiso   1.00
N133   N     0.21003   0.06484   0.98350   0.00000  Uiso   1.00
N134   N     0.41607   0.86636   0.78297   0.00000  Uiso   1.00
N135   N     0.38269   0.73425   0.06201   0.00000  Uiso   1.00
N136   N     0.28866   0.11362   0.00285   0.00000  Uiso   1.00
N137   N     0.49469   0.91515   0.80232   0.00000  Uiso   1.00
N138   N     0.46131   0.78303   0.08136   0.00000  Uiso   1.00
C139   C     0.82933   0.38420   0.44115   0.00000  Uiso   1.00
C140   C     0.81566   0.44590   0.45755   0.00000  Uiso   1.00
C141   C     0.76038   0.47061   0.46057   0.00000  Uiso   1.00
C142   C     0.75709   0.52766   0.47639   0.00000  Uiso   1.00
C143   C     0.72823   0.61873   0.49997   0.00000  Uiso   1.00
C144   C     0.87244   0.39121   0.40228   0.00000  Uiso   1.00
C145   C     0.86490   0.36993   0.35883   0.00000  Uiso   1.00
C146   C     0.90941   0.38092   0.32813   0.00000  Uiso   1.00
C147   C     0.96873   0.38705   0.26590   0.00000  Uiso   1.00
C148   C     0.86324   0.35481   0.47919   0.00000  Uiso   1.00
C149   C     0.84797   0.30290   0.50039   0.00000  Uiso   1.00
C150   C     0.88474   0.28324   0.53444   0.00000  Uiso   1.00
C151   C     0.92976   0.23284   0.59162   0.00000  Uiso   1.00
C152   C     0.92179   0.44157   0.46390   0.00000  Uiso   1.00
C153   C     0.86589   0.47706   0.46991   0.00000  Uiso   1.00
C154   C     0.86268   0.53408   0.48574   0.00000  Uiso   1.00
C155   C     0.80740   0.55887   0.48877   0.00000  Uiso   1.00
C156   C     0.92267   0.42237   0.41464   0.00000  Uiso   1.00
C157   C     0.96720   0.43339   0.38400   0.00000  Uiso   1.00
C158   C     0.95973   0.41214   0.34051   0.00000  Uiso   1.00
C159   C     0.91346   0.38596   0.49155   0.00000  Uiso   1.00
C160   C     0.95026   0.36637   0.52556   0.00000  Uiso   1.00
C161   C     0.93505   0.31445   0.54681   0.00000  Uiso   1.00
H162   H     0.79023   0.35994   0.43153   0.00000  Uiso   1.00
H163   H     0.72152   0.44649   0.45100   0.00000  Uiso   1.00
H164   H     0.82603   0.34581   0.34928   0.00000  Uiso   1.00
H165   H     0.80910   0.27880   0.49082   0.00000  Uiso   1.00
H166   H     0.66750   0.55619   0.47802   0.00000  Uiso   1.00
H167   H     0.88788   0.34389   0.26354   0.00000  Uiso   1.00
H168   H     0.85216   0.20258   0.56201   0.00000  Uiso   1.00
H169   H     0.96089   0.46583   0.47352   0.00000  Uiso   1.00
H170   H     0.90155   0.55818   0.49529   0.00000  Uiso   1.00
H171   H     0.00606   0.45751   0.39357   0.00000  Uiso   1.00
H172   H     0.98913   0.39050   0.53512   0.00000  Uiso   1.00
H173   H     0.81362   0.64684   0.51397   0.00000  Uiso   1.00
H174   H     0.03400   0.43454   0.29949   0.00000  Uiso   1.00
H175   H     0.99828   0.29324   0.59796   0.00000  Uiso   1.00
O176   O     0.69844   0.66036   0.50955   0.00000  Uiso   1.00
O177   O     0.98757   0.38183   0.22816   0.00000  Uiso   1.00
O178   O     0.94072   0.19644   0.61975   0.00000  Uiso   1.00
N179   N     0.71003   0.56484   0.48350   0.00000  Uiso   1.00
N180   N     0.91607   0.36636   0.28297   0.00000  Uiso   1.00
N181   N     0.88269   0.23425   0.56201   0.00000  Uiso   1.00
N182   N     0.78866   0.61362   0.50285   0.00000  Uiso   1.00
N183   N     0.99469   0.41515   0.30232   0.00000  Uiso   1.00
N184   N     0.96131   0.28303   0.58136   0.00000  Uiso   1.00
C185   C     0.38420   0.67067   0.69115   0.00000  Uiso   1.00
C186   C     0.44590   0.68434   0.70755   0.00000  Uiso   1.00
C187   C     0.47061   0.73962   0.71057   0.00000  Uiso   1.00
C188   C     0.52766   0.74291   0.72639   0.00000  Uiso   1.00
C189   C     0.61873   0.77177   0.74997   0.00000  Uiso   1.00
C190   C     0.39121   0.62756   0.65228   0.00000  Uiso   1.00
C191   C     0.36993   0.63510   0.60883   0.00000  Uiso   1.00
C192   C     0.38092   0.59059   0.57813   0.00000  Uiso   1.00
C193   C     0.38705   0.53127   0.51590   0.00000  Uiso   1.00
C194   C     0.35481   0.63676   0.72919   0.00000  Uiso   1.00
C195   C     0.30290   0.65203   0.75039   0.00000  Uiso   1.00
C196   C     0.28324   0.61526   0.78444   0.00000  Uiso   1.00
C197   C     0.23284   0.57024   0.84162   0.00000  Uiso   1.00
C198   C     0.44157   0.57821   0.71390   0.00000  Uiso   1.00
C199   C     0.47706   0.63411   0.71991   0.00000  Uiso   1.00
C200   C     0.53408   0.63732   0.73574   0.00000  Uiso   1.00
C201   C     0.55887   0.69260   0.73877   0.00000  Uiso   1.00
C202   C     0.42237   0.57733   0.66464   0.00000  Uiso   1.00
C203   C     0.43339   0.53280   0.63400   0.00000  Uiso   1.00
C204   C     0.41214   0.54027   0.59051   0.00000  Uiso   1.00
C205   C     0.38596   0.58654   0.74155   0.00000  Uiso   1.00
C206   C     0.36637   0.54974   0.77556   0.00000  Uiso   1.00
C207   C     0.31445   0.56495   0.79681   0.00000  Uiso   1.00
H208   H     0.35994   0.70977   0.68153   0.00000  Uiso   1.00
H209   H     0.44649   0.77848   0.70100   0.00000  Uiso   1.00
H210   H     0.34581   0.67397   0.59928   0.00000  Uiso   1.00
H211   H     0.27880   0.69090   0.74082   0.00000  Uiso   1.00
H212   H     0.55619   0.83250   0.72802   0.00000  Uiso   1.00
H213   H     0.34389   0.61212   0.51354   0.00000  Uiso   1.00
H214   H     0.20258   0.64784   0.81201   0.00000  Uiso   1.00
H215   H     0.46583   0.53911   0.72352   0.00000  Uiso   1.00
H216   H     0.55818   0.59845   0.74529   0.00000  Uiso   1.00
H217   H     0.45751   0.49394   0.64357   0.00000  Uiso   1.00
H218   H     0.39050   0.51087   0.78512   0.00000  Uiso   1.00
H219   H     0.64684   0.68638   0.76397   0.00000  Uiso   1.00
H220   H     0.43454   0.46600   0.54949   0.00000  Uiso   1.00
H221   H     0.29324   0.50172   0.84796   0.00000  Uiso   1.00
O222   O     0.66036   0.80156   0.75955   0.00000  Uiso   1.00
O223   O     0.38183   0.51243   0.47816   0.00000  Uiso   1.00
O224   O     0.19644   0.55928   0.86975   0.00000  Uiso   1.00
N225   N     0.56484   0.78997   0.73350   0.00000  Uiso   1.00
N226   N     0.36636   0.58393   0.53297   0.00000  Uiso   1.00
N227   N     0.23425   0.61731   0.81201   0.00000  Uiso   1.00
N228   N     0.61362   0.71134   0.75285   0.00000  Uiso   1.00
N229   N     0.41515   0.50531   0.55232   0.00000  Uiso   1.00
N230   N     0.28303   0.53869   0.83136   0.00000  Uiso   1.00
C231   C     0.88420   0.17067   0.19115   0.00000  Uiso   1.00
C232   C     0.94590   0.18434   0.20755   0.00000  Uiso   1.00
C233   C     0.97061   0.23962   0.21057   0.00000  Uiso   1.00
C234   C     0.02766   0.24291   0.22639   0.00000  Uiso   1.00
C235   C     0.11873   0.27177   0.24997   0.00000  Uiso   1.00
C236   C     0.89121   0.12756   0.15228   0.00000  Uiso   1.00
C237   C     0.86993   0.13510   0.10883   0.00000  Uiso   1.00
C238   C     0.88092   0.09059   0.07813   0.00000  Uiso   1.00
C239   C     0.88705   0.03127   0.01590   0.00000  Uiso   1.00
C240   C     0.85481   0.13676   0.22919   0.00000  Uiso   1.00
C241   C     0.80290   0.15203   0.25039   0.00000  Uiso   1.00
C242   C     0.78324   0.11526   0.28444   0.00000  Uiso   1.00
C243   C     0.73284   0.07024   0.34162   0.00000  Uiso   1.00
C244   C     0.94157   0.07821   0.21390   0.00000  Uiso   1.00
C245   C     0.97706   0.13411   0.21991   0.00000  Uiso   1.00
C246   C     0.03408   0.13732   0.23574   0.00000  Uiso   1.00
C247   C     0.05887   0.19260   0.23877   0.00000  Uiso   1.00
C248   C     0.92237   0.07733   0.16464   0.00000  Uiso   1.00
C249   C     0.93339   0.03280   0.13400   0.00000  Uiso   1.00
C250   C     0.91214   0.04027   0.09051   0.00000  Uiso   1.00
C251   C     0.88596   0.08654   0.24155   0.00000  Uiso   1.00
C252   C     0.86637   0.04974   0.27556   0.00000  Uiso   1.00
C253   C     0.81445   0.06495   0.29681   0.00000  Uiso   1.00
H254   H     0.85994   0.20977   0.18153   0.00000  Uiso   1.00
H255   H     0.94649   0.27848   0.20100   0.00000  Uiso   1.00
H256   H     0.84581   0.17397   0.09928   0.00000  Uiso   1.00
H257   H     0.77880   0.19090   0.24082   0.00000  Uiso   1.00
H258   H     0.05619   0.33250   0.22802   0.00000  Uiso   1.00
H259   H     0.84389   0.11212   0.01354   0.00000  Uiso   1.00
H260   H     0.70258   0.14784   0.31201   0.00000  Uiso   1.00
H261   H     0.96583   0.03911   0.22352   0.00000  Uiso   1.00
H262   H     0.05818   0.09845   0.24529   0.00000  Uiso   1.00
H263   H     0.95751   0.99394   0.14357   0.00000  Uiso   1.00
H264   H     0.89050   0.01087   0.28512   0.00000  Uiso   1.00
H265   H     0.14684   0.18638   0.26397   0.00000  Uiso   1.00
H266   H     0.93454   0.96600   0.04949   0.00000  Uiso   1.00
H267   H     0.79324   0.00172   0.34796   0.00000  Uiso   1.00
O268   O     0.16036   0.30156   0.25955   0.00000  Uiso   1.00
O269   O     0.88183   0.01243   0.97816   0.00000  Uiso   1.00
O270   O     0.69644   0.05928   0.36975   0.00000  Uiso   1.00
N271   N     0.06484   0.28997   0.23350   0.00000  Uiso   1.00
N272   N     0.86636   0.08393   0.03297   0.00000  Uiso   1.00
N273   N     0.73425   0.11731   0.31201   0.00000  Uiso   1.00
N274   N     0.11362   0.21134   0.25285   0.00000  Uiso   1.00
N275   N     0.91515   0.00531   0.05232   0.00000  Uiso   1.00
N276   N     0.78303   0.03869   0.33136   0.00000  Uiso   1.00
C277   C     0.11580   0.82933   0.19115   0.00000  Uiso   1.00
C278   C     0.05410   0.81566   0.20755   0.00000  Uiso   1.00
C279   C     0.02939   0.76038   0.21057   0.00000  Uiso   1.00
C280   C     0.97234   0.75709   0.22639   0.00000  Uiso   1.00
C281   C     0.88127   0.72823   0.24997   0.00000  Uiso   1.00
C282   C     0.10879   0.87244   0.15228   0.00000  Uiso   1.00
C283   C     0.13007   0.86490   0.10883   0.00000  Uiso   1.00
C284   C     0.11908   0.90941   0.07813   0.00000  Uiso   1.00
C285   C     0.11295   0.96873   0.01590   0.00000  Uiso   1.00
C286   C     0.14519   0.86324   0.22919   0.00000  Uiso   1.00
C287   C     0.19710   0.84797   0.25039   0.00000  Uiso   1.00
C288   C     0.21676   0.88474   0.28444   0.00000  Uiso   1.00
C289   C     0.26716   0.92976   0.34162   0.00000  Uiso   1.00
C290   C     0.05843   0.92179   0.21390   0.00000  Uiso   1.00
C291   C     0.02294   0.86589   0.21991   0.00000  Uiso   1.00
C292   C     0.96592   0.86268   0.23574   0.00000  Uiso   1.00
C293   C     0.94113   0.80740   0.23877   0.00000  Uiso   1.00
C294   C     0.07763   0.92267   0.16464   0.00000  Uiso   1.00
C295   C     0.06661   0.96720   0.13400   0.00000  Uiso   1.00
C296   C     0.08786   0.95973   0.09051   0.00000  Uiso   1.00
C297   C     0.11404   0.91346   0.24155   0.00000  Uiso   1.00
C298   C     0.13363   0.95026   0.27556   0.00000  Uiso   1.00
C299   C     0.18555   0.93505   0.29681   0.00000  Uiso   1.00
H300   H     0.14006   0.79023   0.18153   0.00000  Uiso   1.00
H301   H     0.05351   0.72152   0.20100   0.00000  Uiso   1.00
H302   H     0.15419   0.82603   0.09928   0.00000  Uiso   1.00
H303   H     0.22120   0.80910   0.24082   0.00000  Uiso   1.00
H304   H     0.94381   0.66750   0.22802   0.00000  Uiso   1.00
H305   H     0.15611   0.88788   0.01354   0.00000  Uiso   1.00
H306   H     0.29742   0.85216   0.31201   0.00000  Uiso   1.00
H307   H     0.03417   0.96089   0.22352   0.00000  Uiso   1.00
H308   H     0.94182   0.90155   0.24529   0.00000  Uiso   1.00
H309   H     0.04249   0.00606   0.14357   0.00000  Uiso   1.00
H310   H     0.10950   0.98913   0.28512   0.00000  Uiso   1.00
H311   H     0.85316   0.81362   0.26397   0.00000  Uiso   1.00
H312   H     0.06546   0.03400   0.04949   0.00000  Uiso   1.00
H313   H     0.20676   0.99828   0.34796   0.00000  Uiso   1.00
O314   O     0.83964   0.69844   0.25955   0.00000  Uiso   1.00
O315   O     0.11817   0.98757   0.97816   0.00000  Uiso   1.00
O316   O     0.30356   0.94072   0.36975   0.00000  Uiso   1.00
N317   N     0.93516   0.71003   0.23350   0.00000  Uiso   1.00
N318   N     0.13364   0.91607   0.03297   0.00000  Uiso   1.00
N319   N     0.26575   0.88269   0.31201   0.00000  Uiso   1.00
N320   N     0.88638   0.78866   0.25285   0.00000  Uiso   1.00
N321   N     0.08485   0.99469   0.05232   0.00000  Uiso   1.00
N322   N     0.21697   0.96131   0.33136   0.00000  Uiso   1.00
C323   C     0.61580   0.32933   0.69115   0.00000  Uiso   1.00
C324   C     0.55410   0.31566   0.70755   0.00000  Uiso   1.00
C325   C     0.52939   0.26038   0.71057   0.00000  Uiso   1.00
C326   C     0.47234   0.25709   0.72639   0.00000  Uiso   1.00
C327   C     0.38127   0.22823   0.74997   0.00000  Uiso   1.00
C328   C     0.60879   0.37244   0.65228   0.00000  Uiso   1.00
C329   C     0.63007   0.36490   0.60883   0.00000  Uiso   1.00
C330   C     0.61908   0.40941   0.57813   0.00000  Uiso   1.00
C331   C     0.61295   0.46873   0.51590   0.00000  Uiso   1.00
C332   C     0.64519   0.36324   0.72919   0.00000  Uiso   1.00
C333   C     0.69710   0.34797   0.75039   0.00000  Uiso   1.00
C334   C     0.71676   0.38474   0.78444   0.00000  Uiso   1.00
C335   C     0.76716   0.42976   0.84162   0.00000  Uiso   1.00
C336   C     0.55843   0.42179   0.71390   0.00000  Uiso   1.00
C337   C     0.52294   0.36589   0.71991   0.00000  Uiso   1.00
C338   C     0.46592   0.36268   0.73574   0.00000  Uiso   1.00
C339   C     0.44113   0.30740   0.73877   0.00000  Uiso   1.00
C340   C     0.57763   0.42267   0.66464   0.00000  Uiso   1.00
C341   C     0.56661   0.46720   0.63400   0.00000  Uiso   1.00
C342   C     0.58786   0.45973   0.59051   0.00000  Uiso   1.00
C343   C     0.61404   0.41346   0.74155   0.00000  Uiso   1.00
C344   C     0.63363   0.45026   0.77556   0.00000  Uiso   1.00
C345   C     0.68555   0.43505   0.79681   0.00000  Uiso   1.00
H346   H     0.64006   0.29023   0.68153   0.00000  Uiso   1.00
H347   H     0.55351   0.22152   0.70100   0.00000  Uiso   1.00
H348   H     0.65419   0.32603   0.59928   0.00000  Uiso   1.00
H349   H     0.72120   0.30910   0.74082   0.00000  Uiso   1.00
H350   H     0.44381   0.16750   0.72802   0.00000  Uiso   1.00
H351   H     0.65611   0.38788   0.51354   0.00000  Uiso   1.00
H352   H     0.79742   0.35216   0.81201   0.00000  Uiso   1.00
H353   H     0.53417   0.46089   0.72352   0.00000  Uiso   1.00
H354   H     0.44182   0.40155   0.74529   0.00000  Uiso   1.00
H355   H     0.54249   0.50606   0.64357   0.00000  Uiso   1.00
H356   H     0.60950   0.48913   0.78512   0.00000  Uiso   1.00
H357   H     0.35316   0.31362   0.76397   0.00000  Uiso   1.00
H358   H     0.56546   0.53400   0.54949   0.00000  Uiso   1.00
H359   H     0.70676   0.49828   0.84796   0.00000  Uiso   1.00
O360   O     0.33964   0.19844   0.75955   0.00000  Uiso   1.00
O361   O     0.61817   0.48757   0.47816   0.00000  Uiso   1.00
O362   O     0.80356   0.44072   0.86975   0.00000  Uiso   1.00
N363   N     0.43516   0.21003   0.73350   0.00000  Uiso   1.00
N364   N     0.63364   0.41607   0.53297   0.00000  Uiso   1.00
N365   N     0.76575   0.38269   0.81201   0.00000  Uiso   1.00
N366   N     0.38638   0.28866   0.75285   0.00000  Uiso   1.00
N367   N     0.58485   0.49469   0.55232   0.00000  Uiso   1.00
N368   N     0.71697   0.46131   0.83136   0.00000  Uiso   1.00
C369   C     0.82933   0.88420   0.80885   0.00000  Uiso   1.00
C370   C     0.81566   0.94590   0.79245   0.00000  Uiso   1.00
C371   C     0.76038   0.97061   0.78943   0.00000  Uiso   1.00
C372   C     0.75709   0.02766   0.77361   0.00000  Uiso   1.00
C373   C     0.72823   0.11873   0.75003   0.00000  Uiso   1.00
C374   C     0.87244   0.89121   0.84772   0.00000  Uiso   1.00
C375   C     0.86490   0.86993   0.89117   0.00000  Uiso   1.00
C376   C     0.90941   0.88092   0.92187   0.00000  Uiso   1.00
C377   C     0.96873   0.88705   0.98410   0.00000  Uiso   1.00
C378   C     0.86324   0.85481   0.77081   0.00000  Uiso   1.00
C379   C     0.84797   0.80290   0.74961   0.00000  Uiso   1.00
C380   C     0.88474   0.78324   0.71556   0.00000  Uiso   1.00
C381   C     0.92976   0.73284   0.65838   0.00000  Uiso   1.00
C382   C     0.92179   0.94157   0.78610   0.00000  Uiso   1.00
C383   C     0.86589   0.97706   0.78009   0.00000  Uiso   1.00
C384   C     0.86268   0.03408   0.76426   0.00000  Uiso   1.00
C385   C     0.80740   0.05887   0.76123   0.00000  Uiso   1.00
C386   C     0.92267   0.92237   0.83536   0.00000  Uiso   1.00
C387   C     0.96720   0.93339   0.86600   0.00000  Uiso   1.00
C388   C     0.95973   0.91214   0.90949   0.00000  Uiso   1.00
C389   C     0.91346   0.88596   0.75845   0.00000  Uiso   1.00
C390   C     0.95026   0.86637   0.72444   0.00000  Uiso   1.00
C391   C     0.93505   0.81445   0.70319   0.00000  Uiso   1.00
H392   H     0.79023   0.85994   0.81847   0.00000  Uiso   1.00
H393   H     0.72152   0.94649   0.79900   0.00000  Uiso   1.00
H394   H     0.82603   0.84581   0.90072   0.00000  Uiso   1.00
H395   H     0.80910   0.77880   0.75918   0.00000  Uiso   1.00
H396   H     0.66750   0.05619   0.77198   0.00000  Uiso   1.00
H397   H     0.88788   0.84389   0.98646   0.00000  Uiso   1.00
H398   H     0.85216   0.70258   0.68799   0.00000  Uiso   1.00
H399   H     0.96089   0.96583   0.77648   0.00000  Uiso   1.00
H400   H     0.90155   0.05818   0.75471   0.00000  Uiso   1.00
H401   H     0.00606   0.95751   0.85643   0.00000  Uiso   1.00
H402   H     0.98913   0.89050   0.71488   0.00000  Uiso   1.00
H403   H     0.81362   0.14684   0.73603   0.00000  Uiso   1.00
H404   H     0.03400   0.93454   0.95051   0.00000  Uiso   1.00
H405   H     0.99828   0.79324   0.65204   0.00000  Uiso   1.00
O406   O     0.69844   0.16036   0.74045   0.00000  Uiso   1.00
O407   O     0.98757   0.88183   0.02184   0.00000  Uiso   1.00
O408   O     0.94072   0.69644   0.63025   0.00000  Uiso   1.00
N409   N     0.71003   0.06484   0.76650   0.00000  Uiso   1.00
N410   N     0.91607   0.86636   0.96703   0.00000  Uiso   1.00
N411   N     0.88269   0.73425   0.68799   0.00000  Uiso   1.00
N412   N     0.78866   0.11362   0.74715   0.00000  Uiso   1.00
N413   N     0.99469   0.91515   0.94768   0.00000  Uiso   1.00
N414   N     0.96131   0.78303   0.66864   0.00000  Uiso   1.00
C415   C     0.32933   0.38420   0.30885   0.00000  Uiso   1.00
C416   C     0.31566   0.44590   0.29245   0.00000  Uiso   1.00
C417   C     0.26038   0.47061   0.28943   0.00000  Uiso   1.00
C418   C     0.25709   0.52766   0.27361   0.00000  Uiso   1.00
C419   C     0.22823   0.61873   0.25003   0.00000  Uiso   1.00
C420   C     0.37244   0.39121   0.34772   0.00000  Uiso   1.00
C421   C     0.36490   0.36993   0.39117   0.00000  Uiso   1.00
C422   C     0.40941   0.38092   0.42187   0.00000  Uiso   1.00
C423   C     0.46873   0.38705   0.48410   0.00000  Uiso   1.00
C424   C     0.36324   0.35481   0.27081   0.00000  Uiso   1.00
C425   C     0.34797   0.30290   0.24961   0.00000  Uiso   1.00
C426   C     0.38474   0.28324   0.21556   0.00000  Uiso   1.00
C427   C     0.42976   0.23284   0.15838   0.00000  Uiso   1.00
C428   C     0.42179   0.44157   0.28610   0.00000  Uiso   1.00
C429   C     0.36589   0.47706   0.28009   0.00000  Uiso   1.00
C430   C     0.36268   0.53408   0.26426   0.00000  Uiso   1.00
C431   C     0.30740   0.55887   0.26123   0.00000  Uiso   1.00
C432   C     0.42267   0.42237   0.33536   0.00000  Uiso   1.00
C433   C     0.46720   0.43339   0.36600   0.00000  Uiso   1.00
C434   C     0.45973   0.41214   0.40949   0.00000  Uiso   1.00
C435   C     0.41346   0.38596   0.25845   0.00000  Uiso   1.00
C436   C     0.45026   0.36637   0.22444   0.00000  Uiso   1.00
C437   C     0.43505   0.31445   0.20319   0.00000  Uiso   1.00
H438   H     0.29023   0.35994   0.31847   0.00000  Uiso   1.00
H439   H     0.22152   0.44649   0.29900   0.00000  Uiso   1.00
H440   H     0.32603   0.34581   0.40072   0.00000  Uiso   1.00
H441   H     0.30910   0.27880   0.25918   0.00000  Uiso   1.00
H442   H     0.16750   0.55619   0.27198   0.00000  Uiso   1.00
H443   H     0.38788   0.34389   0.48646   0.00000  Uiso   1.00
H444   H     0.35216   0.20258   0.18799   0.00000  Uiso   1.00
H445   H     0.46089   0.46583   0.27648   0.00000  Uiso   1.00
H446   H     0.40155   0.55818   0.25471   0.00000  Uiso   1.00
H447   H     0.50606   0.45751   0.35643   0.00000  Uiso   1.00
H448   H     0.48913   0.39050   0.21488   0.00000  Uiso   1.00
H449   H     0.31362   0.64684   0.23603   0.00000  Uiso   1.00
H450   H     0.53400   0.43454   0.45051   0.00000  Uiso   1.00
H451   H     0.49828   0.29324   0.15204   0.00000  Uiso   1.00
O452   O     0.19844   0.66036   0.24045   0.00000  Uiso   1.00
O453   O     0.48757   0.38183   0.52184   0.00000  Uiso   1.00
O454   O     0.44072   0.19644   0.13025   0.00000  Uiso   1.00
N455   N     0.21003   0.56484   0.26650   0.00000  Uiso   1.00
N456   N     0.41607   0.36636   0.46703   0.00000  Uiso   1.00
N457   N     0.38269   0.23425   0.18799   0.00000  Uiso   1.00
N458   N     0.28866   0.61362   0.24715   0.00000  Uiso   1.00
N459   N     0.49469   0.41515   0.44768   0.00000  Uiso   1.00
N460   N     0.46131   0.28303   0.16864   0.00000  Uiso   1.00
C461   C     0.67067   0.61580   0.30885   0.00000  Uiso   1.00
C462   C     0.68434   0.55410   0.29245   0.00000  Uiso   1.00
C463   C     0.73962   0.52939   0.28943   0.00000  Uiso   1.00
C464   C     0.74291   0.47234   0.27361   0.00000  Uiso   1.00
C465   C     0.77177   0.38127   0.25003   0.00000  Uiso   1.00
C466   C     0.62756   0.60879   0.34772   0.00000  Uiso   1.00
C467   C     0.63510   0.63007   0.39117   0.00000  Uiso   1.00
C468   C     0.59059   0.61908   0.42187   0.00000  Uiso   1.00
C469   C     0.53127   0.61295   0.48410   0.00000  Uiso   1.00
C470   C     0.63676   0.64519   0.27081   0.00000  Uiso   1.00
C471   C     0.65203   0.69710   0.24961   0.00000  Uiso   1.00
C472   C     0.61526   0.71676   0.21556   0.00000  Uiso   1.00
C473   C     0.57024   0.76716   0.15838   0.00000  Uiso   1.00
C474   C     0.57821   0.55843   0.28610   0.00000  Uiso   1.00
C475   C     0.63411   0.52294   0.28009   0.00000  Uiso   1.00
C476   C     0.63732   0.46592   0.26426   0.00000  Uiso   1.00
C477   C     0.69260   0.44113   0.26123   0.00000  Uiso   1.00
C478   C     0.57733   0.57763   0.33536   0.00000  Uiso   1.00
C479   C     0.53280   0.56661   0.36600   0.00000  Uiso   1.00
C480   C     0.54027   0.58786   0.40949   0.00000  Uiso   1.00
C481   C     0.58654   0.61404   0.25845   0.00000  Uiso   1.00
C482   C     0.54974   0.63363   0.22444   0.00000  Uiso   1.00
C483   C     0.56495   0.68555   0.20319   0.00000  Uiso   1.00
H484   H     0.70977   0.64006   0.31847   0.00000  Uiso   1.00
H485   H     0.77848   0.55351   0.29900   0.00000  Uiso   1.00
H486   H     0.67397   0.65419   0.40072   0.00000  Uiso   1.00
H487   H     0.69090   0.72120   0.25918   0.00000  Uiso   1.00
H488   H     0.83250   0.44381   0.27198   0.00000  Uiso   1.00
H489   H     0.61212   0.65611   0.48646   0.00000  Uiso   1.00
H490   H     0.64784   0.79742   0.18799   0.00000  Uiso   1.00
H491   H     0.53911   0.53417   0.27648   0.00000  Uiso   1.00
H492   H     0.59845   0.44182   0.25471   0.00000  Uiso   1.00
H493   H     0.49394   0.54249   0.35643   0.00000  Uiso   1.00
H494   H     0.51087   0.60950   0.21488   0.00000  Uiso   1.00
H495   H     0.68638   0.35316   0.23603   0.00000  Uiso   1.00
H496   H     0.46600   0.56546   0.45051   0.00000  Uiso   1.00
H497   H     0.50172   0.70676   0.15204   0.00000  Uiso   1.00
O498   O     0.80156   0.33964   0.24045   0.00000  Uiso   1.00
O499   O     0.51243   0.61817   0.52184   0.00000  Uiso   1.00
O500   O     0.55928   0.80356   0.13025   0.00000  Uiso   1.00
N501   N     0.78997   0.43516   0.26650   0.00000  Uiso   1.00
N502   N     0.58393   0.63364   0.46703   0.00000  Uiso   1.00
N503   N     0.61731   0.76575   0.18799   0.00000  Uiso   1.00
N504   N     0.71134   0.38638   0.24715   0.00000  Uiso   1.00
N505   N     0.50531   0.58485   0.44768   0.00000  Uiso   1.00
N506   N     0.53869   0.71697   0.16864   0.00000  Uiso   1.00
C507   C     0.17067   0.11580   0.80885   0.00000  Uiso   1.00
C508   C     0.18434   0.05410   0.79245   0.00000  Uiso   1.00
C509   C     0.23962   0.02939   0.78943   0.00000  Uiso   1.00
C510   C     0.24291   0.97234   0.77361   0.00000  Uiso   1.00
C511   C     0.27177   0.88127   0.75003   0.00000  Uiso   1.00
C512   C     0.12756   0.10879   0.84772   0.00000  Uiso   1.00
C513   C     0.13510   0.13007   0.89117   0.00000  Uiso   1.00
C514   C     0.09059   0.11908   0.92187   0.00000  Uiso   1.00
C515   C     0.03127   0.11295   0.98410   0.00000  Uiso   1.00
C516   C     0.13676   0.14519   0.77081   0.00000  Uiso   1.00
C517   C     0.15203   0.19710   0.74961   0.00000  Uiso   1.00
C518   C     0.11526   0.21676   0.71556   0.00000  Uiso   1.00
C519   C     0.07024   0.26716   0.65838   0.00000  Uiso   1.00
C520   C     0.07821   0.05843   0.78610   0.00000  Uiso   1.00
C521   C     0.13411   0.02294   0.78009   0.00000  Uiso   1.00
C522   C     0.13732   0.96592   0.76426   0.00000  Uiso   1.00
C523   C     0.19260   0.94113   0.76123   0.00000  Uiso   1.00
C524   C     0.07733   0.07763   0.83536   0.00000  Uiso   1.00
C525   C     0.03280   0.06661   0.86600   0.00000  Uiso   1.00
C526   C     0.04027   0.08786   0.90949   0.00000  Uiso   1.00
C527   C     0.08654   0.11404   0.75845   0.00000  Uiso   1.00
C528   C     0.04974   0.13363   0.72444   0.00000  Uiso   1.00
C529   C     0.06495   0.18555   0.70319   0.00000  Uiso   1.00
H530   H     0.20977   0.14006   0.81847   0.00000  Uiso   1.00
H531   H     0.27848   0.05351   0.79900   0.00000  Uiso   1.00
H532   H     0.17397   0.15419   0.90072   0.00000  Uiso   1.00
H533   H     0.19090   0.22120   0.75918   0.00000  Uiso   1.00
H534   H     0.33250   0.94381   0.77198   0.00000  Uiso   1.00
H535   H     0.11212   0.15611   0.98646   0.00000  Uiso   1.00
H536   H     0.14784   0.29742   0.68799   0.00000  Uiso   1.00
H537   H     0.03911   0.03417   0.77648   0.00000  Uiso   1.00
H538   H     0.09845   0.94182   0.75471   0.00000  Uiso   1.00
H539   H     0.99394   0.04249   0.85643   0.00000  Uiso   1.00
H540   H     0.01087   0.10950   0.71488   0.00000  Uiso   1.00
H541   H     0.18638   0.85316   0.73603   0.00000  Uiso   1.00
H542   H     0.96600   0.06546   0.95051   0.00000  Uiso   1.00
H543   H     0.00172   0.20676   0.65204   0.00000  Uiso   1.00
O544   O     0.30156   0.83964   0.74045   0.00000  Uiso   1.00
O545   O     0.01243   0.11817   0.02184   0.00000  Uiso   1.00
O546   O     0.05928   0.30356   0.63025   0.00000  Uiso   1.00
N547   N     0.28997   0.93516   0.76650   0.00000  Uiso   1.00
N548   N     0.08393   0.13364   0.96703   0.00000  Uiso   1.00
N549   N     0.11731   0.26575   0.68799   0.00000  Uiso   1.00
N550   N     0.21134   0.88638   0.74715   0.00000  Uiso   1.00
N551   N     0.00531   0.08485   0.94768   0.00000  Uiso   1.00
N552   N     0.03869   0.21697   0.66864   0.00000  Uiso   1.00
C553   C     0.61580   0.82933   0.55885   0.00000  Uiso   1.00
C554   C     0.55410   0.81566   0.54245   0.00000  Uiso   1.00
C555   C     0.52939   0.76038   0.53943   0.00000  Uiso   1.00
C556   C     0.47234   0.75709   0.52361   0.00000  Uiso   1.00
C557   C     0.38127   0.72823   0.50003   0.00000  Uiso   1.00
C558   C     0.60879   0.87244   0.59772   0.00000  Uiso   1.00
C559   C     0.63007   0.86490   0.64117   0.00000  Uiso   1.00
C560   C     0.61908   0.90941   0.67187   0.00000  Uiso   1.00
C561   C     0.61295   0.96873   0.73410   0.00000  Uiso   1.00
C562   C     0.64519   0.86324   0.52081   0.00000  Uiso   1.00
C563   C     0.69710   0.84797   0.49961   0.00000  Uiso   1.00
C564   C     0.71676   0.88474   0.46556   0.00000  Uiso   1.00
C565   C     0.76716   0.92976   0.40838   0.00000  Uiso   1.00
C566   C     0.55843   0.92179   0.53610   0.00000  Uiso   1.00
C567   C     0.52294   0.86589   0.53009   0.00000  Uiso   1.00
C568   C     0.46592   0.86268   0.51426   0.00000  Uiso   1.00
C569   C     0.44113   0.80740   0.51123   0.00000  Uiso   1.00
C570   C     0.57763   0.92267   0.58536   0.00000  Uiso   1.00
C571   C     0.56661   0.96720   0.61600   0.00000  Uiso   1.00
C572   C     0.58786   0.95973   0.65949   0.00000  Uiso   1.00
C573   C     0.61404   0.91346   0.50845   0.00000  Uiso   1.00
C574   C     0.63363   0.95026   0.47444   0.00000  Uiso   1.00
C575   C     0.68555   0.93505   0.45319   0.00000  Uiso   1.00
H576   H     0.64006   0.79023   0.56847   0.00000  Uiso   1.00
H577   H     0.55351   0.72152   0.54900   0.00000  Uiso   1.00
H578   H     0.65419   0.82603   0.65072   0.00000  Uiso   1.00
H579   H     0.72120   0.80910   0.50918   0.00000  Uiso   1.00
H580   H     0.44381   0.66750   0.52198   0.00000  Uiso   1.00
H581   H     0.65611   0.88788   0.73646   0.00000  Uiso   1.00
H582   H     0.79742   0.85216   0.43799   0.00000  Uiso   1.00
H583   H     0.53417   0.96089   0.52648   0.00000  Uiso   1.00
H584   H     0.44182   0.90155   0.50471   0.00000  Uiso   1.00
H585   H     0.54249   0.00606   0.60643   0.00000  Uiso   1.00
H586   H     0.60950   0.98913   0.46488   0.00000  Uiso   1.00
H587   H     0.35316   0.81362   0.48603   0.00000  Uiso   1.00
H588   H     0.56546   0.03400   0.70051   0.00000  Uiso   1.00
H589   H     0.70676   0.99828   0.40204   0.00000  Uiso   1.00
O590   O     0.33964   0.69844   0.49045   0.00000  Uiso   1.00
O591   O     0.61817   0.98757   0.77184   0.00000  Uiso   1.00
O592   O     0.80356   0.94072   0.38025   0.00000  Uiso   1.00
N593   N     0.43516   0.71003   0.51650   0.00000  Uiso   1.00
N594   N     0.63364   0.91607   0.71703   0.00000  Uiso   1.00
N595   N     0.76575   0.88269   0.43799   0.00000  Uiso   1.00
N596   N     0.38638   0.78866   0.49715   0.00000  Uiso   1.00
N597   N     0.58485   0.99469   0.69768   0.00000  Uiso   1.00
N598   N     0.71697   0.96131   0.41864   0.00000  Uiso   1.00
C599   C     0.11580   0.32933   0.05885   0.00000  Uiso   1.00
C600   C     0.05410   0.31566   0.04245   0.00000  Uiso   1.00
C601   C     0.02939   0.26038   0.03943   0.00000  Uiso   1.00
C602   C     0.97234   0.25709   0.02361   0.00000  Uiso   1.00
C603   C     0.88127   0.22823   0.00003   0.00000  Uiso   1.00
C604   C     0.10879   0.37244   0.09772   0.00000  Uiso   1.00
C605   C     0.13007   0.36490   0.14117   0.00000  Uiso   1.00
C606   C     0.11908   0.40941   0.17187   0.00000  Uiso   1.00
C607   C     0.11295   0.46873   0.23410   0.00000  Uiso   1.00
C608   C     0.14519   0.36324   0.02081   0.00000  Uiso   1.00
C609   C     0.19710   0.34797   0.99961   0.00000  Uiso   1.00
C610   C     0.21676   0.38474   0.96556   0.00000  Uiso   1.00
C611   C     0.26716   0.42976   0.90838   0.00000  Uiso   1.00
C612   C     0.05843   0.42179   0.03610   0.00000  Uiso   1.00
C613   C     0.02294   0.36589   0.03009   0.00000  Uiso   1.00
C614   C     0.96592   0.36268   0.01426   0.00000  Uiso   1.00
C615   C     0.94113   0.30740   0.01123   0.00000  Uiso   1.00
C616   C     0.07763   0.42267   0.08536   0.00000  Uiso   1.00
C617   C     0.06661   0.46720   0.11600   0.00000  Uiso   1.00
C618   C     0.08786   0.45973   0.15949   0.00000  Uiso   1.00
C619   C     0.11404   0.41346   0.00845   0.00000  Uiso   1.00
C620   C     0.13363   0.45026   0.97444   0.00000  Uiso   1.00
C621   C     0.18555   0.43505   0.95319   0.00000  Uiso   1.00
H622   H     0.14006   0.29023   0.06847   0.00000  Uiso   1.00
H623   H     0.05351   0.22152   0.04900   0.00000  Uiso   1.00
H624   H     0.15419   0.32603   0.15072   0.00000  Uiso   1.00
H625   H     0.22120   0.30910   0.00918   0.00000  Uiso   1.00
H626   H     0.94381   0.16750   0.02198   0.00000  Uiso   1.00
H627   H     0.15611   0.38788   0.23646   0.00000  Uiso   1.00
H628   H     0.29742   0.35216   0.93799   0.00000  Uiso   1.00
H629   H     0.03417   0.46089   0.02648   0.00000  Uiso   1.00
H630   H     0.94182   0.40155   0.00471   0.00000  Uiso   1.00
H631   H     0.04249   0.50606   0.10643   0.00000  Uiso   1.00
H632   H     0.10950   0.48913   0.96488   0.00000  Uiso   1.00
H633   H     0.85316   0.31362   0.98603   0.00000  Uiso   1.00
H634   H     0.06546   0.53400   0.20051   0.00000  Uiso   1.00
H635   H     0.20676   0.49828   0.90204   0.00000  Uiso   1.00
O636   O     0.83964   0.19844   0.99045   0.00000  Uiso   1.00
O637   O     0.11817   0.48757   0.27184   0.00000  Uiso   1.00
O638   O     0.30356   0.44072   0.88025   0.00000  Uiso   1.00
N639   N     0.93516   0.21003   0.01650   0.00000  Uiso   1.00
N640   N     0.13364   0.41607   0.21703   0.00000  Uiso   1.00
N641   N     0.26575   0.38269   0.93799   0.00000  Uiso   1.00
N642   N     0.88638   0.28866   0.99715   0.00000  Uiso   1.00
N643   N     0.08485   0.49469   0.19768   0.00000  Uiso   1.00
N644   N     0.21697   0.46131   0.91864   0.00000  Uiso   1.00
C645   C     0.88420   0.67067   0.05885   0.00000  Uiso   1.00
C646   C     0.94590   0.68434   0.04245   0.00000  Uiso   1.00
C647   C     0.97061   0.73962   0.03943   0.00000  Uiso   1.00
C648   C     0.02766   0.74291   0.02361   0.00000  Uiso   1.00
C649   C     0.11873   0.77177   0.00003   0.00000  Uiso   1.00
C650   C     0.89121   0.62756   0.09772   0.00000  Uiso   1.00
C651   C     0.86993   0.63510   0.14117   0.00000  Uiso   1.00
C652   C     0.88092   0.59059   0.17187   0.00000  Uiso   1.00
C653   C     0.88705   0.53127   0.23410   0.00000  Uiso   1.00
C654   C     0.85481   0.63676   0.02081   0.00000  Uiso   1.00
C655   C     0.80290   0.65203   0.99961   0.00000  Uiso   1.00
C656   C     0.78324   0.61526   0.96556   0.00000  Uiso   1.00
C657   C     0.73284   0.57024   0.90838   0.00000  Uiso   1.00
C658   C     0.94157   0.57821   0.03610   0.00000  Uiso   1.00
C659   C     0.97706   0.63411   0.03009   0.00000  Uiso   1.00
C660   C     0.03408   0.63732   0.01426   0.00000  Uiso   1.00
C661   C     0.05887   0.69260   0.01123   0.00000  Uiso   1.00
C662   C     0.92237   0.57733   0.08536   0.00000  Uiso   1.00
C663   C     0.93339   0.53280   0.11600   0.00000  Uiso   1.00
C664   C     0.91214   0.54027   0.15949   0.00000  Uiso   1.00
C665   C     0.88596   0.58654   0.00845   0.00000  Uiso   1.00
C666   C     0.86637   0.54974   0.97444   0.00000  Uiso   1.00
C667   C     0.81445   0.56495   0.95319   0.00000  Uiso   1.00
H668   H     0.85994   0.70977   0.06847   0.00000  Uiso   1.00
H669   H     0.94649   0.77848   0.04900   0.00000  Uiso   1.00
H670   H     0.84581   0.67397   0.15072   0.00000  Uiso   1.00
H671   H     0.77880   0.69090   0.00918   0.00000  Uiso   1.00
H672   H     0.05619   0.83250   0.02198   0.00000  Uiso   1.00
H673   H     0.84389   0.61212   0.23646   0.00000  Uiso   1.00
H674   H     0.70258   0.64784   0.93799   0.00000  Uiso   1.00
H675   H     0.96583   0.53911   0.02648   0.00000  Uiso   1.00
H676   H     0.05818   0.59845   0.00471   0.00000  Uiso   1.00
H677   H     0.95751   0.49394   0.10643   0.00000  Uiso   1.00
H678   H     0.89050   0.51087   0.96488   0.00000  Uiso   1.00
H679   H     0.14684   0.68638   0.98603   0.00000  Uiso   1.00
H680   H     0.93454   0.46600   0.20051   0.00000  Uiso   1.00
H681   H     0.79324   0.50172   0.90204   0.00000  Uiso   1.00
O682   O     0.16036   0.80156   0.99045   0.00000  Uiso   1.00
O683   O     0.88183   0.51243   0.27184   0.00000  Uiso   1.00
O684   O     0.69644   0.55928   0.88025   0.00000  Uiso   1.00
N685   N     0.06484   0.78997   0.01650   0.00000  Uiso   1.00
N686   N     0.86636   0.58393   0.21703   0.00000  Uiso   1.00
N687   N     0.73425   0.61731   0.93799   0.00000  Uiso   1.00
N688   N     0.11362   0.71134   0.99715   0.00000  Uiso   1.00
N689   N     0.91515   0.50531   0.19768   0.00000  Uiso   1.00
N690   N     0.78303   0.53869   0.91864   0.00000  Uiso   1.00
C691   C     0.38420   0.17067   0.55885   0.00000  Uiso   1.00
C692   C     0.44590   0.18434   0.54245   0.00000  Uiso   1.00
C693   C     0.47061   0.23962   0.53943   0.00000  Uiso   1.00
C694   C     0.52766   0.24291   0.52361   0.00000  Uiso   1.00
C695   C     0.61873   0.27177   0.50003   0.00000  Uiso   1.00
C696   C     0.39121   0.12756   0.59772   0.00000  Uiso   1.00
C697   C     0.36993   0.13510   0.64117   0.00000  Uiso   1.00
C698   C     0.38092   0.09059   0.67187   0.00000  Uiso   1.00
C699   C     0.38705   0.03127   0.73410   0.00000  Uiso   1.00
C700   C     0.35481   0.13676   0.52081   0.00000  Uiso   1.00
C701   C     0.30290   0.15203   0.49961   0.00000  Uiso   1.00
C702   C     0.28324   0.11526   0.46556   0.00000  Uiso   1.00
C703   C     0.23284   0.07024   0.40838   0.00000  Uiso   1.00
C704   C     0.44157   0.07821   0.53610   0.00000  Uiso   1.00
C705   C     0.47706   0.13411   0.53009   0.00000  Uiso   1.00
C706   C     0.53408   0.13732   0.51426   0.00000  Uiso   1.00
C707   C     0.55887   0.19260   0.51123   0.00000  Uiso   1.00
C708   C     0.42237   0.07733   0.58536   0.00000  Uiso   1.00
C709   C     0.43339   0.03280   0.61600   0.00000  Uiso   1.00
C710   C     0.41214   0.04027   0.65949   0.00000  Uiso   1.00
C711   C     0.38596   0.08654   0.50845   0.00000  Uiso   1.00
C712   C     0.36637   0.04974   0.47444   0.00000  Uiso   1.00
C713   C     0.31445   0.06495   0.45319   0.00000  Uiso   1.00
H714   H     0.35994   0.20977   0.56847   0.00000  Uiso   1.00
H715   H     0.44649   0.27848   0.54900   0.00000  Uiso   1.00
H716   H     0.34581   0.17397   0.65072   0.00000  Uiso   1.00
H717   H     0.27880   0.19090   0.50918   0.00000  Uiso   1.00
H718   H     0.55619   0.33250   0.52198   0.00000  Uiso   1.00
H719   H     0.34389   0.11212   0.73646   0.00000  Uiso   1.00
H720   H     0.20258   0.14784   0.43799   0.00000  Uiso   1.00
H721   H     0.46583   0.03911   0.52648   0.00000  Uiso   1.00
H722   H     0.55818   0.09845   0.50471   0.00000  Uiso   1.00
H723   H     0.45751   0.99394   0.60643   0.00000  Uiso   1.00
H724   H     0.39050   0.01087   0.46488   0.00000  Uiso   1.00
H725   H     0.64684   0.18638   0.48603   0.00000  Uiso   1.00
H726   H     0.43454   0.96600   0.70051   0.00000  Uiso   1.00
H727   H     0.29324   0.00172   0.40204   0.00000  Uiso   1.00
O728   O     0.66036   0.30156   0.49045   0.00000  Uiso   1.00
O729   O     0.38183   0.01243   0.77184   0.00000  Uiso   1.00
O730   O     0.19644   0.05928   0.38025   0.00000  Uiso   1.00
N731   N     0.56484   0.28997   0.51650   0.00000  Uiso   1.00
N732   N     0.36636   0.08393   0.71703   0.00000  Uiso   1.00
N733   N     0.23425   0.11731   0.43799   0.00000  Uiso   1.00
N734   N     0.61362   0.21134   0.49715   0.00000  Uiso   1.00
N735   N     0.41515   0.00531   0.69768   0.00000  Uiso   1.00
N736   N     0.28303   0.03869   0.41864   0.00000  Uiso   1.00
