data_job_06970
_audit_creation_date              2018-12-19
_audit_creation_method            'Materials Studio'
_symmetry_space_group_name_H-M    'P1'
_symmetry_Int_Tables_number       1
_symmetry_cell_setting            triclinic
loop_
_symmetry_equiv_pos_as_xyz
  x,y,z
_cell_length_a                    27.3069
_cell_length_b                    35.6701
_cell_length_c                    23.3432
_cell_angle_alpha                 90.0000
_cell_angle_beta                  125.9521
_cell_angle_gamma                 90.0000
loop_
_atom_site_label
_atom_site_type_symbol
_atom_site_fract_x
_atom_site_fract_y
_atom_site_fract_z
_atom_site_U_iso_or_equiv
_atom_site_adp_type
_atom_site_occupancy
C1     C     0.39039   0.44100   0.66071   0.00000  Uiso   1.00
C2     C     0.44075   0.42658   0.73412   0.00000  Uiso   1.00
C3     C     0.49872   0.41691   0.75654   0.00000  Uiso   1.00
C4     C     0.53819   0.40430   0.82571   0.00000  Uiso   1.00
C5     C     0.11910   0.88232   0.93283   0.00000  Uiso   1.00
C6     C     0.83718   0.91435   0.63258   0.00000  Uiso   1.00
C7     C     0.80808   0.89441   0.56962   0.00000  Uiso   1.00
C8     C     0.76035   0.87151   0.55331   0.00000  Uiso   1.00
C9     C     0.68046   0.83056   0.50276   0.00000  Uiso   1.00
C10    C     0.37061   0.47850   0.67228   0.00000  Uiso   1.00
C11    C     0.36959   0.51250   0.64269   0.00000  Uiso   1.00
C12    C     0.35000   0.54361   0.65980   0.00000  Uiso   1.00
C13    C     0.32201   0.60227   0.67090   0.00000  Uiso   1.00
C14    C     0.35739   0.43579   0.74369   0.00000  Uiso   1.00
C15    C     0.42282   0.42375   0.77919   0.00000  Uiso   1.00
C16    C     0.46221   0.41115   0.84834   0.00000  Uiso   1.00
C17    C     0.52023   0.40147   0.87086   0.00000  Uiso   1.00
C18    C     0.81926   0.91152   0.67765   0.00000  Uiso   1.00
C19    C     0.77157   0.88864   0.66142   0.00000  Uiso   1.00
C20    C     0.74240   0.86867   0.59846   0.00000  Uiso   1.00
C21    C     0.35269   0.47567   0.71736   0.00000  Uiso   1.00
C22    C     0.33309   0.50673   0.73450   0.00000  Uiso   1.00
C23    C     0.33205   0.54077   0.70495   0.00000  Uiso   1.00
H24    H     0.40434   0.44320   0.62561   0.00000  Uiso   1.00
H25    H     0.51257   0.41910   0.72164   0.00000  Uiso   1.00
H26    H     0.82195   0.89660   0.53475   0.00000  Uiso   1.00
H27    H     0.38346   0.51468   0.60782   0.00000  Uiso   1.00
H28    H     0.12466   0.89112   0.84797   0.00000  Uiso   1.00
H29    H     0.72271   0.84370   0.45388   0.00000  Uiso   1.00
H30    H     0.35242   0.59267   0.60796   0.00000  Uiso   1.00
H31    H     0.84344   0.93359   0.77878   0.00000  Uiso   1.00
H32    H     0.44833   0.40896   0.88321   0.00000  Uiso   1.00
H33    H     0.75771   0.88646   0.69631   0.00000  Uiso   1.00
H34    H     0.31922   0.50453   0.76938   0.00000  Uiso   1.00
H35    H     0.57252   0.38289   0.97910   0.00000  Uiso   1.00
H36    H     0.67057   0.83546   0.58501   0.00000  Uiso   1.00
H37    H     0.30028   0.58444   0.73910   0.00000  Uiso   1.00
O38    O     0.16868   0.87097   0.97946   0.00000  Uiso   1.00
O39    O     0.64134   0.80875   0.46243   0.00000  Uiso   1.00
O40    O     0.31152   0.63540   0.66458   0.00000  Uiso   1.00
N41    N     0.59800   0.39257   0.86450   0.00000  Uiso   1.00
N42    N     0.72221   0.84823   0.49606   0.00000  Uiso   1.00
N43    N     0.34346   0.58100   0.64010   0.00000  Uiso   1.00
N44    N     0.56994   0.38814   0.93507   0.00000  Uiso   1.00
N45    N     0.69415   0.84380   0.56662   0.00000  Uiso   1.00
N46    N     0.31540   0.57657   0.71066   0.00000  Uiso   1.00
C47    C     0.74144   0.76710   0.18493   0.00000  Uiso   1.00
C48    C     0.80331   0.76323   0.19911   0.00000  Uiso   1.00
C49    C     0.85373   0.78511   0.24546   0.00000  Uiso   1.00
C50    C     0.90610   0.77715   0.25094   0.00000  Uiso   1.00
C51    C     0.50187   0.27554   0.27895   0.00000  Uiso   1.00
C52    C     0.69634   0.77294   0.10533   0.00000  Uiso   1.00
C53    C     0.65683   0.80297   0.07283   0.00000  Uiso   1.00
C54    C     0.61916   0.80318   0.99937   0.00000  Uiso   1.00
C55    C     0.54884   0.81662   0.88178   0.00000  Uiso   1.00
C56    C     0.72698   0.72878   0.20052   0.00000  Uiso   1.00
C57    C     0.71320   0.72169   0.24804   0.00000  Uiso   1.00
C58    C     0.70131   0.68472   0.25470   0.00000  Uiso   1.00
C59    C     0.67855   0.62961   0.28491   0.00000  Uiso   1.00
C60    C     0.74479   0.71407   0.11224   0.00000  Uiso   1.00
C61    C     0.80512   0.73443   0.15963   0.00000  Uiso   1.00
C62    C     0.85744   0.72643   0.16505   0.00000  Uiso   1.00
C63    C     0.90793   0.74829   0.21140   0.00000  Uiso   1.00
C64    C     0.69816   0.74414   0.06585   0.00000  Uiso   1.00
C65    C     0.66054   0.74430   0.99242   0.00000  Uiso   1.00
C66    C     0.62098   0.77432   0.95982   0.00000  Uiso   1.00
C67    C     0.72880   0.69998   0.16104   0.00000  Uiso   1.00
C68    C     0.71691   0.66301   0.16763   0.00000  Uiso   1.00
C69    C     0.70313   0.65586   0.21515   0.00000  Uiso   1.00
H70    H     0.74002   0.78952   0.21566   0.00000  Uiso   1.00
H71    H     0.85230   0.80740   0.27600   0.00000  Uiso   1.00
H72    H     0.65543   0.82526   0.10340   0.00000  Uiso   1.00
H73    H     0.71180   0.74399   0.27858   0.00000  Uiso   1.00
H74    H     0.97758   0.81452   0.32547   0.00000  Uiso   1.00
H75    H     0.56245   0.85217   0.96153   0.00000  Uiso   1.00
H76    H     0.68131   0.68080   0.33094   0.00000  Uiso   1.00
H77    H     0.74621   0.69164   0.08151   0.00000  Uiso   1.00
H78    H     0.85883   0.70414   0.13449   0.00000  Uiso   1.00
H79    H     0.66196   0.72200   0.96189   0.00000  Uiso   1.00
H80    H     0.71833   0.64073   0.13707   0.00000  Uiso   1.00
H81    H     0.48288   0.23071   0.21061   0.00000  Uiso   1.00
H82    H     0.56774   0.76836   0.84667   0.00000  Uiso   1.00
H83    H     0.68661   0.59699   0.21608   0.00000  Uiso   1.00
O84    O     0.05419   0.78261   0.30529   0.00000  Uiso   1.00
O85    O     0.50955   0.83200   0.82783   0.00000  Uiso   1.00
O86    O     0.66550   0.60717   0.31248   0.00000  Uiso   1.00
N87    N     0.96337   0.79307   0.29118   0.00000  Uiso   1.00
N88    N     0.57526   0.82828   0.95092   0.00000  Uiso   1.00
N89    N     0.68636   0.66806   0.29627   0.00000  Uiso   1.00
N90    N     0.46622   0.24798   0.22937   0.00000  Uiso   1.00
N91    N     0.57811   0.78318   0.88911   0.00000  Uiso   1.00
N92    N     0.68922   0.62296   0.23446   0.00000  Uiso   1.00
C93    C     0.47531   0.00978   0.70599   0.00000  Uiso   1.00
C94    C     0.50688   0.03068   0.77619   0.00000  Uiso   1.00
C95    C     0.53763   0.01424   0.84264   0.00000  Uiso   1.00
C96    C     0.56340   0.03820   0.90035   0.00000  Uiso   1.00
C97    C     0.61313   0.06471   0.01066   0.00000  Uiso   1.00
C98    C     0.40987   0.02330   0.66133   0.00000  Uiso   1.00
C99    C     0.35906   0.00066   0.63121   0.00000  Uiso   1.00
C100   C     0.30317   0.01842   0.59222   0.00000  Uiso   1.00
C101   C     0.70229   0.53347   0.52416   0.00000  Uiso   1.00
C102   C     0.50307   0.02457   0.66969   0.00000  Uiso   1.00
C103   C     0.53062   0.00300   0.64657   0.00000  Uiso   1.00
C104   C     0.55319   0.02182   0.61460   0.00000  Uiso   1.00
C105   C     0.59703   0.03885   0.55952   0.00000  Uiso   1.00
C106   C     0.46639   0.08158   0.69030   0.00000  Uiso   1.00
C107   C     0.50203   0.06968   0.76767   0.00000  Uiso   1.00
C108   C     0.52777   0.09367   0.82529   0.00000  Uiso   1.00
C109   C     0.55856   0.07727   0.89182   0.00000  Uiso   1.00
C110   C     0.40502   0.06230   0.65281   0.00000  Uiso   1.00
C111   C     0.34920   0.08009   0.61386   0.00000  Uiso   1.00
C112   C     0.29832   0.05748   0.58369   0.00000  Uiso   1.00
C113   C     0.49823   0.06357   0.66117   0.00000  Uiso   1.00
C114   C     0.52076   0.08243   0.62923   0.00000  Uiso   1.00
C115   C     0.54834   0.06089   0.60607   0.00000  Uiso   1.00
H116   H     0.47908   0.97942   0.71262   0.00000  Uiso   1.00
H117   H     0.54136   0.98405   0.84922   0.00000  Uiso   1.00
H118   H     0.36282   0.97048   0.63780   0.00000  Uiso   1.00
H119   H     0.53436   0.97282   0.65317   0.00000  Uiso   1.00
H120   H     0.60827   0.00639   0.99690   0.00000  Uiso   1.00
H121   H     0.23180   0.97776   0.55111   0.00000  Uiso   1.00
H122   H     0.59352   0.98270   0.58351   0.00000  Uiso   1.00
H123   H     0.46262   0.11194   0.68367   0.00000  Uiso   1.00
H124   H     0.52401   0.12385   0.81868   0.00000  Uiso   1.00
H125   H     0.34547   0.11027   0.60727   0.00000  Uiso   1.00
H126   H     0.51700   0.11261   0.62264   0.00000  Uiso   1.00
H127   H     0.59418   0.11985   0.97212   0.00000  Uiso   1.00
H128   H     0.71771   0.59123   0.52633   0.00000  Uiso   1.00
H129   H     0.57943   0.09616   0.55873   0.00000  Uiso   1.00
O130   O     0.64188   0.06856   0.07385   0.00000  Uiso   1.00
O131   O     0.64798   0.53100   0.48898   0.00000  Uiso   1.00
O132   O     0.62255   0.03748   0.53150   0.00000  Uiso   1.00
N133   N     0.59654   0.03146   0.97254   0.00000  Uiso   1.00
N134   N     0.24456   0.00470   0.55577   0.00000  Uiso   1.00
N135   N     0.58273   0.00931   0.58604   0.00000  Uiso   1.00
N136   N     0.58896   0.09251   0.95921   0.00000  Uiso   1.00
N137   N     0.73698   0.56575   0.54243   0.00000  Uiso   1.00
N138   N     0.57515   0.07036   0.57271   0.00000  Uiso   1.00
C139   C     0.63331   0.06949   0.35604   0.00000  Uiso   1.00
C140   C     0.57391   0.08531   0.29245   0.00000  Uiso   1.00
C141   C     0.51867   0.08447   0.28272   0.00000  Uiso   1.00
C142   C     0.46966   0.10044   0.22099   0.00000  Uiso   1.00
C143   C     0.37652   0.12255   0.12990   0.00000  Uiso   1.00
C144   C     0.67825   0.10193   0.38616   0.00000  Uiso   1.00
C145   C     0.21073   0.61505   0.45523   0.00000  Uiso   1.00
C146   C     0.24955   0.64501   0.47239   0.00000  Uiso   1.00
C147   C     0.31842   0.69290   0.52681   0.00000  Uiso   1.00
C148   C     0.65545   0.04171   0.32623   0.00000  Uiso   1.00
C149   C     0.66878   0.00421   0.34493   0.00000  Uiso   1.00
C150   C     0.68843   0.98347   0.31164   0.00000  Uiso   1.00
C151   C     0.72190   0.93787   0.27301   0.00000  Uiso   1.00
C152   C     0.64451   0.09936   0.26371   0.00000  Uiso   1.00
C153   C     0.58000   0.10153   0.24230   0.00000  Uiso   1.00
C154   C     0.53106   0.11751   0.18057   0.00000  Uiso   1.00
C155   C     0.47576   0.11669   0.17075   0.00000  Uiso   1.00
C156   C     0.18433   0.61815   0.33602   0.00000  Uiso   1.00
C157   C     0.22312   0.64809   0.35308   0.00000  Uiso   1.00
C158   C     0.25565   0.66126   0.42216   0.00000  Uiso   1.00
C159   C     0.66153   0.05794   0.27608   0.00000  Uiso   1.00
C160   C     0.68117   0.03726   0.24277   0.00000  Uiso   1.00
C161   C     0.69452   0.99973   0.26141   0.00000  Uiso   1.00
H162   H     0.62858   0.05686   0.39508   0.00000  Uiso   1.00
H163   H     0.51398   0.07191   0.32155   0.00000  Uiso   1.00
H164   H     0.20601   0.60249   0.49403   0.00000  Uiso   1.00
H165   H     0.66407   0.99166   0.38374   0.00000  Uiso   1.00
H166   H     0.38962   0.09576   0.21791   0.00000  Uiso   1.00
H167   H     0.29454   0.66022   0.58161   0.00000  Uiso   1.00
H168   H     0.70610   0.92653   0.34904   0.00000  Uiso   1.00
H169   H     0.64925   0.11199   0.22467   0.00000  Uiso   1.00
H170   H     0.53578   0.13007   0.14177   0.00000  Uiso   1.00
H171   H     0.22782   0.66064   0.31426   0.00000  Uiso   1.00
H172   H     0.68587   0.04982   0.20397   0.00000  Uiso   1.00
H173   H     0.40732   0.14297   0.07201   0.00000  Uiso   1.00
H174   H     0.31224   0.70742   0.43571   0.00000  Uiso   1.00
H175   H     0.72379   0.97373   0.20313   0.00000  Uiso   1.00
O176   O     0.82346   0.63027   0.09352   0.00000  Uiso   1.00
O177   O     0.35471   0.71483   0.57068   0.00000  Uiso   1.00
O178   O     0.73867   0.90824   0.26555   0.00000  Uiso   1.00
N179   N     0.40935   0.10439   0.19494   0.00000  Uiso   1.00
N180   N     0.28793   0.66465   0.53498   0.00000  Uiso   1.00
N181   N     0.70525   0.94618   0.31755   0.00000  Uiso   1.00
N182   N     0.41888   0.12978   0.11643   0.00000  Uiso   1.00
N183   N     0.29745   0.69005   0.45646   0.00000  Uiso   1.00
N184   N     0.71477   0.97157   0.23904   0.00000  Uiso   1.00
C185   C     0.39610   0.73868   0.93800   0.00000  Uiso   1.00
C186   C     0.33409   0.72341   0.91199   0.00000  Uiso   1.00
C187   C     0.30683   0.69170   0.87045   0.00000  Uiso   1.00
C188   C     0.24997   0.68238   0.85226   0.00000  Uiso   1.00
C189   C     0.15804   0.65537   0.80848   0.00000  Uiso   1.00
C190   C     0.43247   0.74080   0.01839   0.00000  Uiso   1.00
C191   C     0.48792   0.72372   0.06630   0.00000  Uiso   1.00
C192   C     0.51387   0.72904   0.13767   0.00000  Uiso   1.00
C193   C     0.57469   0.72905   0.25907   0.00000  Uiso   1.00
C194   C     0.38577   0.77912   0.91210   0.00000  Uiso   1.00
C195   C     0.40197   0.79426   0.87066   0.00000  Uiso   1.00
C196   C     0.38862   0.83185   0.85256   0.00000  Uiso   1.00
C197   C     0.37693   0.89135   0.80893   0.00000  Uiso   1.00
C198   C     0.34360   0.77850   0.97957   0.00000  Uiso   1.00
C199   C     0.30558   0.74504   0.93458   0.00000  Uiso   1.00
C200   C     0.24875   0.73576   0.91644   0.00000  Uiso   1.00
C201   C     0.22140   0.70405   0.87488   0.00000  Uiso   1.00
C202   C     0.40395   0.76243   0.04097   0.00000  Uiso   1.00
C203   C     0.42983   0.76778   0.11229   0.00000  Uiso   1.00
C204   C     0.48531   0.75071   0.16030   0.00000  Uiso   1.00
C205   C     0.35725   0.80075   0.93468   0.00000  Uiso   1.00
C206   C     0.34388   0.83832   0.91665   0.00000  Uiso   1.00
C207   C     0.36005   0.85351   0.87518   0.00000  Uiso   1.00
H208   H     0.41830   0.72184   0.92042   0.00000  Uiso   1.00
H209   H     0.32891   0.67497   0.85299   0.00000  Uiso   1.00
H210   H     0.50997   0.70699   0.04881   0.00000  Uiso   1.00
H211   H     0.42403   0.77752   0.85319   0.00000  Uiso   1.00
H212   H     0.21724   0.63254   0.78821   0.00000  Uiso   1.00
H213   H     0.59903   0.70006   0.20110   0.00000  Uiso   1.00
H214   H     0.41781   0.84878   0.78861   0.00000  Uiso   1.00
H215   H     0.32140   0.79534   0.99715   0.00000  Uiso   1.00
H216   H     0.22669   0.75250   0.93392   0.00000  Uiso   1.00
H217   H     0.40776   0.78452   0.12975   0.00000  Uiso   1.00
H218   H     0.32182   0.85504   0.93413   0.00000  Uiso   1.00
H219   H     0.13428   0.69546   0.85390   0.00000  Uiso   1.00
H220   H     0.51607   0.76298   0.26680   0.00000  Uiso   1.00
H221   H     0.33485   0.91170   0.85431   0.00000  Uiso   1.00
O222   O     0.61521   0.13449   0.77810   0.00000  Uiso   1.00
O223   O     0.61611   0.72308   0.31980   0.00000  Uiso   1.00
O224   O     0.37835   0.91819   0.77862   0.00000  Uiso   1.00
N225   N     0.21071   0.65323   0.81233   0.00000  Uiso   1.00
N226   N     0.56765   0.71635   0.19837   0.00000  Uiso   1.00
N227   N     0.39824   0.85540   0.81274   0.00000  Uiso   1.00
N228   N     0.16606   0.68709   0.84768   0.00000  Uiso   1.00
N229   N     0.52301   0.75021   0.23371   0.00000  Uiso   1.00
N230   N     0.35360   0.88926   0.84809   0.00000  Uiso   1.00
C231   C     0.56274   0.45306   0.27184   0.00000  Uiso   1.00
C232   C     0.51790   0.43611   0.19869   0.00000  Uiso   1.00
C233   C     0.49597   0.45349   0.13466   0.00000  Uiso   1.00
C234   C     0.45527   0.43329   0.07355   0.00000  Uiso   1.00
C235   C     0.38842   0.41249   0.95953   0.00000  Uiso   1.00
C236   C     0.61558   0.42566   0.31140   0.00000  Uiso   1.00
C237   C     0.17578   0.93425   0.34213   0.00000  Uiso   1.00
C238   C     0.21731   0.90525   0.37591   0.00000  Uiso   1.00
C239   C     0.30211   0.86822   0.43690   0.00000  Uiso   1.00
C240   C     0.53193   0.45164   0.30909   0.00000  Uiso   1.00
C241   C     0.52182   0.48208   0.33792   0.00000  Uiso   1.00
C242   C     0.49293   0.47496   0.36977   0.00000  Uiso   1.00
C243   C     0.44787   0.47828   0.42719   0.00000  Uiso   1.00
C244   C     0.52945   0.38628   0.27717   0.00000  Uiso   1.00
C245   C     0.49982   0.39984   0.20159   0.00000  Uiso   1.00
C246   C     0.45914   0.37961   0.14056   0.00000  Uiso   1.00
C247   C     0.43716   0.39696   0.07645   0.00000  Uiso   1.00
C248   C     0.09750   0.88939   0.31429   0.00000  Uiso   1.00
C249   C     0.13895   0.86037   0.34803   0.00000  Uiso   1.00
C250   C     0.19920   0.86891   0.37881   0.00000  Uiso   1.00
C251   C     0.51385   0.41537   0.31199   0.00000  Uiso   1.00
C252   C     0.48498   0.40820   0.34381   0.00000  Uiso   1.00
C253   C     0.47482   0.43862   0.37267   0.00000  Uiso   1.00
H254   H     0.57682   0.48129   0.26959   0.00000  Uiso   1.00
H255   H     0.50998   0.48156   0.13245   0.00000  Uiso   1.00
H256   H     0.18976   0.96232   0.33989   0.00000  Uiso   1.00
H257   H     0.53581   0.51014   0.33567   0.00000  Uiso   1.00
H258   H     0.42792   0.46585   0.98167   0.00000  Uiso   1.00
H259   H     0.30699   0.92529   0.41910   0.00000  Uiso   1.00
H260   H     0.48238   0.52614   0.41020   0.00000  Uiso   1.00
H261   H     0.51537   0.35804   0.27943   0.00000  Uiso   1.00
H262   H     0.44516   0.35155   0.14281   0.00000  Uiso   1.00
H263   H     0.12494   0.83231   0.35026   0.00000  Uiso   1.00
H264   H     0.47100   0.38013   0.34604   0.00000  Uiso   1.00
H265   H     0.87531   0.86033   0.99008   0.00000  Uiso   1.00
H266   H     0.25439   0.81976   0.42752   0.00000  Uiso   1.00
H267   H     0.42977   0.42061   0.41861   0.00000  Uiso   1.00
O268   O     0.85655   0.91103   0.89583   0.00000  Uiso   1.00
O269   O     0.35388   0.85782   0.46974   0.00000  Uiso   1.00
O270   O     0.42799   0.49013   0.45805   0.00000  Uiso   1.00
N271   N     0.42516   0.44191   0.00240   0.00000  Uiso   1.00
N272   N     0.27958   0.90398   0.41136   0.00000  Uiso   1.00
N273   N     0.47610   0.49827   0.40305   0.00000  Uiso   1.00
N274   N     0.89685   0.88513   0.00692   0.00000  Uiso   1.00
N275   N     0.25127   0.84720   0.41589   0.00000  Uiso   1.00
N276   N     0.44779   0.44149   0.40758   0.00000  Uiso   1.00
C277   C     0.89039   0.94100   0.66071   0.00000  Uiso   1.00
C278   C     0.94075   0.92658   0.73412   0.00000  Uiso   1.00
C279   C     0.99872   0.91691   0.75654   0.00000  Uiso   1.00
C280   C     0.03819   0.90430   0.82571   0.00000  Uiso   1.00
C281   C     0.61910   0.38232   0.93283   0.00000  Uiso   1.00
C282   C     0.33718   0.41435   0.63258   0.00000  Uiso   1.00
C283   C     0.30808   0.39441   0.56962   0.00000  Uiso   1.00
C284   C     0.26035   0.37151   0.55331   0.00000  Uiso   1.00
C285   C     0.18046   0.33056   0.50276   0.00000  Uiso   1.00
C286   C     0.87061   0.97850   0.67228   0.00000  Uiso   1.00
C287   C     0.86959   0.01250   0.64269   0.00000  Uiso   1.00
C288   C     0.85000   0.04361   0.65980   0.00000  Uiso   1.00
C289   C     0.82201   0.10227   0.67090   0.00000  Uiso   1.00
C290   C     0.85739   0.93579   0.74369   0.00000  Uiso   1.00
C291   C     0.92282   0.92375   0.77919   0.00000  Uiso   1.00
C292   C     0.96221   0.91115   0.84834   0.00000  Uiso   1.00
C293   C     0.02023   0.90147   0.87086   0.00000  Uiso   1.00
C294   C     0.31926   0.41152   0.67765   0.00000  Uiso   1.00
C295   C     0.27157   0.38864   0.66142   0.00000  Uiso   1.00
C296   C     0.24240   0.36867   0.59846   0.00000  Uiso   1.00
C297   C     0.85269   0.97567   0.71736   0.00000  Uiso   1.00
C298   C     0.83309   0.00673   0.73450   0.00000  Uiso   1.00
C299   C     0.83205   0.04077   0.70495   0.00000  Uiso   1.00
H300   H     0.90434   0.94320   0.62561   0.00000  Uiso   1.00
H301   H     0.01257   0.91910   0.72164   0.00000  Uiso   1.00
H302   H     0.32195   0.39660   0.53475   0.00000  Uiso   1.00
H303   H     0.88346   0.01468   0.60782   0.00000  Uiso   1.00
H304   H     0.62466   0.39112   0.84797   0.00000  Uiso   1.00
H305   H     0.22271   0.34370   0.45388   0.00000  Uiso   1.00
H306   H     0.85242   0.09267   0.60796   0.00000  Uiso   1.00
H307   H     0.34344   0.43359   0.77878   0.00000  Uiso   1.00
H308   H     0.94833   0.90896   0.88321   0.00000  Uiso   1.00
H309   H     0.25771   0.38646   0.69631   0.00000  Uiso   1.00
H310   H     0.81922   0.00453   0.76938   0.00000  Uiso   1.00
H311   H     0.07252   0.88289   0.97910   0.00000  Uiso   1.00
H312   H     0.17057   0.33546   0.58501   0.00000  Uiso   1.00
H313   H     0.80028   0.08444   0.73910   0.00000  Uiso   1.00
O314   O     0.66868   0.37097   0.97946   0.00000  Uiso   1.00
O315   O     0.14134   0.30875   0.46243   0.00000  Uiso   1.00
O316   O     0.81152   0.13540   0.66458   0.00000  Uiso   1.00
N317   N     0.09800   0.89257   0.86450   0.00000  Uiso   1.00
N318   N     0.22221   0.34823   0.49606   0.00000  Uiso   1.00
N319   N     0.84346   0.08100   0.64010   0.00000  Uiso   1.00
N320   N     0.06994   0.88814   0.93507   0.00000  Uiso   1.00
N321   N     0.19415   0.34380   0.56662   0.00000  Uiso   1.00
N322   N     0.81540   0.07657   0.71066   0.00000  Uiso   1.00
C323   C     0.24144   0.26710   0.18493   0.00000  Uiso   1.00
C324   C     0.30331   0.26323   0.19911   0.00000  Uiso   1.00
C325   C     0.35373   0.28511   0.24546   0.00000  Uiso   1.00
C326   C     0.40610   0.27715   0.25094   0.00000  Uiso   1.00
C327   C     0.00187   0.77554   0.27895   0.00000  Uiso   1.00
C328   C     0.19634   0.27294   0.10533   0.00000  Uiso   1.00
C329   C     0.15683   0.30297   0.07283   0.00000  Uiso   1.00
C330   C     0.11916   0.30318   0.99937   0.00000  Uiso   1.00
C331   C     0.04884   0.31662   0.88178   0.00000  Uiso   1.00
C332   C     0.22698   0.22878   0.20052   0.00000  Uiso   1.00
C333   C     0.21320   0.22169   0.24804   0.00000  Uiso   1.00
C334   C     0.20131   0.18472   0.25470   0.00000  Uiso   1.00
C335   C     0.17855   0.12961   0.28491   0.00000  Uiso   1.00
C336   C     0.24479   0.21407   0.11224   0.00000  Uiso   1.00
C337   C     0.30512   0.23443   0.15963   0.00000  Uiso   1.00
C338   C     0.35744   0.22643   0.16505   0.00000  Uiso   1.00
C339   C     0.40793   0.24829   0.21140   0.00000  Uiso   1.00
C340   C     0.19816   0.24414   0.06585   0.00000  Uiso   1.00
C341   C     0.16054   0.24430   0.99242   0.00000  Uiso   1.00
C342   C     0.12098   0.27432   0.95982   0.00000  Uiso   1.00
C343   C     0.22880   0.19998   0.16104   0.00000  Uiso   1.00
C344   C     0.21691   0.16301   0.16763   0.00000  Uiso   1.00
C345   C     0.20313   0.15586   0.21515   0.00000  Uiso   1.00
H346   H     0.24002   0.28952   0.21566   0.00000  Uiso   1.00
H347   H     0.35230   0.30740   0.27600   0.00000  Uiso   1.00
H348   H     0.15543   0.32526   0.10340   0.00000  Uiso   1.00
H349   H     0.21180   0.24399   0.27858   0.00000  Uiso   1.00
H350   H     0.47758   0.31452   0.32547   0.00000  Uiso   1.00
H351   H     0.06245   0.35217   0.96153   0.00000  Uiso   1.00
H352   H     0.18131   0.18080   0.33094   0.00000  Uiso   1.00
H353   H     0.24621   0.19164   0.08151   0.00000  Uiso   1.00
H354   H     0.35883   0.20414   0.13449   0.00000  Uiso   1.00
H355   H     0.16196   0.22200   0.96189   0.00000  Uiso   1.00
H356   H     0.21833   0.14073   0.13707   0.00000  Uiso   1.00
H357   H     0.98288   0.73071   0.21061   0.00000  Uiso   1.00
H358   H     0.06774   0.26836   0.84667   0.00000  Uiso   1.00
H359   H     0.18661   0.09699   0.21608   0.00000  Uiso   1.00
O360   O     0.55419   0.28261   0.30529   0.00000  Uiso   1.00
O361   O     0.00955   0.33200   0.82783   0.00000  Uiso   1.00
O362   O     0.16550   0.10717   0.31248   0.00000  Uiso   1.00
N363   N     0.46337   0.29307   0.29118   0.00000  Uiso   1.00
N364   N     0.07526   0.32828   0.95092   0.00000  Uiso   1.00
N365   N     0.18636   0.16806   0.29627   0.00000  Uiso   1.00
N366   N     0.96622   0.74798   0.22937   0.00000  Uiso   1.00
N367   N     0.07811   0.28318   0.88911   0.00000  Uiso   1.00
N368   N     0.18922   0.12296   0.23446   0.00000  Uiso   1.00
C369   C     0.97531   0.50978   0.70599   0.00000  Uiso   1.00
C370   C     0.00688   0.53068   0.77619   0.00000  Uiso   1.00
C371   C     0.03763   0.51424   0.84264   0.00000  Uiso   1.00
C372   C     0.06340   0.53820   0.90035   0.00000  Uiso   1.00
C373   C     0.11313   0.56471   0.01066   0.00000  Uiso   1.00
C374   C     0.90987   0.52330   0.66133   0.00000  Uiso   1.00
C375   C     0.85906   0.50066   0.63121   0.00000  Uiso   1.00
C376   C     0.80317   0.51842   0.59222   0.00000  Uiso   1.00
C377   C     0.20229   0.03347   0.52416   0.00000  Uiso   1.00
C378   C     0.00307   0.52457   0.66969   0.00000  Uiso   1.00
C379   C     0.03062   0.50300   0.64657   0.00000  Uiso   1.00
C380   C     0.05319   0.52182   0.61460   0.00000  Uiso   1.00
C381   C     0.09703   0.53885   0.55952   0.00000  Uiso   1.00
C382   C     0.96639   0.58158   0.69030   0.00000  Uiso   1.00
C383   C     0.00203   0.56968   0.76767   0.00000  Uiso   1.00
C384   C     0.02777   0.59367   0.82529   0.00000  Uiso   1.00
C385   C     0.05856   0.57727   0.89182   0.00000  Uiso   1.00
C386   C     0.90502   0.56230   0.65281   0.00000  Uiso   1.00
C387   C     0.84920   0.58009   0.61386   0.00000  Uiso   1.00
C388   C     0.79832   0.55748   0.58369   0.00000  Uiso   1.00
C389   C     0.99823   0.56357   0.66117   0.00000  Uiso   1.00
C390   C     0.02076   0.58243   0.62923   0.00000  Uiso   1.00
C391   C     0.04834   0.56089   0.60607   0.00000  Uiso   1.00
H392   H     0.97908   0.47942   0.71262   0.00000  Uiso   1.00
H393   H     0.04136   0.48405   0.84922   0.00000  Uiso   1.00
H394   H     0.86282   0.47048   0.63780   0.00000  Uiso   1.00
H395   H     0.03436   0.47282   0.65317   0.00000  Uiso   1.00
H396   H     0.10827   0.50639   0.99690   0.00000  Uiso   1.00
H397   H     0.73180   0.47776   0.55111   0.00000  Uiso   1.00
H398   H     0.09352   0.48270   0.58351   0.00000  Uiso   1.00
H399   H     0.96262   0.61194   0.68367   0.00000  Uiso   1.00
H400   H     0.02401   0.62385   0.81868   0.00000  Uiso   1.00
H401   H     0.84547   0.61027   0.60727   0.00000  Uiso   1.00
H402   H     0.01700   0.61261   0.62264   0.00000  Uiso   1.00
H403   H     0.09418   0.61985   0.97212   0.00000  Uiso   1.00
H404   H     0.21771   0.09123   0.52633   0.00000  Uiso   1.00
H405   H     0.07943   0.59616   0.55873   0.00000  Uiso   1.00
O406   O     0.14188   0.56856   0.07385   0.00000  Uiso   1.00
O407   O     0.14798   0.03100   0.48898   0.00000  Uiso   1.00
O408   O     0.12255   0.53748   0.53150   0.00000  Uiso   1.00
N409   N     0.09654   0.53146   0.97254   0.00000  Uiso   1.00
N410   N     0.74456   0.50470   0.55577   0.00000  Uiso   1.00
N411   N     0.08273   0.50931   0.58604   0.00000  Uiso   1.00
N412   N     0.08896   0.59251   0.95921   0.00000  Uiso   1.00
N413   N     0.23698   0.06575   0.54243   0.00000  Uiso   1.00
N414   N     0.07515   0.57036   0.57271   0.00000  Uiso   1.00
C415   C     0.13331   0.56949   0.35604   0.00000  Uiso   1.00
C416   C     0.07391   0.58531   0.29245   0.00000  Uiso   1.00
C417   C     0.01867   0.58447   0.28272   0.00000  Uiso   1.00
C418   C     0.96966   0.60044   0.22099   0.00000  Uiso   1.00
C419   C     0.87652   0.62255   0.12990   0.00000  Uiso   1.00
C420   C     0.17825   0.60193   0.38616   0.00000  Uiso   1.00
C421   C     0.71073   0.11505   0.45523   0.00000  Uiso   1.00
C422   C     0.74955   0.14501   0.47239   0.00000  Uiso   1.00
C423   C     0.81842   0.19290   0.52681   0.00000  Uiso   1.00
C424   C     0.15545   0.54171   0.32623   0.00000  Uiso   1.00
C425   C     0.16878   0.50421   0.34493   0.00000  Uiso   1.00
C426   C     0.18843   0.48347   0.31164   0.00000  Uiso   1.00
C427   C     0.22190   0.43787   0.27301   0.00000  Uiso   1.00
C428   C     0.14451   0.59936   0.26371   0.00000  Uiso   1.00
C429   C     0.08000   0.60153   0.24230   0.00000  Uiso   1.00
C430   C     0.03106   0.61751   0.18057   0.00000  Uiso   1.00
C431   C     0.97576   0.61669   0.17075   0.00000  Uiso   1.00
C432   C     0.68433   0.11815   0.33602   0.00000  Uiso   1.00
C433   C     0.72312   0.14809   0.35308   0.00000  Uiso   1.00
C434   C     0.75565   0.16126   0.42216   0.00000  Uiso   1.00
C435   C     0.16153   0.55794   0.27608   0.00000  Uiso   1.00
C436   C     0.18117   0.53726   0.24277   0.00000  Uiso   1.00
C437   C     0.19452   0.49973   0.26141   0.00000  Uiso   1.00
H438   H     0.12858   0.55686   0.39508   0.00000  Uiso   1.00
H439   H     0.01398   0.57191   0.32155   0.00000  Uiso   1.00
H440   H     0.70601   0.10249   0.49403   0.00000  Uiso   1.00
H441   H     0.16407   0.49166   0.38374   0.00000  Uiso   1.00
H442   H     0.88962   0.59576   0.21791   0.00000  Uiso   1.00
H443   H     0.79454   0.16022   0.58161   0.00000  Uiso   1.00
H444   H     0.20610   0.42653   0.34904   0.00000  Uiso   1.00
H445   H     0.14925   0.61199   0.22467   0.00000  Uiso   1.00
H446   H     0.03578   0.63007   0.14177   0.00000  Uiso   1.00
H447   H     0.72782   0.16064   0.31426   0.00000  Uiso   1.00
H448   H     0.18587   0.54982   0.20397   0.00000  Uiso   1.00
H449   H     0.90732   0.64297   0.07201   0.00000  Uiso   1.00
H450   H     0.81224   0.20742   0.43571   0.00000  Uiso   1.00
H451   H     0.22379   0.47373   0.20313   0.00000  Uiso   1.00
O452   O     0.32346   0.13027   0.09352   0.00000  Uiso   1.00
O453   O     0.85471   0.21483   0.57068   0.00000  Uiso   1.00
O454   O     0.23867   0.40824   0.26555   0.00000  Uiso   1.00
N455   N     0.90935   0.60439   0.19494   0.00000  Uiso   1.00
N456   N     0.78793   0.16465   0.53498   0.00000  Uiso   1.00
N457   N     0.20525   0.44618   0.31755   0.00000  Uiso   1.00
N458   N     0.91888   0.62978   0.11643   0.00000  Uiso   1.00
N459   N     0.79745   0.19005   0.45646   0.00000  Uiso   1.00
N460   N     0.21477   0.47157   0.23904   0.00000  Uiso   1.00
C461   C     0.89610   0.23868   0.93800   0.00000  Uiso   1.00
C462   C     0.83409   0.22341   0.91199   0.00000  Uiso   1.00
C463   C     0.80683   0.19170   0.87045   0.00000  Uiso   1.00
C464   C     0.74997   0.18238   0.85226   0.00000  Uiso   1.00
C465   C     0.65804   0.15537   0.80848   0.00000  Uiso   1.00
C466   C     0.93247   0.24080   0.01839   0.00000  Uiso   1.00
C467   C     0.98792   0.22372   0.06630   0.00000  Uiso   1.00
C468   C     0.01387   0.22904   0.13767   0.00000  Uiso   1.00
C469   C     0.07469   0.22905   0.25907   0.00000  Uiso   1.00
C470   C     0.88577   0.27912   0.91210   0.00000  Uiso   1.00
C471   C     0.90197   0.29426   0.87066   0.00000  Uiso   1.00
C472   C     0.88862   0.33185   0.85256   0.00000  Uiso   1.00
C473   C     0.87693   0.39135   0.80893   0.00000  Uiso   1.00
C474   C     0.84360   0.27850   0.97957   0.00000  Uiso   1.00
C475   C     0.80558   0.24504   0.93458   0.00000  Uiso   1.00
C476   C     0.74875   0.23576   0.91644   0.00000  Uiso   1.00
C477   C     0.72140   0.20405   0.87488   0.00000  Uiso   1.00
C478   C     0.90395   0.26243   0.04097   0.00000  Uiso   1.00
C479   C     0.92983   0.26778   0.11229   0.00000  Uiso   1.00
C480   C     0.98531   0.25071   0.16030   0.00000  Uiso   1.00
C481   C     0.85725   0.30075   0.93468   0.00000  Uiso   1.00
C482   C     0.84388   0.33832   0.91665   0.00000  Uiso   1.00
C483   C     0.86005   0.35351   0.87518   0.00000  Uiso   1.00
H484   H     0.91830   0.22184   0.92042   0.00000  Uiso   1.00
H485   H     0.82891   0.17497   0.85299   0.00000  Uiso   1.00
H486   H     0.00997   0.20699   0.04881   0.00000  Uiso   1.00
H487   H     0.92403   0.27752   0.85319   0.00000  Uiso   1.00
H488   H     0.71724   0.13254   0.78821   0.00000  Uiso   1.00
H489   H     0.09903   0.20006   0.20110   0.00000  Uiso   1.00
H490   H     0.91781   0.34878   0.78861   0.00000  Uiso   1.00
H491   H     0.82140   0.29534   0.99715   0.00000  Uiso   1.00
H492   H     0.72669   0.25250   0.93392   0.00000  Uiso   1.00
H493   H     0.90776   0.28452   0.12975   0.00000  Uiso   1.00
H494   H     0.82182   0.35504   0.93413   0.00000  Uiso   1.00
H495   H     0.63428   0.19546   0.85390   0.00000  Uiso   1.00
H496   H     0.01607   0.26298   0.26680   0.00000  Uiso   1.00
H497   H     0.83485   0.41170   0.85431   0.00000  Uiso   1.00
O498   O     0.11521   0.63449   0.77810   0.00000  Uiso   1.00
O499   O     0.11611   0.22308   0.31980   0.00000  Uiso   1.00
O500   O     0.87835   0.41819   0.77862   0.00000  Uiso   1.00
N501   N     0.71071   0.15323   0.81233   0.00000  Uiso   1.00
N502   N     0.06765   0.21635   0.19837   0.00000  Uiso   1.00
N503   N     0.89824   0.35540   0.81274   0.00000  Uiso   1.00
N504   N     0.66606   0.18709   0.84768   0.00000  Uiso   1.00
N505   N     0.02301   0.25021   0.23371   0.00000  Uiso   1.00
N506   N     0.85360   0.38926   0.84809   0.00000  Uiso   1.00
C507   C     0.06274   0.95306   0.27184   0.00000  Uiso   1.00
C508   C     0.01790   0.93611   0.19869   0.00000  Uiso   1.00
C509   C     0.99597   0.95349   0.13466   0.00000  Uiso   1.00
C510   C     0.95527   0.93329   0.07355   0.00000  Uiso   1.00
C511   C     0.88842   0.91249   0.95953   0.00000  Uiso   1.00
C512   C     0.11558   0.92566   0.31140   0.00000  Uiso   1.00
C513   C     0.67578   0.43425   0.34213   0.00000  Uiso   1.00
C514   C     0.71731   0.40525   0.37591   0.00000  Uiso   1.00
C515   C     0.80211   0.36822   0.43690   0.00000  Uiso   1.00
C516   C     0.03193   0.95164   0.30909   0.00000  Uiso   1.00
C517   C     0.02182   0.98208   0.33792   0.00000  Uiso   1.00
C518   C     0.99293   0.97496   0.36977   0.00000  Uiso   1.00
C519   C     0.94787   0.97828   0.42719   0.00000  Uiso   1.00
C520   C     0.02945   0.88628   0.27717   0.00000  Uiso   1.00
C521   C     0.99982   0.89984   0.20159   0.00000  Uiso   1.00
C522   C     0.95914   0.87961   0.14056   0.00000  Uiso   1.00
C523   C     0.93716   0.89696   0.07645   0.00000  Uiso   1.00
C524   C     0.59750   0.38939   0.31429   0.00000  Uiso   1.00
C525   C     0.63895   0.36037   0.34803   0.00000  Uiso   1.00
C526   C     0.69920   0.36891   0.37881   0.00000  Uiso   1.00
C527   C     0.01385   0.91537   0.31199   0.00000  Uiso   1.00
C528   C     0.98498   0.90820   0.34381   0.00000  Uiso   1.00
C529   C     0.97482   0.93862   0.37267   0.00000  Uiso   1.00
H530   H     0.07682   0.98129   0.26959   0.00000  Uiso   1.00
H531   H     0.00998   0.98156   0.13245   0.00000  Uiso   1.00
H532   H     0.68976   0.46232   0.33989   0.00000  Uiso   1.00
H533   H     0.03581   0.01014   0.33567   0.00000  Uiso   1.00
H534   H     0.92792   0.96585   0.98167   0.00000  Uiso   1.00
H535   H     0.80699   0.42529   0.41910   0.00000  Uiso   1.00
H536   H     0.98238   0.02614   0.41020   0.00000  Uiso   1.00
H537   H     0.01537   0.85804   0.27943   0.00000  Uiso   1.00
H538   H     0.94516   0.85155   0.14281   0.00000  Uiso   1.00
H539   H     0.62494   0.33231   0.35026   0.00000  Uiso   1.00
H540   H     0.97100   0.88013   0.34604   0.00000  Uiso   1.00
H541   H     0.37531   0.36033   0.99008   0.00000  Uiso   1.00
H542   H     0.75439   0.31976   0.42752   0.00000  Uiso   1.00
H543   H     0.92977   0.92061   0.41861   0.00000  Uiso   1.00
O544   O     0.35655   0.41103   0.89583   0.00000  Uiso   1.00
O545   O     0.85388   0.35782   0.46974   0.00000  Uiso   1.00
O546   O     0.92799   0.99013   0.45805   0.00000  Uiso   1.00
N547   N     0.92516   0.94191   0.00240   0.00000  Uiso   1.00
N548   N     0.77958   0.40398   0.41136   0.00000  Uiso   1.00
N549   N     0.97610   0.99827   0.40305   0.00000  Uiso   1.00
N550   N     0.39685   0.38513   0.00692   0.00000  Uiso   1.00
N551   N     0.75127   0.34720   0.41589   0.00000  Uiso   1.00
N552   N     0.94779   0.94149   0.40758   0.00000  Uiso   1.00
C553   C     0.39039   0.55900   0.16071   0.00000  Uiso   1.00
C554   C     0.44075   0.57342   0.23412   0.00000  Uiso   1.00
C555   C     0.49872   0.58309   0.25654   0.00000  Uiso   1.00
C556   C     0.53819   0.59570   0.32571   0.00000  Uiso   1.00
C557   C     0.11910   0.11768   0.43283   0.00000  Uiso   1.00
C558   C     0.83718   0.08565   0.13258   0.00000  Uiso   1.00
C559   C     0.80808   0.10559   0.06962   0.00000  Uiso   1.00
C560   C     0.76035   0.12849   0.05331   0.00000  Uiso   1.00
C561   C     0.68046   0.16944   0.00276   0.00000  Uiso   1.00
C562   C     0.37061   0.52150   0.17228   0.00000  Uiso   1.00
C563   C     0.36959   0.48750   0.14269   0.00000  Uiso   1.00
C564   C     0.35000   0.45639   0.15980   0.00000  Uiso   1.00
C565   C     0.32201   0.39773   0.17090   0.00000  Uiso   1.00
C566   C     0.35739   0.56421   0.24369   0.00000  Uiso   1.00
C567   C     0.42282   0.57625   0.27919   0.00000  Uiso   1.00
C568   C     0.46221   0.58885   0.34834   0.00000  Uiso   1.00
C569   C     0.52023   0.59853   0.37086   0.00000  Uiso   1.00
C570   C     0.81926   0.08848   0.17765   0.00000  Uiso   1.00
C571   C     0.77157   0.11136   0.16142   0.00000  Uiso   1.00
C572   C     0.74240   0.13133   0.09846   0.00000  Uiso   1.00
C573   C     0.35269   0.52433   0.21736   0.00000  Uiso   1.00
C574   C     0.33309   0.49327   0.23450   0.00000  Uiso   1.00
C575   C     0.33205   0.45923   0.20495   0.00000  Uiso   1.00
H576   H     0.40434   0.55680   0.12561   0.00000  Uiso   1.00
H577   H     0.51257   0.58090   0.22164   0.00000  Uiso   1.00
H578   H     0.82195   0.10340   0.03475   0.00000  Uiso   1.00
H579   H     0.38346   0.48532   0.10782   0.00000  Uiso   1.00
H580   H     0.12466   0.10888   0.34797   0.00000  Uiso   1.00
H581   H     0.72271   0.15630   0.95388   0.00000  Uiso   1.00
H582   H     0.35242   0.40733   0.10796   0.00000  Uiso   1.00
H583   H     0.84344   0.06641   0.27878   0.00000  Uiso   1.00
H584   H     0.44833   0.59104   0.38321   0.00000  Uiso   1.00
H585   H     0.75771   0.11354   0.19631   0.00000  Uiso   1.00
H586   H     0.31922   0.49547   0.26938   0.00000  Uiso   1.00
H587   H     0.57252   0.61711   0.47910   0.00000  Uiso   1.00
H588   H     0.67057   0.16454   0.08501   0.00000  Uiso   1.00
H589   H     0.30028   0.41556   0.23910   0.00000  Uiso   1.00
O590   O     0.16868   0.12903   0.47946   0.00000  Uiso   1.00
O591   O     0.64134   0.19125   0.96243   0.00000  Uiso   1.00
O592   O     0.31152   0.36460   0.16458   0.00000  Uiso   1.00
N593   N     0.59800   0.60743   0.36450   0.00000  Uiso   1.00
N594   N     0.72221   0.15177   0.99606   0.00000  Uiso   1.00
N595   N     0.34346   0.41900   0.14010   0.00000  Uiso   1.00
N596   N     0.56994   0.61186   0.43507   0.00000  Uiso   1.00
N597   N     0.69415   0.15620   0.06662   0.00000  Uiso   1.00
N598   N     0.31540   0.42343   0.21066   0.00000  Uiso   1.00
C599   C     0.74144   0.23290   0.68493   0.00000  Uiso   1.00
C600   C     0.80331   0.23677   0.69911   0.00000  Uiso   1.00
C601   C     0.85373   0.21489   0.74546   0.00000  Uiso   1.00
C602   C     0.90610   0.22285   0.75094   0.00000  Uiso   1.00
C603   C     0.50187   0.72446   0.77895   0.00000  Uiso   1.00
C604   C     0.69634   0.22706   0.60533   0.00000  Uiso   1.00
C605   C     0.65683   0.19703   0.57283   0.00000  Uiso   1.00
C606   C     0.61916   0.19682   0.49937   0.00000  Uiso   1.00
C607   C     0.54884   0.18338   0.38178   0.00000  Uiso   1.00
C608   C     0.72698   0.27122   0.70052   0.00000  Uiso   1.00
C609   C     0.71320   0.27831   0.74804   0.00000  Uiso   1.00
C610   C     0.70131   0.31528   0.75470   0.00000  Uiso   1.00
C611   C     0.67855   0.37039   0.78491   0.00000  Uiso   1.00
C612   C     0.74479   0.28593   0.61224   0.00000  Uiso   1.00
C613   C     0.80512   0.26557   0.65963   0.00000  Uiso   1.00
C614   C     0.85744   0.27357   0.66505   0.00000  Uiso   1.00
C615   C     0.90793   0.25171   0.71140   0.00000  Uiso   1.00
C616   C     0.69816   0.25586   0.56585   0.00000  Uiso   1.00
C617   C     0.66054   0.25570   0.49242   0.00000  Uiso   1.00
C618   C     0.62098   0.22568   0.45982   0.00000  Uiso   1.00
C619   C     0.72880   0.30002   0.66104   0.00000  Uiso   1.00
C620   C     0.71691   0.33699   0.66763   0.00000  Uiso   1.00
C621   C     0.70313   0.34414   0.71515   0.00000  Uiso   1.00
H622   H     0.74002   0.21048   0.71566   0.00000  Uiso   1.00
H623   H     0.85230   0.19260   0.77600   0.00000  Uiso   1.00
H624   H     0.65543   0.17474   0.60340   0.00000  Uiso   1.00
H625   H     0.71180   0.25601   0.77858   0.00000  Uiso   1.00
H626   H     0.97758   0.18548   0.82547   0.00000  Uiso   1.00
H627   H     0.56245   0.14783   0.46153   0.00000  Uiso   1.00
H628   H     0.68131   0.31920   0.83094   0.00000  Uiso   1.00
H629   H     0.74621   0.30836   0.58151   0.00000  Uiso   1.00
H630   H     0.85883   0.29586   0.63449   0.00000  Uiso   1.00
H631   H     0.66196   0.27800   0.46189   0.00000  Uiso   1.00
H632   H     0.71833   0.35927   0.63707   0.00000  Uiso   1.00
H633   H     0.48288   0.76929   0.71061   0.00000  Uiso   1.00
H634   H     0.56774   0.23164   0.34667   0.00000  Uiso   1.00
H635   H     0.68661   0.40301   0.71608   0.00000  Uiso   1.00
O636   O     0.05419   0.21739   0.80529   0.00000  Uiso   1.00
O637   O     0.50955   0.16800   0.32783   0.00000  Uiso   1.00
O638   O     0.66550   0.39283   0.81248   0.00000  Uiso   1.00
N639   N     0.96337   0.20693   0.79118   0.00000  Uiso   1.00
N640   N     0.57526   0.17172   0.45092   0.00000  Uiso   1.00
N641   N     0.68636   0.33194   0.79627   0.00000  Uiso   1.00
N642   N     0.46622   0.75202   0.72937   0.00000  Uiso   1.00
N643   N     0.57811   0.21682   0.38911   0.00000  Uiso   1.00
N644   N     0.68922   0.37704   0.73446   0.00000  Uiso   1.00
C645   C     0.47531   0.99022   0.20599   0.00000  Uiso   1.00
C646   C     0.50688   0.96932   0.27619   0.00000  Uiso   1.00
C647   C     0.53763   0.98576   0.34264   0.00000  Uiso   1.00
C648   C     0.56340   0.96180   0.40035   0.00000  Uiso   1.00
C649   C     0.61313   0.93529   0.51066   0.00000  Uiso   1.00
C650   C     0.40987   0.97670   0.16133   0.00000  Uiso   1.00
C651   C     0.35906   0.99934   0.13121   0.00000  Uiso   1.00
C652   C     0.30317   0.98158   0.09222   0.00000  Uiso   1.00
C653   C     0.70229   0.46653   0.02416   0.00000  Uiso   1.00
C654   C     0.50307   0.97543   0.16969   0.00000  Uiso   1.00
C655   C     0.53062   0.99700   0.14657   0.00000  Uiso   1.00
C656   C     0.55319   0.97818   0.11460   0.00000  Uiso   1.00
C657   C     0.59703   0.96115   0.05952   0.00000  Uiso   1.00
C658   C     0.46639   0.91842   0.19030   0.00000  Uiso   1.00
C659   C     0.50203   0.93032   0.26767   0.00000  Uiso   1.00
C660   C     0.52777   0.90633   0.32529   0.00000  Uiso   1.00
C661   C     0.55856   0.92273   0.39182   0.00000  Uiso   1.00
C662   C     0.40502   0.93770   0.15281   0.00000  Uiso   1.00
C663   C     0.34920   0.91991   0.11386   0.00000  Uiso   1.00
C664   C     0.29832   0.94252   0.08369   0.00000  Uiso   1.00
C665   C     0.49823   0.93643   0.16117   0.00000  Uiso   1.00
C666   C     0.52076   0.91757   0.12923   0.00000  Uiso   1.00
C667   C     0.54834   0.93911   0.10607   0.00000  Uiso   1.00
H668   H     0.47908   0.02058   0.21262   0.00000  Uiso   1.00
H669   H     0.54136   0.01595   0.34922   0.00000  Uiso   1.00
H670   H     0.36282   0.02952   0.13780   0.00000  Uiso   1.00
H671   H     0.53436   0.02718   0.15317   0.00000  Uiso   1.00
H672   H     0.60827   0.99361   0.49690   0.00000  Uiso   1.00
H673   H     0.23180   0.02224   0.05111   0.00000  Uiso   1.00
H674   H     0.59352   0.01730   0.08351   0.00000  Uiso   1.00
H675   H     0.46262   0.88806   0.18367   0.00000  Uiso   1.00
H676   H     0.52401   0.87615   0.31868   0.00000  Uiso   1.00
H677   H     0.34547   0.88973   0.10727   0.00000  Uiso   1.00
H678   H     0.51700   0.88739   0.12264   0.00000  Uiso   1.00
H679   H     0.59418   0.88015   0.47212   0.00000  Uiso   1.00
H680   H     0.71771   0.40877   0.02633   0.00000  Uiso   1.00
H681   H     0.57943   0.90384   0.05873   0.00000  Uiso   1.00
O682   O     0.64188   0.93144   0.57385   0.00000  Uiso   1.00
O683   O     0.64798   0.46900   0.98898   0.00000  Uiso   1.00
O684   O     0.62255   0.96252   0.03150   0.00000  Uiso   1.00
N685   N     0.59654   0.96854   0.47254   0.00000  Uiso   1.00
N686   N     0.24456   0.99530   0.05577   0.00000  Uiso   1.00
N687   N     0.58273   0.99069   0.08604   0.00000  Uiso   1.00
N688   N     0.58896   0.90749   0.45921   0.00000  Uiso   1.00
N689   N     0.73698   0.43425   0.04243   0.00000  Uiso   1.00
N690   N     0.57515   0.92964   0.07271   0.00000  Uiso   1.00
C691   C     0.63331   0.93051   0.85604   0.00000  Uiso   1.00
C692   C     0.57391   0.91469   0.79245   0.00000  Uiso   1.00
C693   C     0.51867   0.91553   0.78272   0.00000  Uiso   1.00
C694   C     0.46966   0.89956   0.72099   0.00000  Uiso   1.00
C695   C     0.37652   0.87745   0.62990   0.00000  Uiso   1.00
C696   C     0.67825   0.89807   0.88616   0.00000  Uiso   1.00
C697   C     0.21073   0.38495   0.95523   0.00000  Uiso   1.00
C698   C     0.24955   0.35499   0.97239   0.00000  Uiso   1.00
C699   C     0.31842   0.30710   0.02681   0.00000  Uiso   1.00
C700   C     0.65545   0.95829   0.82623   0.00000  Uiso   1.00
C701   C     0.66878   0.99579   0.84493   0.00000  Uiso   1.00
C702   C     0.68843   0.01653   0.81164   0.00000  Uiso   1.00
C703   C     0.72190   0.06213   0.77301   0.00000  Uiso   1.00
C704   C     0.64451   0.90064   0.76371   0.00000  Uiso   1.00
C705   C     0.58000   0.89847   0.74230   0.00000  Uiso   1.00
C706   C     0.53106   0.88249   0.68057   0.00000  Uiso   1.00
C707   C     0.47576   0.88331   0.67075   0.00000  Uiso   1.00
C708   C     0.18433   0.38185   0.83602   0.00000  Uiso   1.00
C709   C     0.22312   0.35191   0.85308   0.00000  Uiso   1.00
C710   C     0.25565   0.33874   0.92216   0.00000  Uiso   1.00
C711   C     0.66153   0.94206   0.77608   0.00000  Uiso   1.00
C712   C     0.68117   0.96274   0.74277   0.00000  Uiso   1.00
C713   C     0.69452   0.00027   0.76141   0.00000  Uiso   1.00
H714   H     0.62858   0.94314   0.89508   0.00000  Uiso   1.00
H715   H     0.51398   0.92809   0.82155   0.00000  Uiso   1.00
H716   H     0.20601   0.39751   0.99403   0.00000  Uiso   1.00
H717   H     0.66407   0.00834   0.88374   0.00000  Uiso   1.00
H718   H     0.38962   0.90424   0.71791   0.00000  Uiso   1.00
H719   H     0.29454   0.33978   0.08161   0.00000  Uiso   1.00
H720   H     0.70610   0.07347   0.84904   0.00000  Uiso   1.00
H721   H     0.64925   0.88801   0.72467   0.00000  Uiso   1.00
H722   H     0.53578   0.86993   0.64177   0.00000  Uiso   1.00
H723   H     0.22782   0.33936   0.81426   0.00000  Uiso   1.00
H724   H     0.68587   0.95018   0.70397   0.00000  Uiso   1.00
H725   H     0.40732   0.85703   0.57201   0.00000  Uiso   1.00
H726   H     0.31224   0.29258   0.93571   0.00000  Uiso   1.00
H727   H     0.72379   0.02627   0.70313   0.00000  Uiso   1.00
O728   O     0.82346   0.36973   0.59352   0.00000  Uiso   1.00
O729   O     0.35471   0.28517   0.07068   0.00000  Uiso   1.00
O730   O     0.73867   0.09176   0.76555   0.00000  Uiso   1.00
N731   N     0.40935   0.89561   0.69494   0.00000  Uiso   1.00
N732   N     0.28793   0.33535   0.03498   0.00000  Uiso   1.00
N733   N     0.70525   0.05382   0.81755   0.00000  Uiso   1.00
N734   N     0.41888   0.87022   0.61643   0.00000  Uiso   1.00
N735   N     0.29745   0.30995   0.95646   0.00000  Uiso   1.00
N736   N     0.71477   0.02843   0.73904   0.00000  Uiso   1.00
C737   C     0.39610   0.26132   0.43800   0.00000  Uiso   1.00
C738   C     0.33409   0.27659   0.41199   0.00000  Uiso   1.00
C739   C     0.30683   0.30830   0.37045   0.00000  Uiso   1.00
C740   C     0.24997   0.31762   0.35226   0.00000  Uiso   1.00
C741   C     0.15804   0.34463   0.30848   0.00000  Uiso   1.00
C742   C     0.43247   0.25920   0.51839   0.00000  Uiso   1.00
C743   C     0.48792   0.27628   0.56630   0.00000  Uiso   1.00
C744   C     0.51387   0.27096   0.63767   0.00000  Uiso   1.00
C745   C     0.57469   0.27095   0.75907   0.00000  Uiso   1.00
C746   C     0.38577   0.22088   0.41210   0.00000  Uiso   1.00
C747   C     0.40197   0.20574   0.37066   0.00000  Uiso   1.00
C748   C     0.38862   0.16815   0.35256   0.00000  Uiso   1.00
C749   C     0.37693   0.10865   0.30893   0.00000  Uiso   1.00
C750   C     0.34360   0.22150   0.47957   0.00000  Uiso   1.00
C751   C     0.30558   0.25496   0.43458   0.00000  Uiso   1.00
C752   C     0.24875   0.26424   0.41644   0.00000  Uiso   1.00
C753   C     0.22140   0.29595   0.37488   0.00000  Uiso   1.00
C754   C     0.40395   0.23757   0.54097   0.00000  Uiso   1.00
C755   C     0.42983   0.23222   0.61229   0.00000  Uiso   1.00
C756   C     0.48531   0.24929   0.66030   0.00000  Uiso   1.00
C757   C     0.35725   0.19925   0.43468   0.00000  Uiso   1.00
C758   C     0.34388   0.16168   0.41665   0.00000  Uiso   1.00
C759   C     0.36005   0.14649   0.37518   0.00000  Uiso   1.00
H760   H     0.41830   0.27816   0.42042   0.00000  Uiso   1.00
H761   H     0.32891   0.32503   0.35299   0.00000  Uiso   1.00
H762   H     0.50997   0.29301   0.54881   0.00000  Uiso   1.00
H763   H     0.42403   0.22248   0.35319   0.00000  Uiso   1.00
H764   H     0.21724   0.36746   0.28821   0.00000  Uiso   1.00
H765   H     0.59903   0.29994   0.70110   0.00000  Uiso   1.00
H766   H     0.41781   0.15122   0.28861   0.00000  Uiso   1.00
H767   H     0.32140   0.20466   0.49715   0.00000  Uiso   1.00
H768   H     0.22669   0.24750   0.43392   0.00000  Uiso   1.00
H769   H     0.40776   0.21548   0.62975   0.00000  Uiso   1.00
H770   H     0.32182   0.14496   0.43413   0.00000  Uiso   1.00
H771   H     0.13428   0.30454   0.35390   0.00000  Uiso   1.00
H772   H     0.51607   0.23702   0.76680   0.00000  Uiso   1.00
H773   H     0.33485   0.08830   0.35431   0.00000  Uiso   1.00
O774   O     0.61521   0.86551   0.27810   0.00000  Uiso   1.00
O775   O     0.61611   0.27692   0.81980   0.00000  Uiso   1.00
O776   O     0.37835   0.08181   0.27862   0.00000  Uiso   1.00
N777   N     0.21071   0.34677   0.31233   0.00000  Uiso   1.00
N778   N     0.56765   0.28365   0.69837   0.00000  Uiso   1.00
N779   N     0.39824   0.14460   0.31274   0.00000  Uiso   1.00
N780   N     0.16606   0.31291   0.34768   0.00000  Uiso   1.00
N781   N     0.52301   0.24979   0.73371   0.00000  Uiso   1.00
N782   N     0.35360   0.11074   0.34809   0.00000  Uiso   1.00
C783   C     0.56274   0.54694   0.77184   0.00000  Uiso   1.00
C784   C     0.51790   0.56389   0.69869   0.00000  Uiso   1.00
C785   C     0.49597   0.54651   0.63466   0.00000  Uiso   1.00
C786   C     0.45527   0.56671   0.57355   0.00000  Uiso   1.00
C787   C     0.38842   0.58751   0.45953   0.00000  Uiso   1.00
C788   C     0.61558   0.57434   0.81140   0.00000  Uiso   1.00
C789   C     0.17578   0.06575   0.84213   0.00000  Uiso   1.00
C790   C     0.21731   0.09475   0.87591   0.00000  Uiso   1.00
C791   C     0.30211   0.13178   0.93690   0.00000  Uiso   1.00
C792   C     0.53193   0.54836   0.80909   0.00000  Uiso   1.00
C793   C     0.52182   0.51792   0.83792   0.00000  Uiso   1.00
C794   C     0.49293   0.52504   0.86977   0.00000  Uiso   1.00
C795   C     0.44787   0.52172   0.92719   0.00000  Uiso   1.00
C796   C     0.52945   0.61372   0.77717   0.00000  Uiso   1.00
C797   C     0.49982   0.60016   0.70159   0.00000  Uiso   1.00
C798   C     0.45914   0.62039   0.64056   0.00000  Uiso   1.00
C799   C     0.43716   0.60304   0.57645   0.00000  Uiso   1.00
C800   C     0.09750   0.11061   0.81429   0.00000  Uiso   1.00
C801   C     0.13895   0.13963   0.84803   0.00000  Uiso   1.00
C802   C     0.19920   0.13109   0.87881   0.00000  Uiso   1.00
C803   C     0.51385   0.58463   0.81199   0.00000  Uiso   1.00
C804   C     0.48498   0.59180   0.84381   0.00000  Uiso   1.00
C805   C     0.47482   0.56138   0.87267   0.00000  Uiso   1.00
H806   H     0.57682   0.51871   0.76959   0.00000  Uiso   1.00
H807   H     0.50998   0.51844   0.63245   0.00000  Uiso   1.00
H808   H     0.18976   0.03768   0.83989   0.00000  Uiso   1.00
H809   H     0.53581   0.48986   0.83567   0.00000  Uiso   1.00
H810   H     0.42792   0.53415   0.48167   0.00000  Uiso   1.00
H811   H     0.30699   0.07471   0.91910   0.00000  Uiso   1.00
H812   H     0.48238   0.47386   0.91020   0.00000  Uiso   1.00
H813   H     0.51537   0.64196   0.77943   0.00000  Uiso   1.00
H814   H     0.44516   0.64845   0.64281   0.00000  Uiso   1.00
H815   H     0.12494   0.16769   0.85026   0.00000  Uiso   1.00
H816   H     0.47100   0.61987   0.84604   0.00000  Uiso   1.00
H817   H     0.87531   0.13967   0.49008   0.00000  Uiso   1.00
H818   H     0.25439   0.18024   0.92752   0.00000  Uiso   1.00
H819   H     0.42977   0.57939   0.91861   0.00000  Uiso   1.00
O820   O     0.85655   0.08897   0.39583   0.00000  Uiso   1.00
O821   O     0.35388   0.14218   0.96974   0.00000  Uiso   1.00
O822   O     0.42799   0.50987   0.95805   0.00000  Uiso   1.00
N823   N     0.42516   0.55809   0.50240   0.00000  Uiso   1.00
N824   N     0.27958   0.09602   0.91136   0.00000  Uiso   1.00
N825   N     0.47610   0.50173   0.90305   0.00000  Uiso   1.00
N826   N     0.89685   0.11487   0.50692   0.00000  Uiso   1.00
N827   N     0.25127   0.15280   0.91589   0.00000  Uiso   1.00
N828   N     0.44779   0.55851   0.90758   0.00000  Uiso   1.00
C829   C     0.89039   0.05900   0.16071   0.00000  Uiso   1.00
C830   C     0.94075   0.07342   0.23412   0.00000  Uiso   1.00
C831   C     0.99872   0.08309   0.25654   0.00000  Uiso   1.00
C832   C     0.03819   0.09570   0.32571   0.00000  Uiso   1.00
C833   C     0.61910   0.61768   0.43283   0.00000  Uiso   1.00
C834   C     0.33718   0.58565   0.13258   0.00000  Uiso   1.00
C835   C     0.30808   0.60559   0.06962   0.00000  Uiso   1.00
C836   C     0.26035   0.62849   0.05331   0.00000  Uiso   1.00
C837   C     0.18046   0.66944   0.00276   0.00000  Uiso   1.00
C838   C     0.87061   0.02150   0.17228   0.00000  Uiso   1.00
C839   C     0.86959   0.98750   0.14269   0.00000  Uiso   1.00
C840   C     0.85000   0.95639   0.15980   0.00000  Uiso   1.00
C841   C     0.82201   0.89773   0.17090   0.00000  Uiso   1.00
C842   C     0.85739   0.06421   0.24369   0.00000  Uiso   1.00
C843   C     0.92282   0.07625   0.27919   0.00000  Uiso   1.00
C844   C     0.96221   0.08885   0.34834   0.00000  Uiso   1.00
C845   C     0.02023   0.09853   0.37086   0.00000  Uiso   1.00
C846   C     0.31926   0.58848   0.17765   0.00000  Uiso   1.00
C847   C     0.27157   0.61136   0.16142   0.00000  Uiso   1.00
C848   C     0.24240   0.63133   0.09846   0.00000  Uiso   1.00
C849   C     0.85269   0.02433   0.21736   0.00000  Uiso   1.00
C850   C     0.83309   0.99327   0.23450   0.00000  Uiso   1.00
C851   C     0.83205   0.95923   0.20495   0.00000  Uiso   1.00
H852   H     0.90434   0.05680   0.12561   0.00000  Uiso   1.00
H853   H     0.01257   0.08090   0.22164   0.00000  Uiso   1.00
H854   H     0.32195   0.60340   0.03475   0.00000  Uiso   1.00
H855   H     0.88346   0.98532   0.10782   0.00000  Uiso   1.00
H856   H     0.62466   0.60888   0.34797   0.00000  Uiso   1.00
H857   H     0.22271   0.65630   0.95388   0.00000  Uiso   1.00
H858   H     0.85242   0.90733   0.10796   0.00000  Uiso   1.00
H859   H     0.34344   0.56641   0.27878   0.00000  Uiso   1.00
H860   H     0.94833   0.09104   0.38321   0.00000  Uiso   1.00
H861   H     0.25771   0.61354   0.19631   0.00000  Uiso   1.00
H862   H     0.81922   0.99547   0.26938   0.00000  Uiso   1.00
H863   H     0.07252   0.11711   0.47910   0.00000  Uiso   1.00
H864   H     0.17057   0.66454   0.08501   0.00000  Uiso   1.00
H865   H     0.80028   0.91556   0.23910   0.00000  Uiso   1.00
O866   O     0.66868   0.62903   0.47946   0.00000  Uiso   1.00
O867   O     0.14134   0.69125   0.96243   0.00000  Uiso   1.00
O868   O     0.81152   0.86460   0.16458   0.00000  Uiso   1.00
N869   N     0.09800   0.10743   0.36450   0.00000  Uiso   1.00
N870   N     0.22221   0.65177   0.99606   0.00000  Uiso   1.00
N871   N     0.84346   0.91900   0.14010   0.00000  Uiso   1.00
N872   N     0.06994   0.11186   0.43507   0.00000  Uiso   1.00
N873   N     0.19415   0.65620   0.06662   0.00000  Uiso   1.00
N874   N     0.81540   0.92343   0.21066   0.00000  Uiso   1.00
C875   C     0.24144   0.73290   0.68493   0.00000  Uiso   1.00
C876   C     0.30331   0.73677   0.69911   0.00000  Uiso   1.00
C877   C     0.35373   0.71489   0.74546   0.00000  Uiso   1.00
C878   C     0.40610   0.72285   0.75094   0.00000  Uiso   1.00
C879   C     0.00187   0.22446   0.77895   0.00000  Uiso   1.00
C880   C     0.19634   0.72706   0.60533   0.00000  Uiso   1.00
C881   C     0.15683   0.69703   0.57283   0.00000  Uiso   1.00
C882   C     0.11916   0.69682   0.49937   0.00000  Uiso   1.00
C883   C     0.04884   0.68338   0.38178   0.00000  Uiso   1.00
C884   C     0.22698   0.77122   0.70052   0.00000  Uiso   1.00
C885   C     0.21320   0.77831   0.74804   0.00000  Uiso   1.00
C886   C     0.20131   0.81528   0.75470   0.00000  Uiso   1.00
C887   C     0.17855   0.87039   0.78491   0.00000  Uiso   1.00
C888   C     0.24479   0.78593   0.61224   0.00000  Uiso   1.00
C889   C     0.30512   0.76557   0.65963   0.00000  Uiso   1.00
C890   C     0.35744   0.77357   0.66505   0.00000  Uiso   1.00
C891   C     0.40793   0.75171   0.71140   0.00000  Uiso   1.00
C892   C     0.19816   0.75586   0.56585   0.00000  Uiso   1.00
C893   C     0.16054   0.75570   0.49242   0.00000  Uiso   1.00
C894   C     0.12098   0.72568   0.45982   0.00000  Uiso   1.00
C895   C     0.22880   0.80002   0.66104   0.00000  Uiso   1.00
C896   C     0.21691   0.83699   0.66763   0.00000  Uiso   1.00
C897   C     0.20313   0.84414   0.71515   0.00000  Uiso   1.00
H898   H     0.24002   0.71048   0.71566   0.00000  Uiso   1.00
H899   H     0.35230   0.69260   0.77600   0.00000  Uiso   1.00
H900   H     0.15543   0.67474   0.60340   0.00000  Uiso   1.00
H901   H     0.21180   0.75601   0.77858   0.00000  Uiso   1.00
H902   H     0.47758   0.68548   0.82547   0.00000  Uiso   1.00
H903   H     0.06245   0.64783   0.46153   0.00000  Uiso   1.00
H904   H     0.18131   0.81920   0.83094   0.00000  Uiso   1.00
H905   H     0.24621   0.80836   0.58151   0.00000  Uiso   1.00
H906   H     0.35883   0.79586   0.63449   0.00000  Uiso   1.00
H907   H     0.16196   0.77800   0.46189   0.00000  Uiso   1.00
H908   H     0.21833   0.85927   0.63707   0.00000  Uiso   1.00
H909   H     0.98288   0.26929   0.71061   0.00000  Uiso   1.00
H910   H     0.06774   0.73164   0.34667   0.00000  Uiso   1.00
H911   H     0.18661   0.90301   0.71608   0.00000  Uiso   1.00
O912   O     0.55419   0.71739   0.80529   0.00000  Uiso   1.00
O913   O     0.00955   0.66800   0.32783   0.00000  Uiso   1.00
O914   O     0.16550   0.89283   0.81248   0.00000  Uiso   1.00
N915   N     0.46337   0.70693   0.79118   0.00000  Uiso   1.00
N916   N     0.07526   0.67172   0.45092   0.00000  Uiso   1.00
N917   N     0.18636   0.83194   0.79627   0.00000  Uiso   1.00
N918   N     0.96622   0.25202   0.72937   0.00000  Uiso   1.00
N919   N     0.07811   0.71682   0.38911   0.00000  Uiso   1.00
N920   N     0.18922   0.87704   0.73446   0.00000  Uiso   1.00
C921   C     0.97531   0.49022   0.20599   0.00000  Uiso   1.00
C922   C     0.00688   0.46932   0.27619   0.00000  Uiso   1.00
C923   C     0.03763   0.48576   0.34264   0.00000  Uiso   1.00
C924   C     0.06340   0.46180   0.40035   0.00000  Uiso   1.00
C925   C     0.11313   0.43529   0.51066   0.00000  Uiso   1.00
C926   C     0.90987   0.47670   0.16133   0.00000  Uiso   1.00
C927   C     0.85906   0.49934   0.13121   0.00000  Uiso   1.00
C928   C     0.80317   0.48158   0.09222   0.00000  Uiso   1.00
C929   C     0.20229   0.96653   0.02416   0.00000  Uiso   1.00
C930   C     0.00307   0.47543   0.16969   0.00000  Uiso   1.00
C931   C     0.03062   0.49700   0.14657   0.00000  Uiso   1.00
C932   C     0.05319   0.47818   0.11460   0.00000  Uiso   1.00
C933   C     0.09703   0.46115   0.05952   0.00000  Uiso   1.00
C934   C     0.96639   0.41842   0.19030   0.00000  Uiso   1.00
C935   C     0.00203   0.43032   0.26767   0.00000  Uiso   1.00
C936   C     0.02777   0.40633   0.32529   0.00000  Uiso   1.00
C937   C     0.05856   0.42273   0.39182   0.00000  Uiso   1.00
C938   C     0.90502   0.43770   0.15281   0.00000  Uiso   1.00
C939   C     0.84920   0.41991   0.11386   0.00000  Uiso   1.00
C940   C     0.79832   0.44252   0.08369   0.00000  Uiso   1.00
C941   C     0.99823   0.43643   0.16117   0.00000  Uiso   1.00
C942   C     0.02076   0.41757   0.12923   0.00000  Uiso   1.00
C943   C     0.04834   0.43911   0.10607   0.00000  Uiso   1.00
H944   H     0.97908   0.52058   0.21262   0.00000  Uiso   1.00
H945   H     0.04136   0.51595   0.34922   0.00000  Uiso   1.00
H946   H     0.86282   0.52952   0.13780   0.00000  Uiso   1.00
H947   H     0.03436   0.52718   0.15317   0.00000  Uiso   1.00
H948   H     0.10827   0.49361   0.49690   0.00000  Uiso   1.00
H949   H     0.73180   0.52224   0.05111   0.00000  Uiso   1.00
H950   H     0.09352   0.51730   0.08351   0.00000  Uiso   1.00
H951   H     0.96262   0.38806   0.18367   0.00000  Uiso   1.00
H952   H     0.02401   0.37615   0.31868   0.00000  Uiso   1.00
H953   H     0.84547   0.38973   0.10727   0.00000  Uiso   1.00
H954   H     0.01700   0.38739   0.12264   0.00000  Uiso   1.00
H955   H     0.09418   0.38015   0.47212   0.00000  Uiso   1.00
H956   H     0.21771   0.90877   0.02633   0.00000  Uiso   1.00
H957   H     0.07943   0.40384   0.05873   0.00000  Uiso   1.00
O958   O     0.14188   0.43144   0.57385   0.00000  Uiso   1.00
O959   O     0.14798   0.96900   0.98898   0.00000  Uiso   1.00
O960   O     0.12255   0.46252   0.03150   0.00000  Uiso   1.00
N961   N     0.09654   0.46854   0.47254   0.00000  Uiso   1.00
N962   N     0.74456   0.49530   0.05577   0.00000  Uiso   1.00
N963   N     0.08273   0.49069   0.08604   0.00000  Uiso   1.00
N964   N     0.08896   0.40749   0.45921   0.00000  Uiso   1.00
N965   N     0.23698   0.93425   0.04243   0.00000  Uiso   1.00
N966   N     0.07515   0.42964   0.07271   0.00000  Uiso   1.00
C967   C     0.13331   0.43051   0.85604   0.00000  Uiso   1.00
C968   C     0.07391   0.41469   0.79245   0.00000  Uiso   1.00
C969   C     0.01867   0.41553   0.78272   0.00000  Uiso   1.00
C970   C     0.96966   0.39956   0.72099   0.00000  Uiso   1.00
C971   C     0.87652   0.37745   0.62990   0.00000  Uiso   1.00
C972   C     0.17825   0.39807   0.88616   0.00000  Uiso   1.00
C973   C     0.71073   0.88495   0.95523   0.00000  Uiso   1.00
C974   C     0.74955   0.85499   0.97239   0.00000  Uiso   1.00
C975   C     0.81842   0.80710   0.02681   0.00000  Uiso   1.00
C976   C     0.15545   0.45829   0.82623   0.00000  Uiso   1.00
C977   C     0.16878   0.49579   0.84493   0.00000  Uiso   1.00
C978   C     0.18843   0.51653   0.81164   0.00000  Uiso   1.00
C979   C     0.22190   0.56213   0.77301   0.00000  Uiso   1.00
C980   C     0.14451   0.40064   0.76371   0.00000  Uiso   1.00
C981   C     0.08000   0.39847   0.74230   0.00000  Uiso   1.00
C982   C     0.03106   0.38249   0.68057   0.00000  Uiso   1.00
C983   C     0.97576   0.38331   0.67075   0.00000  Uiso   1.00
C984   C     0.68433   0.88185   0.83602   0.00000  Uiso   1.00
C985   C     0.72312   0.85191   0.85308   0.00000  Uiso   1.00
C986   C     0.75565   0.83874   0.92216   0.00000  Uiso   1.00
C987   C     0.16153   0.44206   0.77608   0.00000  Uiso   1.00
C988   C     0.18117   0.46274   0.74277   0.00000  Uiso   1.00
C989   C     0.19452   0.50027   0.76141   0.00000  Uiso   1.00
H990   H     0.12858   0.44314   0.89508   0.00000  Uiso   1.00
H991   H     0.01398   0.42809   0.82155   0.00000  Uiso   1.00
H992   H     0.70601   0.89751   0.99403   0.00000  Uiso   1.00
H993   H     0.16407   0.50834   0.88374   0.00000  Uiso   1.00
H994   H     0.88962   0.40424   0.71791   0.00000  Uiso   1.00
H995   H     0.79454   0.83978   0.08161   0.00000  Uiso   1.00
H996   H     0.20610   0.57347   0.84904   0.00000  Uiso   1.00
H997   H     0.14925   0.38801   0.72467   0.00000  Uiso   1.00
H998   H     0.03578   0.36993   0.64177   0.00000  Uiso   1.00
H999   H     0.72782   0.83936   0.81426   0.00000  Uiso   1.00
H1000  H     0.18587   0.45018   0.70397   0.00000  Uiso   1.00
H1001  H     0.90732   0.35703   0.57201   0.00000  Uiso   1.00
H1002  H     0.81224   0.79258   0.93571   0.00000  Uiso   1.00
H1003  H     0.22379   0.52627   0.70313   0.00000  Uiso   1.00
O1004  O     0.32346   0.86973   0.59352   0.00000  Uiso   1.00
O1005  O     0.85471   0.78517   0.07068   0.00000  Uiso   1.00
O1006  O     0.23867   0.59176   0.76555   0.00000  Uiso   1.00
N1007  N     0.90935   0.39561   0.69494   0.00000  Uiso   1.00
N1008  N     0.78793   0.83535   0.03498   0.00000  Uiso   1.00
N1009  N     0.20525   0.55382   0.81755   0.00000  Uiso   1.00
N1010  N     0.91888   0.37022   0.61643   0.00000  Uiso   1.00
N1011  N     0.79745   0.80995   0.95646   0.00000  Uiso   1.00
N1012  N     0.21477   0.52843   0.73904   0.00000  Uiso   1.00
C1013  C     0.89610   0.76132   0.43800   0.00000  Uiso   1.00
C1014  C     0.83409   0.77659   0.41199   0.00000  Uiso   1.00
C1015  C     0.80683   0.80830   0.37045   0.00000  Uiso   1.00
C1016  C     0.74997   0.81762   0.35226   0.00000  Uiso   1.00
C1017  C     0.65804   0.84463   0.30848   0.00000  Uiso   1.00
C1018  C     0.93247   0.75920   0.51839   0.00000  Uiso   1.00
C1019  C     0.98792   0.77628   0.56630   0.00000  Uiso   1.00
C1020  C     0.01387   0.77096   0.63767   0.00000  Uiso   1.00
C1021  C     0.07469   0.77095   0.75907   0.00000  Uiso   1.00
C1022  C     0.88577   0.72088   0.41210   0.00000  Uiso   1.00
C1023  C     0.90197   0.70574   0.37066   0.00000  Uiso   1.00
C1024  C     0.88862   0.66815   0.35256   0.00000  Uiso   1.00
C1025  C     0.87693   0.60865   0.30893   0.00000  Uiso   1.00
C1026  C     0.84360   0.72150   0.47957   0.00000  Uiso   1.00
C1027  C     0.80558   0.75496   0.43458   0.00000  Uiso   1.00
C1028  C     0.74875   0.76424   0.41644   0.00000  Uiso   1.00
C1029  C     0.72140   0.79595   0.37488   0.00000  Uiso   1.00
C1030  C     0.90395   0.73757   0.54097   0.00000  Uiso   1.00
C1031  C     0.92983   0.73222   0.61229   0.00000  Uiso   1.00
C1032  C     0.98531   0.74929   0.66030   0.00000  Uiso   1.00
C1033  C     0.85725   0.69925   0.43468   0.00000  Uiso   1.00
C1034  C     0.84388   0.66168   0.41665   0.00000  Uiso   1.00
C1035  C     0.86005   0.64649   0.37518   0.00000  Uiso   1.00
H1036  H     0.91830   0.77816   0.42042   0.00000  Uiso   1.00
H1037  H     0.82891   0.82503   0.35299   0.00000  Uiso   1.00
H1038  H     0.00997   0.79301   0.54881   0.00000  Uiso   1.00
H1039  H     0.92403   0.72248   0.35319   0.00000  Uiso   1.00
H1040  H     0.71724   0.86746   0.28821   0.00000  Uiso   1.00
H1041  H     0.09903   0.79994   0.70110   0.00000  Uiso   1.00
H1042  H     0.91781   0.65122   0.28861   0.00000  Uiso   1.00
H1043  H     0.82140   0.70466   0.49715   0.00000  Uiso   1.00
H1044  H     0.72669   0.74750   0.43392   0.00000  Uiso   1.00
H1045  H     0.90776   0.71548   0.62975   0.00000  Uiso   1.00
H1046  H     0.82182   0.64496   0.43413   0.00000  Uiso   1.00
H1047  H     0.63428   0.80454   0.35390   0.00000  Uiso   1.00
H1048  H     0.01607   0.73702   0.76680   0.00000  Uiso   1.00
H1049  H     0.83485   0.58830   0.35431   0.00000  Uiso   1.00
O1050  O     0.11521   0.36551   0.27810   0.00000  Uiso   1.00
O1051  O     0.11611   0.77692   0.81980   0.00000  Uiso   1.00
O1052  O     0.87835   0.58181   0.27862   0.00000  Uiso   1.00
N1053  N     0.71071   0.84677   0.31233   0.00000  Uiso   1.00
N1054  N     0.06765   0.78365   0.69837   0.00000  Uiso   1.00
N1055  N     0.89824   0.64460   0.31274   0.00000  Uiso   1.00
N1056  N     0.66606   0.81291   0.34768   0.00000  Uiso   1.00
N1057  N     0.02301   0.74979   0.73371   0.00000  Uiso   1.00
N1058  N     0.85360   0.61074   0.34809   0.00000  Uiso   1.00
C1059  C     0.06274   0.04694   0.77184   0.00000  Uiso   1.00
C1060  C     0.01790   0.06389   0.69869   0.00000  Uiso   1.00
C1061  C     0.99597   0.04651   0.63466   0.00000  Uiso   1.00
C1062  C     0.95527   0.06671   0.57355   0.00000  Uiso   1.00
C1063  C     0.88842   0.08751   0.45953   0.00000  Uiso   1.00
C1064  C     0.11558   0.07434   0.81140   0.00000  Uiso   1.00
C1065  C     0.67578   0.56575   0.84213   0.00000  Uiso   1.00
C1066  C     0.71731   0.59475   0.87591   0.00000  Uiso   1.00
C1067  C     0.80211   0.63178   0.93690   0.00000  Uiso   1.00
C1068  C     0.03193   0.04836   0.80909   0.00000  Uiso   1.00
C1069  C     0.02182   0.01792   0.83792   0.00000  Uiso   1.00
C1070  C     0.99293   0.02504   0.86977   0.00000  Uiso   1.00
C1071  C     0.94787   0.02172   0.92719   0.00000  Uiso   1.00
C1072  C     0.02945   0.11372   0.77717   0.00000  Uiso   1.00
C1073  C     0.99982   0.10016   0.70159   0.00000  Uiso   1.00
C1074  C     0.95914   0.12039   0.64056   0.00000  Uiso   1.00
C1075  C     0.93716   0.10304   0.57645   0.00000  Uiso   1.00
C1076  C     0.59750   0.61061   0.81429   0.00000  Uiso   1.00
C1077  C     0.63895   0.63963   0.84803   0.00000  Uiso   1.00
C1078  C     0.69920   0.63109   0.87881   0.00000  Uiso   1.00
C1079  C     0.01385   0.08463   0.81199   0.00000  Uiso   1.00
C1080  C     0.98498   0.09180   0.84381   0.00000  Uiso   1.00
C1081  C     0.97482   0.06138   0.87267   0.00000  Uiso   1.00
H1082  H     0.07682   0.01871   0.76959   0.00000  Uiso   1.00
H1083  H     0.00998   0.01844   0.63245   0.00000  Uiso   1.00
H1084  H     0.68976   0.53768   0.83989   0.00000  Uiso   1.00
H1085  H     0.03581   0.98986   0.83567   0.00000  Uiso   1.00
H1086  H     0.92792   0.03415   0.48167   0.00000  Uiso   1.00
H1087  H     0.80699   0.57471   0.91910   0.00000  Uiso   1.00
H1088  H     0.98238   0.97386   0.91020   0.00000  Uiso   1.00
H1089  H     0.01537   0.14196   0.77943   0.00000  Uiso   1.00
H1090  H     0.94516   0.14845   0.64281   0.00000  Uiso   1.00
H1091  H     0.62494   0.66769   0.85026   0.00000  Uiso   1.00
H1092  H     0.97100   0.11987   0.84604   0.00000  Uiso   1.00
H1093  H     0.37531   0.63967   0.49008   0.00000  Uiso   1.00
H1094  H     0.75439   0.68024   0.92752   0.00000  Uiso   1.00
H1095  H     0.92977   0.07939   0.91861   0.00000  Uiso   1.00
O1096  O     0.35655   0.58897   0.39583   0.00000  Uiso   1.00
O1097  O     0.85388   0.64218   0.96974   0.00000  Uiso   1.00
O1098  O     0.92799   0.00987   0.95805   0.00000  Uiso   1.00
N1099  N     0.92516   0.05809   0.50240   0.00000  Uiso   1.00
N1100  N     0.77958   0.59602   0.91136   0.00000  Uiso   1.00
N1101  N     0.97610   0.00173   0.90305   0.00000  Uiso   1.00
N1102  N     0.39685   0.61487   0.50692   0.00000  Uiso   1.00
N1103  N     0.75127   0.65280   0.91589   0.00000  Uiso   1.00
N1104  N     0.94779   0.05851   0.90758   0.00000  Uiso   1.00
