data_job_05881
_audit_creation_date              2018-12-19
_audit_creation_method            'Materials Studio'
_symmetry_space_group_name_H-M    'P1'
_symmetry_Int_Tables_number       1
_symmetry_cell_setting            triclinic
loop_
_symmetry_equiv_pos_as_xyz
  x,y,z
_cell_length_a                    39.6490
_cell_length_b                    39.6490
_cell_length_c                    7.3767
_cell_angle_alpha                 90.0000
_cell_angle_beta                  90.0000
_cell_angle_gamma                 90.0000
loop_
_atom_site_label
_atom_site_type_symbol
_atom_site_fract_x
_atom_site_fract_y
_atom_site_fract_z
_atom_site_U_iso_or_equiv
_atom_site_adp_type
_atom_site_occupancy
C1     C     0.10614   0.36361   0.49777   0.00000  Uiso   1.00
C2     C     0.14261   0.36448   0.56329   0.00000  Uiso   1.00
C3     C     0.17080   0.35681   0.45965   0.00000  Uiso   1.00
C4     C     0.20196   0.35911   0.54458   0.00000  Uiso   1.00
C5     C     0.25815   0.35898   0.61866   0.00000  Uiso   1.00
C6     C     0.08755   0.33981   0.62575   0.00000  Uiso   1.00
C7     C     0.06943   0.31141   0.57462   0.00000  Uiso   1.00
C8     C     0.05424   0.29295   0.71213   0.00000  Uiso   1.00
C9     C     0.02492   0.25453   0.88316   0.00000  Uiso   1.00
C10    C     0.09185   0.39867   0.53393   0.00000  Uiso   1.00
C11    C     0.07735   0.41977   0.40560   0.00000  Uiso   1.00
C12    C     0.06577   0.45086   0.46582   0.00000  Uiso   1.00
C13    C     0.04314   0.50384   0.49429   0.00000  Uiso   1.00
C14    C     0.11137   0.38132   0.83291   0.00000  Uiso   1.00
C15    C     0.14545   0.37410   0.74533   0.00000  Uiso   1.00
C16    C     0.17658   0.37641   0.83044   0.00000  Uiso   1.00
C17    C     0.20481   0.36875   0.72694   0.00000  Uiso   1.00
C18    C     0.09038   0.34943   0.80778   0.00000  Uiso   1.00
C19    C     0.07521   0.33101   0.94540   0.00000  Uiso   1.00
C20    C     0.05708   0.30258   0.89449   0.00000  Uiso   1.00
C21    C     0.09469   0.40830   0.71597   0.00000  Uiso   1.00
C22    C     0.08313   0.43936   0.77639   0.00000  Uiso   1.00
C23    C     0.06861   0.46050   0.64818   0.00000  Uiso   1.00
H24    H     0.10393   0.35612   0.35605   0.00000  Uiso   1.00
H25    H     0.16859   0.34936   0.31878   0.00000  Uiso   1.00
H26    H     0.06724   0.30397   0.43374   0.00000  Uiso   1.00
H27    H     0.07516   0.41231   0.26475   0.00000  Uiso   1.00
H28    H     0.24153   0.34611   0.35776   0.00000  Uiso   1.00
H29    H     0.02781   0.25040   0.60013   0.00000  Uiso   1.00
H30    H     0.04451   0.47886   0.24379   0.00000  Uiso   1.00
H31    H     0.11357   0.38881   0.97463   0.00000  Uiso   1.00
H32    H     0.17876   0.38385   0.97131   0.00000  Uiso   1.00
H33    H     0.07741   0.33846   0.08626   0.00000  Uiso   1.00
H34    H     0.08533   0.44680   0.91727   0.00000  Uiso   1.00
H35    H     0.24978   0.37410   0.88738   0.00000  Uiso   1.00
H36    H     0.03606   0.27839   0.12975   0.00000  Uiso   1.00
H37    H     0.05276   0.50685   0.77341   0.00000  Uiso   1.00
O38    O     0.28836   0.35624   0.60924   0.00000  Uiso   1.00
O39    O     0.00797   0.23068   0.92721   0.00000  Uiso   1.00
O40    O     0.02988   0.53041   0.45970   0.00000  Uiso   1.00
N41    N     0.23453   0.35338   0.48285   0.00000  Uiso   1.00
N42    N     0.03472   0.26390   0.70946   0.00000  Uiso   1.00
N43    N     0.05032   0.47748   0.37632   0.00000  Uiso   1.00
N44    N     0.23897   0.36844   0.76784   0.00000  Uiso   1.00
N45    N     0.03916   0.27896   0.99444   0.00000  Uiso   1.00
N46    N     0.05476   0.49254   0.66130   0.00000  Uiso   1.00
C47    C     0.60614   0.86361   0.99777   0.00000  Uiso   1.00
C48    C     0.64261   0.86448   0.06329   0.00000  Uiso   1.00
C49    C     0.67080   0.85681   0.95965   0.00000  Uiso   1.00
C50    C     0.70196   0.85911   0.04458   0.00000  Uiso   1.00
C51    C     0.75815   0.85898   0.11866   0.00000  Uiso   1.00
C52    C     0.58755   0.83981   0.12575   0.00000  Uiso   1.00
C53    C     0.56943   0.81141   0.07462   0.00000  Uiso   1.00
C54    C     0.55424   0.79295   0.21213   0.00000  Uiso   1.00
C55    C     0.52492   0.75453   0.38316   0.00000  Uiso   1.00
C56    C     0.59185   0.89867   0.03393   0.00000  Uiso   1.00
C57    C     0.57735   0.91977   0.90560   0.00000  Uiso   1.00
C58    C     0.56577   0.95086   0.96582   0.00000  Uiso   1.00
C59    C     0.54314   0.00384   0.99429   0.00000  Uiso   1.00
C60    C     0.61137   0.88132   0.33291   0.00000  Uiso   1.00
C61    C     0.64545   0.87410   0.24533   0.00000  Uiso   1.00
C62    C     0.67658   0.87641   0.33044   0.00000  Uiso   1.00
C63    C     0.70481   0.86875   0.22694   0.00000  Uiso   1.00
C64    C     0.59038   0.84943   0.30778   0.00000  Uiso   1.00
C65    C     0.57521   0.83101   0.44540   0.00000  Uiso   1.00
C66    C     0.55708   0.80258   0.39449   0.00000  Uiso   1.00
C67    C     0.59469   0.90830   0.21597   0.00000  Uiso   1.00
C68    C     0.58313   0.93936   0.27639   0.00000  Uiso   1.00
C69    C     0.56861   0.96050   0.14818   0.00000  Uiso   1.00
H70    H     0.60393   0.85612   0.85605   0.00000  Uiso   1.00
H71    H     0.66859   0.84936   0.81878   0.00000  Uiso   1.00
H72    H     0.56724   0.80397   0.93374   0.00000  Uiso   1.00
H73    H     0.57516   0.91231   0.76475   0.00000  Uiso   1.00
H74    H     0.74153   0.84611   0.85776   0.00000  Uiso   1.00
H75    H     0.52781   0.75040   0.10013   0.00000  Uiso   1.00
H76    H     0.54451   0.97886   0.74379   0.00000  Uiso   1.00
H77    H     0.61357   0.88881   0.47463   0.00000  Uiso   1.00
H78    H     0.67876   0.88385   0.47131   0.00000  Uiso   1.00
H79    H     0.57741   0.83846   0.58626   0.00000  Uiso   1.00
H80    H     0.58533   0.94680   0.41727   0.00000  Uiso   1.00
H81    H     0.74978   0.87410   0.38738   0.00000  Uiso   1.00
H82    H     0.53606   0.77839   0.62975   0.00000  Uiso   1.00
H83    H     0.55276   0.00685   0.27341   0.00000  Uiso   1.00
O84    O     0.78836   0.85624   0.10924   0.00000  Uiso   1.00
O85    O     0.50797   0.73068   0.42721   0.00000  Uiso   1.00
O86    O     0.52988   0.03041   0.95970   0.00000  Uiso   1.00
N87    N     0.73453   0.85338   0.98285   0.00000  Uiso   1.00
N88    N     0.53472   0.76390   0.20946   0.00000  Uiso   1.00
N89    N     0.55032   0.97748   0.87632   0.00000  Uiso   1.00
N90    N     0.73897   0.86844   0.26784   0.00000  Uiso   1.00
N91    N     0.53916   0.77896   0.49444   0.00000  Uiso   1.00
N92    N     0.55476   0.99254   0.16130   0.00000  Uiso   1.00
C93    C     0.39386   0.13639   0.99777   0.00000  Uiso   1.00
C94    C     0.35739   0.13552   0.06329   0.00000  Uiso   1.00
C95    C     0.32920   0.14319   0.95965   0.00000  Uiso   1.00
C96    C     0.29804   0.14089   0.04458   0.00000  Uiso   1.00
C97    C     0.24185   0.14102   0.11866   0.00000  Uiso   1.00
C98    C     0.41245   0.16019   0.12575   0.00000  Uiso   1.00
C99    C     0.43057   0.18859   0.07462   0.00000  Uiso   1.00
C100   C     0.44576   0.20705   0.21213   0.00000  Uiso   1.00
C101   C     0.47508   0.24547   0.38316   0.00000  Uiso   1.00
C102   C     0.40815   0.10133   0.03393   0.00000  Uiso   1.00
C103   C     0.42265   0.08023   0.90560   0.00000  Uiso   1.00
C104   C     0.43423   0.04914   0.96582   0.00000  Uiso   1.00
C105   C     0.45686   0.99616   0.99429   0.00000  Uiso   1.00
C106   C     0.38863   0.11868   0.33291   0.00000  Uiso   1.00
C107   C     0.35455   0.12590   0.24533   0.00000  Uiso   1.00
C108   C     0.32342   0.12359   0.33044   0.00000  Uiso   1.00
C109   C     0.29519   0.13125   0.22694   0.00000  Uiso   1.00
C110   C     0.40962   0.15057   0.30778   0.00000  Uiso   1.00
C111   C     0.42479   0.16899   0.44540   0.00000  Uiso   1.00
C112   C     0.44292   0.19742   0.39449   0.00000  Uiso   1.00
C113   C     0.40531   0.09170   0.21597   0.00000  Uiso   1.00
C114   C     0.41687   0.06064   0.27639   0.00000  Uiso   1.00
C115   C     0.43139   0.03950   0.14818   0.00000  Uiso   1.00
H116   H     0.39607   0.14388   0.85605   0.00000  Uiso   1.00
H117   H     0.33141   0.15064   0.81878   0.00000  Uiso   1.00
H118   H     0.43276   0.19603   0.93374   0.00000  Uiso   1.00
H119   H     0.42484   0.08769   0.76475   0.00000  Uiso   1.00
H120   H     0.25847   0.15389   0.85776   0.00000  Uiso   1.00
H121   H     0.47219   0.24960   0.10013   0.00000  Uiso   1.00
H122   H     0.45549   0.02114   0.74379   0.00000  Uiso   1.00
H123   H     0.38643   0.11119   0.47463   0.00000  Uiso   1.00
H124   H     0.32124   0.11615   0.47131   0.00000  Uiso   1.00
H125   H     0.42259   0.16154   0.58626   0.00000  Uiso   1.00
H126   H     0.41467   0.05320   0.41727   0.00000  Uiso   1.00
H127   H     0.25022   0.12590   0.38738   0.00000  Uiso   1.00
H128   H     0.46394   0.22161   0.62975   0.00000  Uiso   1.00
H129   H     0.44724   0.99315   0.27341   0.00000  Uiso   1.00
O130   O     0.21164   0.14376   0.10924   0.00000  Uiso   1.00
O131   O     0.49203   0.26932   0.42721   0.00000  Uiso   1.00
O132   O     0.47012   0.96959   0.95970   0.00000  Uiso   1.00
N133   N     0.26547   0.14662   0.98285   0.00000  Uiso   1.00
N134   N     0.46528   0.23610   0.20946   0.00000  Uiso   1.00
N135   N     0.44968   0.02252   0.87632   0.00000  Uiso   1.00
N136   N     0.26103   0.13156   0.26784   0.00000  Uiso   1.00
N137   N     0.46084   0.22104   0.49444   0.00000  Uiso   1.00
N138   N     0.44524   0.00746   0.16130   0.00000  Uiso   1.00
C139   C     0.89386   0.63639   0.49777   0.00000  Uiso   1.00
C140   C     0.85739   0.63552   0.56329   0.00000  Uiso   1.00
C141   C     0.82920   0.64319   0.45965   0.00000  Uiso   1.00
C142   C     0.79804   0.64089   0.54458   0.00000  Uiso   1.00
C143   C     0.74185   0.64102   0.61866   0.00000  Uiso   1.00
C144   C     0.91245   0.66019   0.62575   0.00000  Uiso   1.00
C145   C     0.93057   0.68859   0.57462   0.00000  Uiso   1.00
C146   C     0.94576   0.70705   0.71213   0.00000  Uiso   1.00
C147   C     0.97508   0.74547   0.88316   0.00000  Uiso   1.00
C148   C     0.90815   0.60133   0.53393   0.00000  Uiso   1.00
C149   C     0.92265   0.58023   0.40560   0.00000  Uiso   1.00
C150   C     0.93423   0.54914   0.46582   0.00000  Uiso   1.00
C151   C     0.95686   0.49616   0.49429   0.00000  Uiso   1.00
C152   C     0.88863   0.61868   0.83291   0.00000  Uiso   1.00
C153   C     0.85455   0.62590   0.74533   0.00000  Uiso   1.00
C154   C     0.82342   0.62359   0.83044   0.00000  Uiso   1.00
C155   C     0.79519   0.63125   0.72694   0.00000  Uiso   1.00
C156   C     0.90962   0.65057   0.80778   0.00000  Uiso   1.00
C157   C     0.92479   0.66899   0.94540   0.00000  Uiso   1.00
C158   C     0.94292   0.69742   0.89449   0.00000  Uiso   1.00
C159   C     0.90531   0.59170   0.71597   0.00000  Uiso   1.00
C160   C     0.91687   0.56064   0.77639   0.00000  Uiso   1.00
C161   C     0.93139   0.53950   0.64818   0.00000  Uiso   1.00
H162   H     0.89607   0.64388   0.35605   0.00000  Uiso   1.00
H163   H     0.83141   0.65064   0.31878   0.00000  Uiso   1.00
H164   H     0.93276   0.69603   0.43374   0.00000  Uiso   1.00
H165   H     0.92484   0.58769   0.26475   0.00000  Uiso   1.00
H166   H     0.75847   0.65389   0.35776   0.00000  Uiso   1.00
H167   H     0.97219   0.74960   0.60013   0.00000  Uiso   1.00
H168   H     0.95549   0.52114   0.24379   0.00000  Uiso   1.00
H169   H     0.88643   0.61119   0.97463   0.00000  Uiso   1.00
H170   H     0.82124   0.61615   0.97131   0.00000  Uiso   1.00
H171   H     0.92259   0.66154   0.08626   0.00000  Uiso   1.00
H172   H     0.91467   0.55320   0.91727   0.00000  Uiso   1.00
H173   H     0.75022   0.62590   0.88738   0.00000  Uiso   1.00
H174   H     0.96394   0.72161   0.12975   0.00000  Uiso   1.00
H175   H     0.94724   0.49315   0.77341   0.00000  Uiso   1.00
O176   O     0.71164   0.64376   0.60924   0.00000  Uiso   1.00
O177   O     0.99203   0.76932   0.92721   0.00000  Uiso   1.00
O178   O     0.97012   0.46959   0.45970   0.00000  Uiso   1.00
N179   N     0.76547   0.64662   0.48285   0.00000  Uiso   1.00
N180   N     0.96528   0.73610   0.70946   0.00000  Uiso   1.00
N181   N     0.94968   0.52252   0.37632   0.00000  Uiso   1.00
N182   N     0.76103   0.63156   0.76784   0.00000  Uiso   1.00
N183   N     0.96084   0.72104   0.99444   0.00000  Uiso   1.00
N184   N     0.94524   0.50746   0.66130   0.00000  Uiso   1.00
C185   C     0.63639   0.60614   0.74777   0.00000  Uiso   1.00
C186   C     0.63552   0.64261   0.81329   0.00000  Uiso   1.00
C187   C     0.64319   0.67080   0.70965   0.00000  Uiso   1.00
C188   C     0.64089   0.70196   0.79458   0.00000  Uiso   1.00
C189   C     0.64102   0.75815   0.86866   0.00000  Uiso   1.00
C190   C     0.66019   0.58755   0.87575   0.00000  Uiso   1.00
C191   C     0.68859   0.56943   0.82462   0.00000  Uiso   1.00
C192   C     0.70705   0.55424   0.96213   0.00000  Uiso   1.00
C193   C     0.74547   0.52492   0.13316   0.00000  Uiso   1.00
C194   C     0.60133   0.59185   0.78393   0.00000  Uiso   1.00
C195   C     0.58023   0.57735   0.65560   0.00000  Uiso   1.00
C196   C     0.54914   0.56577   0.71582   0.00000  Uiso   1.00
C197   C     0.49616   0.54314   0.74429   0.00000  Uiso   1.00
C198   C     0.61868   0.61137   0.08291   0.00000  Uiso   1.00
C199   C     0.62590   0.64545   0.99533   0.00000  Uiso   1.00
C200   C     0.62359   0.67658   0.08044   0.00000  Uiso   1.00
C201   C     0.63125   0.70481   0.97694   0.00000  Uiso   1.00
C202   C     0.65057   0.59038   0.05778   0.00000  Uiso   1.00
C203   C     0.66899   0.57521   0.19540   0.00000  Uiso   1.00
C204   C     0.69742   0.55708   0.14449   0.00000  Uiso   1.00
C205   C     0.59170   0.59469   0.96597   0.00000  Uiso   1.00
C206   C     0.56064   0.58313   0.02639   0.00000  Uiso   1.00
C207   C     0.53950   0.56861   0.89818   0.00000  Uiso   1.00
H208   H     0.64388   0.60393   0.60605   0.00000  Uiso   1.00
H209   H     0.65064   0.66859   0.56878   0.00000  Uiso   1.00
H210   H     0.69603   0.56724   0.68374   0.00000  Uiso   1.00
H211   H     0.58769   0.57516   0.51475   0.00000  Uiso   1.00
H212   H     0.65389   0.74153   0.60776   0.00000  Uiso   1.00
H213   H     0.74960   0.52781   0.85013   0.00000  Uiso   1.00
H214   H     0.52114   0.54451   0.49379   0.00000  Uiso   1.00
H215   H     0.61119   0.61357   0.22463   0.00000  Uiso   1.00
H216   H     0.61615   0.67876   0.22131   0.00000  Uiso   1.00
H217   H     0.66154   0.57741   0.33626   0.00000  Uiso   1.00
H218   H     0.55320   0.58533   0.16727   0.00000  Uiso   1.00
H219   H     0.62590   0.74978   0.13738   0.00000  Uiso   1.00
H220   H     0.72161   0.53606   0.37975   0.00000  Uiso   1.00
H221   H     0.49315   0.55276   0.02341   0.00000  Uiso   1.00
O222   O     0.64376   0.78836   0.85924   0.00000  Uiso   1.00
O223   O     0.76932   0.50797   0.17721   0.00000  Uiso   1.00
O224   O     0.46959   0.52988   0.70970   0.00000  Uiso   1.00
N225   N     0.64662   0.73453   0.73285   0.00000  Uiso   1.00
N226   N     0.73610   0.53472   0.95946   0.00000  Uiso   1.00
N227   N     0.52252   0.55032   0.62632   0.00000  Uiso   1.00
N228   N     0.63156   0.73897   0.01784   0.00000  Uiso   1.00
N229   N     0.72104   0.53916   0.24444   0.00000  Uiso   1.00
N230   N     0.50746   0.55476   0.91130   0.00000  Uiso   1.00
C231   C     0.13639   0.10614   0.24777   0.00000  Uiso   1.00
C232   C     0.13552   0.14261   0.31329   0.00000  Uiso   1.00
C233   C     0.14319   0.17080   0.20965   0.00000  Uiso   1.00
C234   C     0.14089   0.20196   0.29458   0.00000  Uiso   1.00
C235   C     0.14102   0.25815   0.36866   0.00000  Uiso   1.00
C236   C     0.16019   0.08755   0.37575   0.00000  Uiso   1.00
C237   C     0.18859   0.06943   0.32462   0.00000  Uiso   1.00
C238   C     0.20705   0.05424   0.46213   0.00000  Uiso   1.00
C239   C     0.24547   0.02492   0.63316   0.00000  Uiso   1.00
C240   C     0.10133   0.09185   0.28393   0.00000  Uiso   1.00
C241   C     0.08023   0.07735   0.15560   0.00000  Uiso   1.00
C242   C     0.04914   0.06577   0.21582   0.00000  Uiso   1.00
C243   C     0.99616   0.04314   0.24429   0.00000  Uiso   1.00
C244   C     0.11868   0.11137   0.58291   0.00000  Uiso   1.00
C245   C     0.12590   0.14545   0.49533   0.00000  Uiso   1.00
C246   C     0.12359   0.17658   0.58044   0.00000  Uiso   1.00
C247   C     0.13125   0.20481   0.47694   0.00000  Uiso   1.00
C248   C     0.15057   0.09038   0.55778   0.00000  Uiso   1.00
C249   C     0.16899   0.07521   0.69540   0.00000  Uiso   1.00
C250   C     0.19742   0.05708   0.64449   0.00000  Uiso   1.00
C251   C     0.09170   0.09469   0.46597   0.00000  Uiso   1.00
C252   C     0.06064   0.08313   0.52639   0.00000  Uiso   1.00
C253   C     0.03950   0.06861   0.39818   0.00000  Uiso   1.00
H254   H     0.14388   0.10393   0.10605   0.00000  Uiso   1.00
H255   H     0.15064   0.16859   0.06878   0.00000  Uiso   1.00
H256   H     0.19603   0.06724   0.18374   0.00000  Uiso   1.00
H257   H     0.08769   0.07516   0.01475   0.00000  Uiso   1.00
H258   H     0.15389   0.24153   0.10776   0.00000  Uiso   1.00
H259   H     0.24960   0.02781   0.35013   0.00000  Uiso   1.00
H260   H     0.02114   0.04451   0.99379   0.00000  Uiso   1.00
H261   H     0.11119   0.11357   0.72463   0.00000  Uiso   1.00
H262   H     0.11615   0.17876   0.72131   0.00000  Uiso   1.00
H263   H     0.16154   0.07741   0.83626   0.00000  Uiso   1.00
H264   H     0.05320   0.08533   0.66727   0.00000  Uiso   1.00
H265   H     0.12590   0.24978   0.63738   0.00000  Uiso   1.00
H266   H     0.22161   0.03606   0.87975   0.00000  Uiso   1.00
H267   H     0.99315   0.05276   0.52341   0.00000  Uiso   1.00
O268   O     0.14376   0.28836   0.35924   0.00000  Uiso   1.00
O269   O     0.26932   0.00797   0.67721   0.00000  Uiso   1.00
O270   O     0.96959   0.02988   0.20970   0.00000  Uiso   1.00
N271   N     0.14662   0.23453   0.23285   0.00000  Uiso   1.00
N272   N     0.23610   0.03472   0.45946   0.00000  Uiso   1.00
N273   N     0.02252   0.05032   0.12632   0.00000  Uiso   1.00
N274   N     0.13156   0.23897   0.51784   0.00000  Uiso   1.00
N275   N     0.22104   0.03916   0.74444   0.00000  Uiso   1.00
N276   N     0.00746   0.05476   0.41130   0.00000  Uiso   1.00
C277   C     0.86361   0.89386   0.24777   0.00000  Uiso   1.00
C278   C     0.86448   0.85739   0.31329   0.00000  Uiso   1.00
C279   C     0.85681   0.82920   0.20965   0.00000  Uiso   1.00
C280   C     0.85911   0.79804   0.29458   0.00000  Uiso   1.00
C281   C     0.85898   0.74185   0.36866   0.00000  Uiso   1.00
C282   C     0.83981   0.91245   0.37575   0.00000  Uiso   1.00
C283   C     0.81141   0.93057   0.32462   0.00000  Uiso   1.00
C284   C     0.79295   0.94576   0.46213   0.00000  Uiso   1.00
C285   C     0.75453   0.97508   0.63316   0.00000  Uiso   1.00
C286   C     0.89867   0.90815   0.28393   0.00000  Uiso   1.00
C287   C     0.91977   0.92265   0.15560   0.00000  Uiso   1.00
C288   C     0.95086   0.93423   0.21582   0.00000  Uiso   1.00
C289   C     0.00384   0.95686   0.24429   0.00000  Uiso   1.00
C290   C     0.88132   0.88863   0.58291   0.00000  Uiso   1.00
C291   C     0.87410   0.85455   0.49533   0.00000  Uiso   1.00
C292   C     0.87641   0.82342   0.58044   0.00000  Uiso   1.00
C293   C     0.86875   0.79519   0.47694   0.00000  Uiso   1.00
C294   C     0.84943   0.90962   0.55778   0.00000  Uiso   1.00
C295   C     0.83101   0.92479   0.69540   0.00000  Uiso   1.00
C296   C     0.80258   0.94292   0.64449   0.00000  Uiso   1.00
C297   C     0.90830   0.90531   0.46597   0.00000  Uiso   1.00
C298   C     0.93936   0.91687   0.52639   0.00000  Uiso   1.00
C299   C     0.96050   0.93139   0.39818   0.00000  Uiso   1.00
H300   H     0.85612   0.89607   0.10605   0.00000  Uiso   1.00
H301   H     0.84936   0.83141   0.06878   0.00000  Uiso   1.00
H302   H     0.80397   0.93276   0.18374   0.00000  Uiso   1.00
H303   H     0.91231   0.92484   0.01475   0.00000  Uiso   1.00
H304   H     0.84611   0.75847   0.10776   0.00000  Uiso   1.00
H305   H     0.75040   0.97219   0.35013   0.00000  Uiso   1.00
H306   H     0.97886   0.95549   0.99379   0.00000  Uiso   1.00
H307   H     0.88881   0.88643   0.72463   0.00000  Uiso   1.00
H308   H     0.88385   0.82124   0.72131   0.00000  Uiso   1.00
H309   H     0.83846   0.92259   0.83626   0.00000  Uiso   1.00
H310   H     0.94680   0.91467   0.66727   0.00000  Uiso   1.00
H311   H     0.87410   0.75022   0.63738   0.00000  Uiso   1.00
H312   H     0.77839   0.96394   0.87975   0.00000  Uiso   1.00
H313   H     0.00685   0.94724   0.52341   0.00000  Uiso   1.00
O314   O     0.85624   0.71164   0.35924   0.00000  Uiso   1.00
O315   O     0.73068   0.99203   0.67721   0.00000  Uiso   1.00
O316   O     0.03041   0.97012   0.20970   0.00000  Uiso   1.00
N317   N     0.85338   0.76547   0.23285   0.00000  Uiso   1.00
N318   N     0.76390   0.96528   0.45946   0.00000  Uiso   1.00
N319   N     0.97748   0.94968   0.12632   0.00000  Uiso   1.00
N320   N     0.86844   0.76103   0.51784   0.00000  Uiso   1.00
N321   N     0.77896   0.96084   0.74444   0.00000  Uiso   1.00
N322   N     0.99254   0.94524   0.41130   0.00000  Uiso   1.00
C323   C     0.36361   0.39386   0.74777   0.00000  Uiso   1.00
C324   C     0.36448   0.35739   0.81329   0.00000  Uiso   1.00
C325   C     0.35681   0.32920   0.70965   0.00000  Uiso   1.00
C326   C     0.35911   0.29804   0.79458   0.00000  Uiso   1.00
C327   C     0.35898   0.24185   0.86866   0.00000  Uiso   1.00
C328   C     0.33981   0.41245   0.87575   0.00000  Uiso   1.00
C329   C     0.31141   0.43057   0.82462   0.00000  Uiso   1.00
C330   C     0.29295   0.44576   0.96213   0.00000  Uiso   1.00
C331   C     0.25453   0.47508   0.13316   0.00000  Uiso   1.00
C332   C     0.39867   0.40815   0.78393   0.00000  Uiso   1.00
C333   C     0.41977   0.42265   0.65560   0.00000  Uiso   1.00
C334   C     0.45086   0.43423   0.71582   0.00000  Uiso   1.00
C335   C     0.50384   0.45686   0.74429   0.00000  Uiso   1.00
C336   C     0.38132   0.38863   0.08291   0.00000  Uiso   1.00
C337   C     0.37410   0.35455   0.99533   0.00000  Uiso   1.00
C338   C     0.37641   0.32342   0.08044   0.00000  Uiso   1.00
C339   C     0.36875   0.29519   0.97694   0.00000  Uiso   1.00
C340   C     0.34943   0.40962   0.05778   0.00000  Uiso   1.00
C341   C     0.33101   0.42479   0.19540   0.00000  Uiso   1.00
C342   C     0.30258   0.44292   0.14449   0.00000  Uiso   1.00
C343   C     0.40830   0.40531   0.96597   0.00000  Uiso   1.00
C344   C     0.43936   0.41687   0.02639   0.00000  Uiso   1.00
C345   C     0.46050   0.43139   0.89818   0.00000  Uiso   1.00
H346   H     0.35612   0.39607   0.60605   0.00000  Uiso   1.00
H347   H     0.34936   0.33141   0.56878   0.00000  Uiso   1.00
H348   H     0.30397   0.43276   0.68374   0.00000  Uiso   1.00
H349   H     0.41231   0.42484   0.51475   0.00000  Uiso   1.00
H350   H     0.34611   0.25847   0.60776   0.00000  Uiso   1.00
H351   H     0.25040   0.47219   0.85013   0.00000  Uiso   1.00
H352   H     0.47886   0.45549   0.49379   0.00000  Uiso   1.00
H353   H     0.38881   0.38643   0.22463   0.00000  Uiso   1.00
H354   H     0.38385   0.32124   0.22131   0.00000  Uiso   1.00
H355   H     0.33846   0.42259   0.33626   0.00000  Uiso   1.00
H356   H     0.44680   0.41467   0.16727   0.00000  Uiso   1.00
H357   H     0.37410   0.25022   0.13738   0.00000  Uiso   1.00
H358   H     0.27839   0.46394   0.37975   0.00000  Uiso   1.00
H359   H     0.50685   0.44724   0.02341   0.00000  Uiso   1.00
O360   O     0.35624   0.21164   0.85924   0.00000  Uiso   1.00
O361   O     0.23068   0.49203   0.17721   0.00000  Uiso   1.00
O362   O     0.53041   0.47012   0.70970   0.00000  Uiso   1.00
N363   N     0.35338   0.26547   0.73285   0.00000  Uiso   1.00
N364   N     0.26390   0.46528   0.95946   0.00000  Uiso   1.00
N365   N     0.47748   0.44968   0.62632   0.00000  Uiso   1.00
N366   N     0.36844   0.26103   0.01784   0.00000  Uiso   1.00
N367   N     0.27896   0.46084   0.24444   0.00000  Uiso   1.00
N368   N     0.49254   0.44524   0.91130   0.00000  Uiso   1.00
C369   C     0.89386   0.13639   0.75223   0.00000  Uiso   1.00
C370   C     0.85739   0.13552   0.68671   0.00000  Uiso   1.00
C371   C     0.82920   0.14319   0.79035   0.00000  Uiso   1.00
C372   C     0.79804   0.14089   0.70542   0.00000  Uiso   1.00
C373   C     0.74185   0.14102   0.63134   0.00000  Uiso   1.00
C374   C     0.91245   0.16019   0.62425   0.00000  Uiso   1.00
C375   C     0.93057   0.18859   0.67538   0.00000  Uiso   1.00
C376   C     0.94576   0.20705   0.53787   0.00000  Uiso   1.00
C377   C     0.97508   0.24547   0.36684   0.00000  Uiso   1.00
C378   C     0.90815   0.10133   0.71607   0.00000  Uiso   1.00
C379   C     0.92265   0.08023   0.84440   0.00000  Uiso   1.00
C380   C     0.93423   0.04914   0.78418   0.00000  Uiso   1.00
C381   C     0.95686   0.99616   0.75571   0.00000  Uiso   1.00
C382   C     0.88863   0.11868   0.41709   0.00000  Uiso   1.00
C383   C     0.85455   0.12590   0.50467   0.00000  Uiso   1.00
C384   C     0.82342   0.12359   0.41956   0.00000  Uiso   1.00
C385   C     0.79519   0.13125   0.52306   0.00000  Uiso   1.00
C386   C     0.90962   0.15057   0.44222   0.00000  Uiso   1.00
C387   C     0.92479   0.16899   0.30460   0.00000  Uiso   1.00
C388   C     0.94292   0.19742   0.35551   0.00000  Uiso   1.00
C389   C     0.90531   0.09170   0.53403   0.00000  Uiso   1.00
C390   C     0.91687   0.06064   0.47361   0.00000  Uiso   1.00
C391   C     0.93139   0.03950   0.60182   0.00000  Uiso   1.00
H392   H     0.89607   0.14388   0.89395   0.00000  Uiso   1.00
H393   H     0.83141   0.15064   0.93122   0.00000  Uiso   1.00
H394   H     0.93276   0.19603   0.81626   0.00000  Uiso   1.00
H395   H     0.92484   0.08769   0.98525   0.00000  Uiso   1.00
H396   H     0.75847   0.15389   0.89224   0.00000  Uiso   1.00
H397   H     0.97219   0.24960   0.64987   0.00000  Uiso   1.00
H398   H     0.95549   0.02114   0.00621   0.00000  Uiso   1.00
H399   H     0.88643   0.11119   0.27537   0.00000  Uiso   1.00
H400   H     0.82124   0.11615   0.27869   0.00000  Uiso   1.00
H401   H     0.92259   0.16154   0.16374   0.00000  Uiso   1.00
H402   H     0.91467   0.05320   0.33273   0.00000  Uiso   1.00
H403   H     0.75022   0.12590   0.36262   0.00000  Uiso   1.00
H404   H     0.96394   0.22161   0.12025   0.00000  Uiso   1.00
H405   H     0.94724   0.99315   0.47659   0.00000  Uiso   1.00
O406   O     0.71164   0.14376   0.64076   0.00000  Uiso   1.00
O407   O     0.99203   0.26932   0.32279   0.00000  Uiso   1.00
O408   O     0.97012   0.96959   0.79030   0.00000  Uiso   1.00
N409   N     0.76547   0.14662   0.76715   0.00000  Uiso   1.00
N410   N     0.96528   0.23610   0.54054   0.00000  Uiso   1.00
N411   N     0.94968   0.02252   0.87368   0.00000  Uiso   1.00
N412   N     0.76103   0.13156   0.48216   0.00000  Uiso   1.00
N413   N     0.96084   0.22104   0.25556   0.00000  Uiso   1.00
N414   N     0.94524   0.00746   0.58870   0.00000  Uiso   1.00
C415   C     0.39386   0.63639   0.25223   0.00000  Uiso   1.00
C416   C     0.35739   0.63552   0.18671   0.00000  Uiso   1.00
C417   C     0.32920   0.64319   0.29035   0.00000  Uiso   1.00
C418   C     0.29804   0.64089   0.20542   0.00000  Uiso   1.00
C419   C     0.24185   0.64102   0.13134   0.00000  Uiso   1.00
C420   C     0.41245   0.66019   0.12425   0.00000  Uiso   1.00
C421   C     0.43057   0.68859   0.17538   0.00000  Uiso   1.00
C422   C     0.44576   0.70705   0.03787   0.00000  Uiso   1.00
C423   C     0.47508   0.74547   0.86684   0.00000  Uiso   1.00
C424   C     0.40815   0.60133   0.21607   0.00000  Uiso   1.00
C425   C     0.42265   0.58023   0.34440   0.00000  Uiso   1.00
C426   C     0.43423   0.54914   0.28418   0.00000  Uiso   1.00
C427   C     0.45686   0.49616   0.25571   0.00000  Uiso   1.00
C428   C     0.38863   0.61868   0.91709   0.00000  Uiso   1.00
C429   C     0.35455   0.62590   0.00467   0.00000  Uiso   1.00
C430   C     0.32342   0.62359   0.91956   0.00000  Uiso   1.00
C431   C     0.29519   0.63125   0.02306   0.00000  Uiso   1.00
C432   C     0.40962   0.65057   0.94222   0.00000  Uiso   1.00
C433   C     0.42479   0.66899   0.80460   0.00000  Uiso   1.00
C434   C     0.44292   0.69742   0.85551   0.00000  Uiso   1.00
C435   C     0.40531   0.59170   0.03403   0.00000  Uiso   1.00
C436   C     0.41687   0.56064   0.97361   0.00000  Uiso   1.00
C437   C     0.43139   0.53950   0.10182   0.00000  Uiso   1.00
H438   H     0.39607   0.64388   0.39395   0.00000  Uiso   1.00
H439   H     0.33141   0.65064   0.43122   0.00000  Uiso   1.00
H440   H     0.43276   0.69603   0.31626   0.00000  Uiso   1.00
H441   H     0.42484   0.58769   0.48525   0.00000  Uiso   1.00
H442   H     0.25847   0.65389   0.39224   0.00000  Uiso   1.00
H443   H     0.47219   0.74960   0.14987   0.00000  Uiso   1.00
H444   H     0.45549   0.52114   0.50621   0.00000  Uiso   1.00
H445   H     0.38643   0.61119   0.77537   0.00000  Uiso   1.00
H446   H     0.32124   0.61615   0.77869   0.00000  Uiso   1.00
H447   H     0.42259   0.66154   0.66374   0.00000  Uiso   1.00
H448   H     0.41467   0.55320   0.83273   0.00000  Uiso   1.00
H449   H     0.25022   0.62590   0.86262   0.00000  Uiso   1.00
H450   H     0.46394   0.72161   0.62025   0.00000  Uiso   1.00
H451   H     0.44724   0.49315   0.97659   0.00000  Uiso   1.00
O452   O     0.21164   0.64376   0.14076   0.00000  Uiso   1.00
O453   O     0.49203   0.76932   0.82279   0.00000  Uiso   1.00
O454   O     0.47012   0.46959   0.29030   0.00000  Uiso   1.00
N455   N     0.26547   0.64662   0.26715   0.00000  Uiso   1.00
N456   N     0.46528   0.73610   0.04054   0.00000  Uiso   1.00
N457   N     0.44968   0.52252   0.37368   0.00000  Uiso   1.00
N458   N     0.26103   0.63156   0.98216   0.00000  Uiso   1.00
N459   N     0.46084   0.72104   0.75556   0.00000  Uiso   1.00
N460   N     0.44524   0.50746   0.08870   0.00000  Uiso   1.00
C461   C     0.60614   0.36361   0.25223   0.00000  Uiso   1.00
C462   C     0.64261   0.36448   0.18671   0.00000  Uiso   1.00
C463   C     0.67080   0.35681   0.29035   0.00000  Uiso   1.00
C464   C     0.70196   0.35911   0.20542   0.00000  Uiso   1.00
C465   C     0.75815   0.35898   0.13134   0.00000  Uiso   1.00
C466   C     0.58755   0.33981   0.12425   0.00000  Uiso   1.00
C467   C     0.56943   0.31141   0.17538   0.00000  Uiso   1.00
C468   C     0.55424   0.29295   0.03787   0.00000  Uiso   1.00
C469   C     0.52492   0.25453   0.86684   0.00000  Uiso   1.00
C470   C     0.59185   0.39867   0.21607   0.00000  Uiso   1.00
C471   C     0.57735   0.41977   0.34440   0.00000  Uiso   1.00
C472   C     0.56577   0.45086   0.28418   0.00000  Uiso   1.00
C473   C     0.54314   0.50384   0.25571   0.00000  Uiso   1.00
C474   C     0.61137   0.38132   0.91709   0.00000  Uiso   1.00
C475   C     0.64545   0.37410   0.00467   0.00000  Uiso   1.00
C476   C     0.67658   0.37641   0.91956   0.00000  Uiso   1.00
C477   C     0.70481   0.36875   0.02306   0.00000  Uiso   1.00
C478   C     0.59038   0.34943   0.94222   0.00000  Uiso   1.00
C479   C     0.57521   0.33101   0.80460   0.00000  Uiso   1.00
C480   C     0.55708   0.30258   0.85551   0.00000  Uiso   1.00
C481   C     0.59469   0.40830   0.03403   0.00000  Uiso   1.00
C482   C     0.58313   0.43936   0.97361   0.00000  Uiso   1.00
C483   C     0.56861   0.46050   0.10182   0.00000  Uiso   1.00
H484   H     0.60393   0.35612   0.39395   0.00000  Uiso   1.00
H485   H     0.66859   0.34936   0.43122   0.00000  Uiso   1.00
H486   H     0.56724   0.30397   0.31626   0.00000  Uiso   1.00
H487   H     0.57516   0.41231   0.48525   0.00000  Uiso   1.00
H488   H     0.74153   0.34611   0.39224   0.00000  Uiso   1.00
H489   H     0.52781   0.25040   0.14987   0.00000  Uiso   1.00
H490   H     0.54451   0.47886   0.50621   0.00000  Uiso   1.00
H491   H     0.61357   0.38881   0.77537   0.00000  Uiso   1.00
H492   H     0.67876   0.38385   0.77869   0.00000  Uiso   1.00
H493   H     0.57741   0.33846   0.66374   0.00000  Uiso   1.00
H494   H     0.58533   0.44680   0.83273   0.00000  Uiso   1.00
H495   H     0.74978   0.37410   0.86262   0.00000  Uiso   1.00
H496   H     0.53606   0.27839   0.62025   0.00000  Uiso   1.00
H497   H     0.55276   0.50685   0.97659   0.00000  Uiso   1.00
O498   O     0.78836   0.35624   0.14076   0.00000  Uiso   1.00
O499   O     0.50797   0.23068   0.82279   0.00000  Uiso   1.00
O500   O     0.52988   0.53041   0.29030   0.00000  Uiso   1.00
N501   N     0.73453   0.35338   0.26715   0.00000  Uiso   1.00
N502   N     0.53472   0.26390   0.04054   0.00000  Uiso   1.00
N503   N     0.55032   0.47748   0.37368   0.00000  Uiso   1.00
N504   N     0.73897   0.36844   0.98216   0.00000  Uiso   1.00
N505   N     0.53916   0.27896   0.75556   0.00000  Uiso   1.00
N506   N     0.55476   0.49254   0.08870   0.00000  Uiso   1.00
C507   C     0.10614   0.86361   0.75223   0.00000  Uiso   1.00
C508   C     0.14261   0.86448   0.68671   0.00000  Uiso   1.00
C509   C     0.17080   0.85681   0.79035   0.00000  Uiso   1.00
C510   C     0.20196   0.85911   0.70542   0.00000  Uiso   1.00
C511   C     0.25815   0.85898   0.63134   0.00000  Uiso   1.00
C512   C     0.08755   0.83981   0.62425   0.00000  Uiso   1.00
C513   C     0.06943   0.81141   0.67538   0.00000  Uiso   1.00
C514   C     0.05424   0.79295   0.53787   0.00000  Uiso   1.00
C515   C     0.02492   0.75453   0.36684   0.00000  Uiso   1.00
C516   C     0.09185   0.89867   0.71607   0.00000  Uiso   1.00
C517   C     0.07735   0.91977   0.84440   0.00000  Uiso   1.00
C518   C     0.06577   0.95086   0.78418   0.00000  Uiso   1.00
C519   C     0.04314   0.00384   0.75571   0.00000  Uiso   1.00
C520   C     0.11137   0.88132   0.41709   0.00000  Uiso   1.00
C521   C     0.14545   0.87410   0.50467   0.00000  Uiso   1.00
C522   C     0.17658   0.87641   0.41956   0.00000  Uiso   1.00
C523   C     0.20481   0.86875   0.52306   0.00000  Uiso   1.00
C524   C     0.09038   0.84943   0.44222   0.00000  Uiso   1.00
C525   C     0.07521   0.83101   0.30460   0.00000  Uiso   1.00
C526   C     0.05708   0.80258   0.35551   0.00000  Uiso   1.00
C527   C     0.09469   0.90830   0.53403   0.00000  Uiso   1.00
C528   C     0.08313   0.93936   0.47361   0.00000  Uiso   1.00
C529   C     0.06861   0.96050   0.60182   0.00000  Uiso   1.00
H530   H     0.10393   0.85612   0.89395   0.00000  Uiso   1.00
H531   H     0.16859   0.84936   0.93122   0.00000  Uiso   1.00
H532   H     0.06724   0.80397   0.81626   0.00000  Uiso   1.00
H533   H     0.07516   0.91231   0.98525   0.00000  Uiso   1.00
H534   H     0.24153   0.84611   0.89224   0.00000  Uiso   1.00
H535   H     0.02781   0.75040   0.64987   0.00000  Uiso   1.00
H536   H     0.04451   0.97886   0.00621   0.00000  Uiso   1.00
H537   H     0.11357   0.88881   0.27537   0.00000  Uiso   1.00
H538   H     0.17876   0.88385   0.27869   0.00000  Uiso   1.00
H539   H     0.07741   0.83846   0.16374   0.00000  Uiso   1.00
H540   H     0.08533   0.94680   0.33273   0.00000  Uiso   1.00
H541   H     0.24978   0.87410   0.36262   0.00000  Uiso   1.00
H542   H     0.03606   0.77839   0.12025   0.00000  Uiso   1.00
H543   H     0.05276   0.00685   0.47659   0.00000  Uiso   1.00
O544   O     0.28836   0.85624   0.64076   0.00000  Uiso   1.00
O545   O     0.00797   0.73068   0.32279   0.00000  Uiso   1.00
O546   O     0.02988   0.03041   0.79030   0.00000  Uiso   1.00
N547   N     0.23453   0.85338   0.76715   0.00000  Uiso   1.00
N548   N     0.03472   0.76390   0.54054   0.00000  Uiso   1.00
N549   N     0.05032   0.97748   0.87368   0.00000  Uiso   1.00
N550   N     0.23897   0.86844   0.48216   0.00000  Uiso   1.00
N551   N     0.03916   0.77896   0.25556   0.00000  Uiso   1.00
N552   N     0.05476   0.99254   0.58870   0.00000  Uiso   1.00
C553   C     0.36361   0.89386   0.50223   0.00000  Uiso   1.00
C554   C     0.36448   0.85739   0.43671   0.00000  Uiso   1.00
C555   C     0.35681   0.82920   0.54035   0.00000  Uiso   1.00
C556   C     0.35911   0.79804   0.45542   0.00000  Uiso   1.00
C557   C     0.35898   0.74185   0.38134   0.00000  Uiso   1.00
C558   C     0.33981   0.91245   0.37425   0.00000  Uiso   1.00
C559   C     0.31141   0.93057   0.42538   0.00000  Uiso   1.00
C560   C     0.29295   0.94576   0.28787   0.00000  Uiso   1.00
C561   C     0.25453   0.97508   0.11684   0.00000  Uiso   1.00
C562   C     0.39867   0.90815   0.46607   0.00000  Uiso   1.00
C563   C     0.41977   0.92265   0.59440   0.00000  Uiso   1.00
C564   C     0.45086   0.93423   0.53418   0.00000  Uiso   1.00
C565   C     0.50384   0.95686   0.50571   0.00000  Uiso   1.00
C566   C     0.38132   0.88863   0.16709   0.00000  Uiso   1.00
C567   C     0.37410   0.85455   0.25467   0.00000  Uiso   1.00
C568   C     0.37641   0.82342   0.16956   0.00000  Uiso   1.00
C569   C     0.36875   0.79519   0.27306   0.00000  Uiso   1.00
C570   C     0.34943   0.90962   0.19222   0.00000  Uiso   1.00
C571   C     0.33101   0.92479   0.05460   0.00000  Uiso   1.00
C572   C     0.30258   0.94292   0.10551   0.00000  Uiso   1.00
C573   C     0.40830   0.90531   0.28403   0.00000  Uiso   1.00
C574   C     0.43936   0.91687   0.22361   0.00000  Uiso   1.00
C575   C     0.46050   0.93139   0.35182   0.00000  Uiso   1.00
H576   H     0.35612   0.89607   0.64395   0.00000  Uiso   1.00
H577   H     0.34936   0.83141   0.68122   0.00000  Uiso   1.00
H578   H     0.30397   0.93276   0.56626   0.00000  Uiso   1.00
H579   H     0.41231   0.92484   0.73525   0.00000  Uiso   1.00
H580   H     0.34611   0.75847   0.64224   0.00000  Uiso   1.00
H581   H     0.25040   0.97219   0.39987   0.00000  Uiso   1.00
H582   H     0.47886   0.95549   0.75621   0.00000  Uiso   1.00
H583   H     0.38881   0.88643   0.02537   0.00000  Uiso   1.00
H584   H     0.38385   0.82124   0.02869   0.00000  Uiso   1.00
H585   H     0.33846   0.92259   0.91374   0.00000  Uiso   1.00
H586   H     0.44680   0.91467   0.08273   0.00000  Uiso   1.00
H587   H     0.37410   0.75022   0.11262   0.00000  Uiso   1.00
H588   H     0.27839   0.96394   0.87025   0.00000  Uiso   1.00
H589   H     0.50685   0.94724   0.22659   0.00000  Uiso   1.00
O590   O     0.35624   0.71164   0.39076   0.00000  Uiso   1.00
O591   O     0.23068   0.99203   0.07279   0.00000  Uiso   1.00
O592   O     0.53041   0.97012   0.54030   0.00000  Uiso   1.00
N593   N     0.35338   0.76547   0.51715   0.00000  Uiso   1.00
N594   N     0.26390   0.96528   0.29054   0.00000  Uiso   1.00
N595   N     0.47748   0.94968   0.62368   0.00000  Uiso   1.00
N596   N     0.36844   0.76103   0.23216   0.00000  Uiso   1.00
N597   N     0.27896   0.96084   0.00556   0.00000  Uiso   1.00
N598   N     0.49254   0.94524   0.33870   0.00000  Uiso   1.00
C599   C     0.86361   0.39386   0.00223   0.00000  Uiso   1.00
C600   C     0.86448   0.35739   0.93671   0.00000  Uiso   1.00
C601   C     0.85681   0.32920   0.04035   0.00000  Uiso   1.00
C602   C     0.85911   0.29804   0.95542   0.00000  Uiso   1.00
C603   C     0.85898   0.24185   0.88134   0.00000  Uiso   1.00
C604   C     0.83981   0.41245   0.87425   0.00000  Uiso   1.00
C605   C     0.81141   0.43057   0.92538   0.00000  Uiso   1.00
C606   C     0.79295   0.44576   0.78787   0.00000  Uiso   1.00
C607   C     0.75453   0.47508   0.61684   0.00000  Uiso   1.00
C608   C     0.89867   0.40815   0.96607   0.00000  Uiso   1.00
C609   C     0.91977   0.42265   0.09440   0.00000  Uiso   1.00
C610   C     0.95086   0.43423   0.03418   0.00000  Uiso   1.00
C611   C     0.00384   0.45686   0.00571   0.00000  Uiso   1.00
C612   C     0.88132   0.38863   0.66709   0.00000  Uiso   1.00
C613   C     0.87410   0.35455   0.75467   0.00000  Uiso   1.00
C614   C     0.87641   0.32342   0.66956   0.00000  Uiso   1.00
C615   C     0.86875   0.29519   0.77306   0.00000  Uiso   1.00
C616   C     0.84943   0.40962   0.69222   0.00000  Uiso   1.00
C617   C     0.83101   0.42479   0.55460   0.00000  Uiso   1.00
C618   C     0.80258   0.44292   0.60551   0.00000  Uiso   1.00
C619   C     0.90830   0.40531   0.78403   0.00000  Uiso   1.00
C620   C     0.93936   0.41687   0.72361   0.00000  Uiso   1.00
C621   C     0.96050   0.43139   0.85182   0.00000  Uiso   1.00
H622   H     0.85612   0.39607   0.14395   0.00000  Uiso   1.00
H623   H     0.84936   0.33141   0.18122   0.00000  Uiso   1.00
H624   H     0.80397   0.43276   0.06626   0.00000  Uiso   1.00
H625   H     0.91231   0.42484   0.23525   0.00000  Uiso   1.00
H626   H     0.84611   0.25847   0.14224   0.00000  Uiso   1.00
H627   H     0.75040   0.47219   0.89987   0.00000  Uiso   1.00
H628   H     0.97886   0.45549   0.25621   0.00000  Uiso   1.00
H629   H     0.88881   0.38643   0.52537   0.00000  Uiso   1.00
H630   H     0.88385   0.32124   0.52869   0.00000  Uiso   1.00
H631   H     0.83846   0.42259   0.41374   0.00000  Uiso   1.00
H632   H     0.94680   0.41467   0.58273   0.00000  Uiso   1.00
H633   H     0.87410   0.25022   0.61262   0.00000  Uiso   1.00
H634   H     0.77839   0.46394   0.37025   0.00000  Uiso   1.00
H635   H     0.00685   0.44724   0.72659   0.00000  Uiso   1.00
O636   O     0.85624   0.21164   0.89076   0.00000  Uiso   1.00
O637   O     0.73068   0.49203   0.57279   0.00000  Uiso   1.00
O638   O     0.03041   0.47012   0.04030   0.00000  Uiso   1.00
N639   N     0.85338   0.26547   0.01715   0.00000  Uiso   1.00
N640   N     0.76390   0.46528   0.79054   0.00000  Uiso   1.00
N641   N     0.97748   0.44968   0.12368   0.00000  Uiso   1.00
N642   N     0.86844   0.26103   0.73216   0.00000  Uiso   1.00
N643   N     0.77896   0.46084   0.50556   0.00000  Uiso   1.00
N644   N     0.99254   0.44524   0.83870   0.00000  Uiso   1.00
C645   C     0.13639   0.60614   0.00223   0.00000  Uiso   1.00
C646   C     0.13552   0.64261   0.93671   0.00000  Uiso   1.00
C647   C     0.14319   0.67080   0.04035   0.00000  Uiso   1.00
C648   C     0.14089   0.70196   0.95542   0.00000  Uiso   1.00
C649   C     0.14102   0.75815   0.88134   0.00000  Uiso   1.00
C650   C     0.16019   0.58755   0.87425   0.00000  Uiso   1.00
C651   C     0.18859   0.56943   0.92538   0.00000  Uiso   1.00
C652   C     0.20705   0.55424   0.78787   0.00000  Uiso   1.00
C653   C     0.24547   0.52492   0.61684   0.00000  Uiso   1.00
C654   C     0.10133   0.59185   0.96607   0.00000  Uiso   1.00
C655   C     0.08023   0.57735   0.09440   0.00000  Uiso   1.00
C656   C     0.04914   0.56577   0.03418   0.00000  Uiso   1.00
C657   C     0.99616   0.54314   0.00571   0.00000  Uiso   1.00
C658   C     0.11868   0.61137   0.66709   0.00000  Uiso   1.00
C659   C     0.12590   0.64545   0.75467   0.00000  Uiso   1.00
C660   C     0.12359   0.67658   0.66956   0.00000  Uiso   1.00
C661   C     0.13125   0.70481   0.77306   0.00000  Uiso   1.00
C662   C     0.15057   0.59038   0.69222   0.00000  Uiso   1.00
C663   C     0.16899   0.57521   0.55460   0.00000  Uiso   1.00
C664   C     0.19742   0.55708   0.60551   0.00000  Uiso   1.00
C665   C     0.09170   0.59469   0.78403   0.00000  Uiso   1.00
C666   C     0.06064   0.58313   0.72361   0.00000  Uiso   1.00
C667   C     0.03950   0.56861   0.85182   0.00000  Uiso   1.00
H668   H     0.14388   0.60393   0.14395   0.00000  Uiso   1.00
H669   H     0.15064   0.66859   0.18122   0.00000  Uiso   1.00
H670   H     0.19603   0.56724   0.06626   0.00000  Uiso   1.00
H671   H     0.08769   0.57516   0.23525   0.00000  Uiso   1.00
H672   H     0.15389   0.74153   0.14224   0.00000  Uiso   1.00
H673   H     0.24960   0.52781   0.89987   0.00000  Uiso   1.00
H674   H     0.02114   0.54451   0.25621   0.00000  Uiso   1.00
H675   H     0.11119   0.61357   0.52537   0.00000  Uiso   1.00
H676   H     0.11615   0.67876   0.52869   0.00000  Uiso   1.00
H677   H     0.16154   0.57741   0.41374   0.00000  Uiso   1.00
H678   H     0.05320   0.58533   0.58273   0.00000  Uiso   1.00
H679   H     0.12590   0.74978   0.61262   0.00000  Uiso   1.00
H680   H     0.22161   0.53606   0.37025   0.00000  Uiso   1.00
H681   H     0.99315   0.55276   0.72659   0.00000  Uiso   1.00
O682   O     0.14376   0.78836   0.89076   0.00000  Uiso   1.00
O683   O     0.26932   0.50797   0.57279   0.00000  Uiso   1.00
O684   O     0.96959   0.52988   0.04030   0.00000  Uiso   1.00
N685   N     0.14662   0.73453   0.01715   0.00000  Uiso   1.00
N686   N     0.23610   0.53472   0.79054   0.00000  Uiso   1.00
N687   N     0.02252   0.55032   0.12368   0.00000  Uiso   1.00
N688   N     0.13156   0.73897   0.73216   0.00000  Uiso   1.00
N689   N     0.22104   0.53916   0.50556   0.00000  Uiso   1.00
N690   N     0.00746   0.55476   0.83870   0.00000  Uiso   1.00
C691   C     0.63639   0.10614   0.50223   0.00000  Uiso   1.00
C692   C     0.63552   0.14261   0.43671   0.00000  Uiso   1.00
C693   C     0.64319   0.17080   0.54035   0.00000  Uiso   1.00
C694   C     0.64089   0.20196   0.45542   0.00000  Uiso   1.00
C695   C     0.64102   0.25815   0.38134   0.00000  Uiso   1.00
C696   C     0.66019   0.08755   0.37425   0.00000  Uiso   1.00
C697   C     0.68859   0.06943   0.42538   0.00000  Uiso   1.00
C698   C     0.70705   0.05424   0.28787   0.00000  Uiso   1.00
C699   C     0.74547   0.02492   0.11684   0.00000  Uiso   1.00
C700   C     0.60133   0.09185   0.46607   0.00000  Uiso   1.00
C701   C     0.58023   0.07735   0.59440   0.00000  Uiso   1.00
C702   C     0.54914   0.06577   0.53418   0.00000  Uiso   1.00
C703   C     0.49616   0.04314   0.50571   0.00000  Uiso   1.00
C704   C     0.61868   0.11137   0.16709   0.00000  Uiso   1.00
C705   C     0.62590   0.14545   0.25467   0.00000  Uiso   1.00
C706   C     0.62359   0.17658   0.16956   0.00000  Uiso   1.00
C707   C     0.63125   0.20481   0.27306   0.00000  Uiso   1.00
C708   C     0.65057   0.09038   0.19222   0.00000  Uiso   1.00
C709   C     0.66899   0.07521   0.05460   0.00000  Uiso   1.00
C710   C     0.69742   0.05708   0.10551   0.00000  Uiso   1.00
C711   C     0.59170   0.09469   0.28403   0.00000  Uiso   1.00
C712   C     0.56064   0.08313   0.22361   0.00000  Uiso   1.00
C713   C     0.53950   0.06861   0.35182   0.00000  Uiso   1.00
H714   H     0.64388   0.10393   0.64395   0.00000  Uiso   1.00
H715   H     0.65064   0.16859   0.68122   0.00000  Uiso   1.00
H716   H     0.69603   0.06724   0.56626   0.00000  Uiso   1.00
H717   H     0.58769   0.07516   0.73525   0.00000  Uiso   1.00
H718   H     0.65389   0.24153   0.64224   0.00000  Uiso   1.00
H719   H     0.74960   0.02781   0.39987   0.00000  Uiso   1.00
H720   H     0.52114   0.04451   0.75621   0.00000  Uiso   1.00
H721   H     0.61119   0.11357   0.02537   0.00000  Uiso   1.00
H722   H     0.61615   0.17876   0.02869   0.00000  Uiso   1.00
H723   H     0.66154   0.07741   0.91374   0.00000  Uiso   1.00
H724   H     0.55320   0.08533   0.08273   0.00000  Uiso   1.00
H725   H     0.62590   0.24978   0.11262   0.00000  Uiso   1.00
H726   H     0.72161   0.03606   0.87025   0.00000  Uiso   1.00
H727   H     0.49315   0.05276   0.22659   0.00000  Uiso   1.00
O728   O     0.64376   0.28836   0.39076   0.00000  Uiso   1.00
O729   O     0.76932   0.00797   0.07279   0.00000  Uiso   1.00
O730   O     0.46959   0.02988   0.54030   0.00000  Uiso   1.00
N731   N     0.64662   0.23453   0.51715   0.00000  Uiso   1.00
N732   N     0.73610   0.03472   0.29054   0.00000  Uiso   1.00
N733   N     0.52252   0.05032   0.62368   0.00000  Uiso   1.00
N734   N     0.63156   0.23897   0.23216   0.00000  Uiso   1.00
N735   N     0.72104   0.03916   0.00556   0.00000  Uiso   1.00
N736   N     0.50746   0.05476   0.33870   0.00000  Uiso   1.00
