data_job_04156
_audit_creation_date              2018-12-19
_audit_creation_method            'Materials Studio'
_symmetry_space_group_name_H-M    'P1'
_symmetry_Int_Tables_number       1
_symmetry_cell_setting            triclinic
loop_
_symmetry_equiv_pos_as_xyz
  x,y,z
_cell_length_a                    18.7433
_cell_length_b                    18.7433
_cell_length_c                    29.9974
_cell_angle_alpha                 90.0000
_cell_angle_beta                  90.0000
_cell_angle_gamma                 90.0000
loop_
_atom_site_label
_atom_site_type_symbol
_atom_site_fract_x
_atom_site_fract_y
_atom_site_fract_z
_atom_site_U_iso_or_equiv
_atom_site_adp_type
_atom_site_occupancy
C1     C     0.31827   0.82672   0.10325   0.00000  Uiso   1.00
C2     C     0.39059   0.85455   0.08775   0.00000  Uiso   1.00
C3     C     0.44736   0.87263   0.11521   0.00000  Uiso   1.00
C4     C     0.50899   0.89707   0.09457   0.00000  Uiso   1.00
C5     C     0.62056   0.93939   0.07757   0.00000  Uiso   1.00
C6     C     0.26281   0.87763   0.08397   0.00000  Uiso   1.00
C7     C     0.21215   0.91510   0.10827   0.00000  Uiso   1.00
C8     C     0.16621   0.95896   0.08444   0.00000  Uiso   1.00
C9     C     0.07938   0.03707   0.06158   0.00000  Uiso   1.00
C10    C     0.30724   0.75569   0.07943   0.00000  Uiso   1.00
C11    C     0.29391   0.69064   0.09991   0.00000  Uiso   1.00
C12    C     0.28536   0.63185   0.07226   0.00000  Uiso   1.00
C13    C     0.26750   0.52064   0.04235   0.00000  Uiso   1.00
C14    C     0.32677   0.83797   0.01775   0.00000  Uiso   1.00
C15    C     0.39520   0.86066   0.04131   0.00000  Uiso   1.00
C16    C     0.45676   0.88508   0.02062   0.00000  Uiso   1.00
C17    C     0.51361   0.90319   0.04805   0.00000  Uiso   1.00
C18    C     0.26743   0.88374   0.03754   0.00000  Uiso   1.00
C19    C     0.22155   0.92755   0.01367   0.00000  Uiso   1.00
C20    C     0.17084   0.96509   0.03792   0.00000  Uiso   1.00
C21    C     0.31185   0.76180   0.03299   0.00000  Uiso   1.00
C22    C     0.30332   0.70310   0.00531   0.00000  Uiso   1.00
C23    C     0.28998   0.63797   0.02574   0.00000  Uiso   1.00
H24    H     0.31467   0.82196   0.13940   0.00000  Uiso   1.00
H25    H     0.44376   0.86789   0.15115   0.00000  Uiso   1.00
H26    H     0.20858   0.91036   0.14420   0.00000  Uiso   1.00
H27    H     0.29034   0.68594   0.13584   0.00000  Uiso   1.00
H28    H     0.58891   0.92154   0.14370   0.00000  Uiso   1.00
H29    H     0.09301   0.01106   0.12904   0.00000  Uiso   1.00
H30    H     0.26539   0.53782   0.11142   0.00000  Uiso   1.00
H31    H     0.33036   0.84273   0.98159   0.00000  Uiso   1.00
H32    H     0.46032   0.88980   0.98468   0.00000  Uiso   1.00
H33    H     0.22514   0.93227   0.97774   0.00000  Uiso   1.00
H34    H     0.30689   0.70785   0.96938   0.00000  Uiso   1.00
H35    H     0.60234   0.93933   0.00859   0.00000  Uiso   1.00
H36    H     0.10644   0.02884   0.99393   0.00000  Uiso   1.00
H37    H     0.27883   0.55560   0.97631   0.00000  Uiso   1.00
O38    O     0.68082   0.96105   0.08102   0.00000  Uiso   1.00
O39    O     0.03021   0.07848   0.06180   0.00000  Uiso   1.00
O40    O     0.25639   0.45760   0.03868   0.00000  Uiso   1.00
N41    N     0.57424   0.91925   0.11148   0.00000  Uiso   1.00
N42    N     0.11061   0.00295   0.09778   0.00000  Uiso   1.00
N43    N     0.27176   0.56052   0.08130   0.00000  Uiso   1.00
N44    N     0.58147   0.92882   0.03877   0.00000  Uiso   1.00
N45    N     0.11784   0.01252   0.02507   0.00000  Uiso   1.00
N46    N     0.27899   0.57009   0.00860   0.00000  Uiso   1.00
C47    C     0.81827   0.32672   0.60325   0.00000  Uiso   1.00
C48    C     0.89059   0.35455   0.58775   0.00000  Uiso   1.00
C49    C     0.94736   0.37263   0.61521   0.00000  Uiso   1.00
C50    C     0.00899   0.39707   0.59457   0.00000  Uiso   1.00
C51    C     0.12056   0.43939   0.57757   0.00000  Uiso   1.00
C52    C     0.76281   0.37763   0.58397   0.00000  Uiso   1.00
C53    C     0.71215   0.41510   0.60827   0.00000  Uiso   1.00
C54    C     0.66621   0.45896   0.58444   0.00000  Uiso   1.00
C55    C     0.57938   0.53707   0.56158   0.00000  Uiso   1.00
C56    C     0.80724   0.25569   0.57943   0.00000  Uiso   1.00
C57    C     0.79391   0.19064   0.59991   0.00000  Uiso   1.00
C58    C     0.78536   0.13185   0.57226   0.00000  Uiso   1.00
C59    C     0.76750   0.02064   0.54235   0.00000  Uiso   1.00
C60    C     0.82677   0.33797   0.51775   0.00000  Uiso   1.00
C61    C     0.89520   0.36066   0.54131   0.00000  Uiso   1.00
C62    C     0.95676   0.38508   0.52062   0.00000  Uiso   1.00
C63    C     0.01361   0.40319   0.54805   0.00000  Uiso   1.00
C64    C     0.76743   0.38374   0.53754   0.00000  Uiso   1.00
C65    C     0.72155   0.42755   0.51367   0.00000  Uiso   1.00
C66    C     0.67084   0.46509   0.53792   0.00000  Uiso   1.00
C67    C     0.81185   0.26180   0.53299   0.00000  Uiso   1.00
C68    C     0.80332   0.20310   0.50531   0.00000  Uiso   1.00
C69    C     0.78998   0.13797   0.52574   0.00000  Uiso   1.00
H70    H     0.81467   0.32196   0.63940   0.00000  Uiso   1.00
H71    H     0.94376   0.36789   0.65115   0.00000  Uiso   1.00
H72    H     0.70858   0.41036   0.64420   0.00000  Uiso   1.00
H73    H     0.79034   0.18594   0.63584   0.00000  Uiso   1.00
H74    H     0.08891   0.42154   0.64370   0.00000  Uiso   1.00
H75    H     0.59301   0.51106   0.62904   0.00000  Uiso   1.00
H76    H     0.76539   0.03782   0.61142   0.00000  Uiso   1.00
H77    H     0.83036   0.34273   0.48159   0.00000  Uiso   1.00
H78    H     0.96032   0.38980   0.48468   0.00000  Uiso   1.00
H79    H     0.72514   0.43227   0.47774   0.00000  Uiso   1.00
H80    H     0.80689   0.20785   0.46938   0.00000  Uiso   1.00
H81    H     0.10234   0.43933   0.50859   0.00000  Uiso   1.00
H82    H     0.60644   0.52884   0.49393   0.00000  Uiso   1.00
H83    H     0.77883   0.05560   0.47631   0.00000  Uiso   1.00
O84    O     0.18082   0.46105   0.58102   0.00000  Uiso   1.00
O85    O     0.53021   0.57848   0.56180   0.00000  Uiso   1.00
O86    O     0.75639   0.95760   0.53868   0.00000  Uiso   1.00
N87    N     0.07424   0.41925   0.61148   0.00000  Uiso   1.00
N88    N     0.61061   0.50295   0.59778   0.00000  Uiso   1.00
N89    N     0.77176   0.06052   0.58130   0.00000  Uiso   1.00
N90    N     0.08147   0.42882   0.53877   0.00000  Uiso   1.00
N91    N     0.61784   0.51252   0.52507   0.00000  Uiso   1.00
N92    N     0.77899   0.07009   0.50860   0.00000  Uiso   1.00
C93    C     0.18173   0.67328   0.60325   0.00000  Uiso   1.00
C94    C     0.10941   0.64545   0.58775   0.00000  Uiso   1.00
C95    C     0.05264   0.62737   0.61521   0.00000  Uiso   1.00
C96    C     0.99101   0.60293   0.59457   0.00000  Uiso   1.00
C97    C     0.87944   0.56061   0.57757   0.00000  Uiso   1.00
C98    C     0.23719   0.62237   0.58397   0.00000  Uiso   1.00
C99    C     0.28785   0.58490   0.60827   0.00000  Uiso   1.00
C100   C     0.33379   0.54104   0.58444   0.00000  Uiso   1.00
C101   C     0.42062   0.46293   0.56158   0.00000  Uiso   1.00
C102   C     0.19276   0.74431   0.57943   0.00000  Uiso   1.00
C103   C     0.20609   0.80936   0.59991   0.00000  Uiso   1.00
C104   C     0.21464   0.86815   0.57226   0.00000  Uiso   1.00
C105   C     0.23250   0.97936   0.54235   0.00000  Uiso   1.00
C106   C     0.17323   0.66203   0.51775   0.00000  Uiso   1.00
C107   C     0.10480   0.63934   0.54131   0.00000  Uiso   1.00
C108   C     0.04324   0.61492   0.52062   0.00000  Uiso   1.00
C109   C     0.98639   0.59681   0.54805   0.00000  Uiso   1.00
C110   C     0.23257   0.61626   0.53754   0.00000  Uiso   1.00
C111   C     0.27845   0.57245   0.51367   0.00000  Uiso   1.00
C112   C     0.32916   0.53491   0.53792   0.00000  Uiso   1.00
C113   C     0.18815   0.73820   0.53299   0.00000  Uiso   1.00
C114   C     0.19668   0.79690   0.50531   0.00000  Uiso   1.00
C115   C     0.21002   0.86203   0.52574   0.00000  Uiso   1.00
H116   H     0.18533   0.67804   0.63940   0.00000  Uiso   1.00
H117   H     0.05624   0.63211   0.65115   0.00000  Uiso   1.00
H118   H     0.29142   0.58964   0.64420   0.00000  Uiso   1.00
H119   H     0.20966   0.81406   0.63584   0.00000  Uiso   1.00
H120   H     0.91109   0.57846   0.64370   0.00000  Uiso   1.00
H121   H     0.40699   0.48894   0.62904   0.00000  Uiso   1.00
H122   H     0.23461   0.96218   0.61142   0.00000  Uiso   1.00
H123   H     0.16964   0.65727   0.48159   0.00000  Uiso   1.00
H124   H     0.03968   0.61020   0.48468   0.00000  Uiso   1.00
H125   H     0.27486   0.56773   0.47774   0.00000  Uiso   1.00
H126   H     0.19311   0.79215   0.46938   0.00000  Uiso   1.00
H127   H     0.89766   0.56067   0.50859   0.00000  Uiso   1.00
H128   H     0.39356   0.47116   0.49393   0.00000  Uiso   1.00
H129   H     0.22117   0.94440   0.47631   0.00000  Uiso   1.00
O130   O     0.81918   0.53895   0.58102   0.00000  Uiso   1.00
O131   O     0.46979   0.42152   0.56180   0.00000  Uiso   1.00
O132   O     0.24361   0.04240   0.53868   0.00000  Uiso   1.00
N133   N     0.92576   0.58075   0.61148   0.00000  Uiso   1.00
N134   N     0.38939   0.49705   0.59778   0.00000  Uiso   1.00
N135   N     0.22824   0.93948   0.58130   0.00000  Uiso   1.00
N136   N     0.91853   0.57118   0.53877   0.00000  Uiso   1.00
N137   N     0.38216   0.48748   0.52507   0.00000  Uiso   1.00
N138   N     0.22101   0.92991   0.50860   0.00000  Uiso   1.00
C139   C     0.68173   0.17328   0.10325   0.00000  Uiso   1.00
C140   C     0.60941   0.14545   0.08775   0.00000  Uiso   1.00
C141   C     0.55264   0.12737   0.11521   0.00000  Uiso   1.00
C142   C     0.49101   0.10293   0.09457   0.00000  Uiso   1.00
C143   C     0.37944   0.06061   0.07757   0.00000  Uiso   1.00
C144   C     0.73719   0.12237   0.08397   0.00000  Uiso   1.00
C145   C     0.78785   0.08490   0.10827   0.00000  Uiso   1.00
C146   C     0.83379   0.04104   0.08444   0.00000  Uiso   1.00
C147   C     0.92062   0.96293   0.06158   0.00000  Uiso   1.00
C148   C     0.69276   0.24431   0.07943   0.00000  Uiso   1.00
C149   C     0.70609   0.30936   0.09991   0.00000  Uiso   1.00
C150   C     0.71464   0.36815   0.07226   0.00000  Uiso   1.00
C151   C     0.73250   0.47936   0.04235   0.00000  Uiso   1.00
C152   C     0.67323   0.16203   0.01775   0.00000  Uiso   1.00
C153   C     0.60480   0.13934   0.04131   0.00000  Uiso   1.00
C154   C     0.54324   0.11492   0.02062   0.00000  Uiso   1.00
C155   C     0.48639   0.09681   0.04805   0.00000  Uiso   1.00
C156   C     0.73257   0.11626   0.03754   0.00000  Uiso   1.00
C157   C     0.77845   0.07245   0.01367   0.00000  Uiso   1.00
C158   C     0.82916   0.03491   0.03792   0.00000  Uiso   1.00
C159   C     0.68815   0.23820   0.03299   0.00000  Uiso   1.00
C160   C     0.69668   0.29690   0.00531   0.00000  Uiso   1.00
C161   C     0.71002   0.36203   0.02574   0.00000  Uiso   1.00
H162   H     0.68533   0.17804   0.13940   0.00000  Uiso   1.00
H163   H     0.55624   0.13211   0.15115   0.00000  Uiso   1.00
H164   H     0.79142   0.08964   0.14420   0.00000  Uiso   1.00
H165   H     0.70966   0.31406   0.13584   0.00000  Uiso   1.00
H166   H     0.41109   0.07846   0.14370   0.00000  Uiso   1.00
H167   H     0.90699   0.98894   0.12904   0.00000  Uiso   1.00
H168   H     0.73461   0.46218   0.11142   0.00000  Uiso   1.00
H169   H     0.66964   0.15727   0.98159   0.00000  Uiso   1.00
H170   H     0.53968   0.11020   0.98468   0.00000  Uiso   1.00
H171   H     0.77486   0.06773   0.97774   0.00000  Uiso   1.00
H172   H     0.69311   0.29215   0.96938   0.00000  Uiso   1.00
H173   H     0.39766   0.06067   0.00859   0.00000  Uiso   1.00
H174   H     0.89356   0.97116   0.99393   0.00000  Uiso   1.00
H175   H     0.72117   0.44440   0.97631   0.00000  Uiso   1.00
O176   O     0.31918   0.03895   0.08102   0.00000  Uiso   1.00
O177   O     0.96979   0.92152   0.06180   0.00000  Uiso   1.00
O178   O     0.74361   0.54240   0.03868   0.00000  Uiso   1.00
N179   N     0.42576   0.08075   0.11148   0.00000  Uiso   1.00
N180   N     0.88939   0.99705   0.09778   0.00000  Uiso   1.00
N181   N     0.72824   0.43948   0.08130   0.00000  Uiso   1.00
N182   N     0.41853   0.07118   0.03877   0.00000  Uiso   1.00
N183   N     0.88216   0.98748   0.02507   0.00000  Uiso   1.00
N184   N     0.72101   0.42991   0.00860   0.00000  Uiso   1.00
C185   C     0.17328   0.81827   0.35325   0.00000  Uiso   1.00
C186   C     0.14545   0.89059   0.33775   0.00000  Uiso   1.00
C187   C     0.12737   0.94736   0.36521   0.00000  Uiso   1.00
C188   C     0.10293   0.00899   0.34457   0.00000  Uiso   1.00
C189   C     0.06061   0.12056   0.32757   0.00000  Uiso   1.00
C190   C     0.12237   0.76281   0.33397   0.00000  Uiso   1.00
C191   C     0.08490   0.71215   0.35827   0.00000  Uiso   1.00
C192   C     0.04104   0.66621   0.33444   0.00000  Uiso   1.00
C193   C     0.96293   0.57938   0.31158   0.00000  Uiso   1.00
C194   C     0.24431   0.80724   0.32943   0.00000  Uiso   1.00
C195   C     0.30936   0.79391   0.34991   0.00000  Uiso   1.00
C196   C     0.36815   0.78536   0.32226   0.00000  Uiso   1.00
C197   C     0.47936   0.76750   0.29235   0.00000  Uiso   1.00
C198   C     0.16203   0.82677   0.26775   0.00000  Uiso   1.00
C199   C     0.13934   0.89520   0.29131   0.00000  Uiso   1.00
C200   C     0.11492   0.95676   0.27062   0.00000  Uiso   1.00
C201   C     0.09681   0.01361   0.29805   0.00000  Uiso   1.00
C202   C     0.11626   0.76743   0.28754   0.00000  Uiso   1.00
C203   C     0.07245   0.72155   0.26367   0.00000  Uiso   1.00
C204   C     0.03491   0.67084   0.28792   0.00000  Uiso   1.00
C205   C     0.23820   0.81185   0.28299   0.00000  Uiso   1.00
C206   C     0.29690   0.80332   0.25531   0.00000  Uiso   1.00
C207   C     0.36203   0.78998   0.27574   0.00000  Uiso   1.00
H208   H     0.17804   0.81467   0.38940   0.00000  Uiso   1.00
H209   H     0.13211   0.94376   0.40115   0.00000  Uiso   1.00
H210   H     0.08964   0.70858   0.39420   0.00000  Uiso   1.00
H211   H     0.31406   0.79034   0.38584   0.00000  Uiso   1.00
H212   H     0.07846   0.08891   0.39370   0.00000  Uiso   1.00
H213   H     0.98894   0.59301   0.37904   0.00000  Uiso   1.00
H214   H     0.46218   0.76539   0.36142   0.00000  Uiso   1.00
H215   H     0.15727   0.83036   0.23159   0.00000  Uiso   1.00
H216   H     0.11020   0.96032   0.23468   0.00000  Uiso   1.00
H217   H     0.06773   0.72514   0.22774   0.00000  Uiso   1.00
H218   H     0.29215   0.80689   0.21938   0.00000  Uiso   1.00
H219   H     0.06067   0.10234   0.25859   0.00000  Uiso   1.00
H220   H     0.97116   0.60644   0.24393   0.00000  Uiso   1.00
H221   H     0.44440   0.77883   0.22631   0.00000  Uiso   1.00
O222   O     0.03895   0.18082   0.33102   0.00000  Uiso   1.00
O223   O     0.92152   0.53021   0.31180   0.00000  Uiso   1.00
O224   O     0.54240   0.75639   0.28868   0.00000  Uiso   1.00
N225   N     0.08075   0.07424   0.36148   0.00000  Uiso   1.00
N226   N     0.99705   0.61061   0.34778   0.00000  Uiso   1.00
N227   N     0.43948   0.77176   0.33130   0.00000  Uiso   1.00
N228   N     0.07118   0.08147   0.28877   0.00000  Uiso   1.00
N229   N     0.98748   0.61784   0.27507   0.00000  Uiso   1.00
N230   N     0.42991   0.77899   0.25860   0.00000  Uiso   1.00
C231   C     0.67328   0.31827   0.85325   0.00000  Uiso   1.00
C232   C     0.64545   0.39059   0.83775   0.00000  Uiso   1.00
C233   C     0.62737   0.44736   0.86521   0.00000  Uiso   1.00
C234   C     0.60293   0.50899   0.84457   0.00000  Uiso   1.00
C235   C     0.56061   0.62056   0.82757   0.00000  Uiso   1.00
C236   C     0.62237   0.26281   0.83397   0.00000  Uiso   1.00
C237   C     0.58490   0.21215   0.85827   0.00000  Uiso   1.00
C238   C     0.54104   0.16621   0.83444   0.00000  Uiso   1.00
C239   C     0.46293   0.07938   0.81158   0.00000  Uiso   1.00
C240   C     0.74431   0.30724   0.82943   0.00000  Uiso   1.00
C241   C     0.80936   0.29391   0.84991   0.00000  Uiso   1.00
C242   C     0.86815   0.28536   0.82226   0.00000  Uiso   1.00
C243   C     0.97936   0.26750   0.79235   0.00000  Uiso   1.00
C244   C     0.66203   0.32677   0.76775   0.00000  Uiso   1.00
C245   C     0.63934   0.39520   0.79131   0.00000  Uiso   1.00
C246   C     0.61492   0.45676   0.77062   0.00000  Uiso   1.00
C247   C     0.59681   0.51361   0.79805   0.00000  Uiso   1.00
C248   C     0.61626   0.26743   0.78754   0.00000  Uiso   1.00
C249   C     0.57245   0.22155   0.76367   0.00000  Uiso   1.00
C250   C     0.53491   0.17084   0.78792   0.00000  Uiso   1.00
C251   C     0.73820   0.31185   0.78299   0.00000  Uiso   1.00
C252   C     0.79690   0.30332   0.75531   0.00000  Uiso   1.00
C253   C     0.86203   0.28998   0.77574   0.00000  Uiso   1.00
H254   H     0.67804   0.31467   0.88940   0.00000  Uiso   1.00
H255   H     0.63211   0.44376   0.90115   0.00000  Uiso   1.00
H256   H     0.58964   0.20858   0.89420   0.00000  Uiso   1.00
H257   H     0.81406   0.29034   0.88584   0.00000  Uiso   1.00
H258   H     0.57846   0.58891   0.89370   0.00000  Uiso   1.00
H259   H     0.48894   0.09301   0.87904   0.00000  Uiso   1.00
H260   H     0.96218   0.26539   0.86142   0.00000  Uiso   1.00
H261   H     0.65727   0.33036   0.73159   0.00000  Uiso   1.00
H262   H     0.61020   0.46032   0.73468   0.00000  Uiso   1.00
H263   H     0.56773   0.22514   0.72774   0.00000  Uiso   1.00
H264   H     0.79215   0.30689   0.71938   0.00000  Uiso   1.00
H265   H     0.56067   0.60234   0.75859   0.00000  Uiso   1.00
H266   H     0.47116   0.10644   0.74393   0.00000  Uiso   1.00
H267   H     0.94440   0.27883   0.72631   0.00000  Uiso   1.00
O268   O     0.53895   0.68082   0.83102   0.00000  Uiso   1.00
O269   O     0.42152   0.03021   0.81180   0.00000  Uiso   1.00
O270   O     0.04240   0.25639   0.78868   0.00000  Uiso   1.00
N271   N     0.58075   0.57424   0.86148   0.00000  Uiso   1.00
N272   N     0.49705   0.11061   0.84778   0.00000  Uiso   1.00
N273   N     0.93948   0.27176   0.83130   0.00000  Uiso   1.00
N274   N     0.57118   0.58147   0.78877   0.00000  Uiso   1.00
N275   N     0.48748   0.11784   0.77507   0.00000  Uiso   1.00
N276   N     0.92991   0.27899   0.75860   0.00000  Uiso   1.00
C277   C     0.32672   0.68173   0.85325   0.00000  Uiso   1.00
C278   C     0.35455   0.60941   0.83775   0.00000  Uiso   1.00
C279   C     0.37263   0.55264   0.86521   0.00000  Uiso   1.00
C280   C     0.39707   0.49101   0.84457   0.00000  Uiso   1.00
C281   C     0.43939   0.37944   0.82757   0.00000  Uiso   1.00
C282   C     0.37763   0.73719   0.83397   0.00000  Uiso   1.00
C283   C     0.41510   0.78785   0.85827   0.00000  Uiso   1.00
C284   C     0.45896   0.83379   0.83444   0.00000  Uiso   1.00
C285   C     0.53707   0.92062   0.81158   0.00000  Uiso   1.00
C286   C     0.25569   0.69276   0.82943   0.00000  Uiso   1.00
C287   C     0.19064   0.70609   0.84991   0.00000  Uiso   1.00
C288   C     0.13185   0.71464   0.82226   0.00000  Uiso   1.00
C289   C     0.02064   0.73250   0.79235   0.00000  Uiso   1.00
C290   C     0.33797   0.67323   0.76775   0.00000  Uiso   1.00
C291   C     0.36066   0.60480   0.79131   0.00000  Uiso   1.00
C292   C     0.38508   0.54324   0.77062   0.00000  Uiso   1.00
C293   C     0.40319   0.48639   0.79805   0.00000  Uiso   1.00
C294   C     0.38374   0.73257   0.78754   0.00000  Uiso   1.00
C295   C     0.42755   0.77845   0.76367   0.00000  Uiso   1.00
C296   C     0.46509   0.82916   0.78792   0.00000  Uiso   1.00
C297   C     0.26180   0.68815   0.78299   0.00000  Uiso   1.00
C298   C     0.20310   0.69668   0.75531   0.00000  Uiso   1.00
C299   C     0.13797   0.71002   0.77574   0.00000  Uiso   1.00
H300   H     0.32196   0.68533   0.88940   0.00000  Uiso   1.00
H301   H     0.36789   0.55624   0.90115   0.00000  Uiso   1.00
H302   H     0.41036   0.79142   0.89420   0.00000  Uiso   1.00
H303   H     0.18594   0.70966   0.88584   0.00000  Uiso   1.00
H304   H     0.42154   0.41109   0.89370   0.00000  Uiso   1.00
H305   H     0.51106   0.90699   0.87904   0.00000  Uiso   1.00
H306   H     0.03782   0.73461   0.86142   0.00000  Uiso   1.00
H307   H     0.34273   0.66964   0.73159   0.00000  Uiso   1.00
H308   H     0.38980   0.53968   0.73468   0.00000  Uiso   1.00
H309   H     0.43227   0.77486   0.72774   0.00000  Uiso   1.00
H310   H     0.20785   0.69311   0.71938   0.00000  Uiso   1.00
H311   H     0.43933   0.39766   0.75859   0.00000  Uiso   1.00
H312   H     0.52884   0.89356   0.74393   0.00000  Uiso   1.00
H313   H     0.05560   0.72117   0.72631   0.00000  Uiso   1.00
O314   O     0.46105   0.31918   0.83102   0.00000  Uiso   1.00
O315   O     0.57848   0.96979   0.81180   0.00000  Uiso   1.00
O316   O     0.95760   0.74361   0.78868   0.00000  Uiso   1.00
N317   N     0.41925   0.42576   0.86148   0.00000  Uiso   1.00
N318   N     0.50295   0.88939   0.84778   0.00000  Uiso   1.00
N319   N     0.06052   0.72824   0.83130   0.00000  Uiso   1.00
N320   N     0.42882   0.41853   0.78877   0.00000  Uiso   1.00
N321   N     0.51252   0.88216   0.77507   0.00000  Uiso   1.00
N322   N     0.07009   0.72101   0.75860   0.00000  Uiso   1.00
C323   C     0.82672   0.18173   0.35325   0.00000  Uiso   1.00
C324   C     0.85455   0.10941   0.33775   0.00000  Uiso   1.00
C325   C     0.87263   0.05264   0.36521   0.00000  Uiso   1.00
C326   C     0.89707   0.99101   0.34457   0.00000  Uiso   1.00
C327   C     0.93939   0.87944   0.32757   0.00000  Uiso   1.00
C328   C     0.87763   0.23719   0.33397   0.00000  Uiso   1.00
C329   C     0.91510   0.28785   0.35827   0.00000  Uiso   1.00
C330   C     0.95896   0.33379   0.33444   0.00000  Uiso   1.00
C331   C     0.03707   0.42062   0.31158   0.00000  Uiso   1.00
C332   C     0.75569   0.19276   0.32943   0.00000  Uiso   1.00
C333   C     0.69064   0.20609   0.34991   0.00000  Uiso   1.00
C334   C     0.63185   0.21464   0.32226   0.00000  Uiso   1.00
C335   C     0.52064   0.23250   0.29235   0.00000  Uiso   1.00
C336   C     0.83797   0.17323   0.26775   0.00000  Uiso   1.00
C337   C     0.86066   0.10480   0.29131   0.00000  Uiso   1.00
C338   C     0.88508   0.04324   0.27062   0.00000  Uiso   1.00
C339   C     0.90319   0.98639   0.29805   0.00000  Uiso   1.00
C340   C     0.88374   0.23257   0.28754   0.00000  Uiso   1.00
C341   C     0.92755   0.27845   0.26367   0.00000  Uiso   1.00
C342   C     0.96509   0.32916   0.28792   0.00000  Uiso   1.00
C343   C     0.76180   0.18815   0.28299   0.00000  Uiso   1.00
C344   C     0.70310   0.19668   0.25531   0.00000  Uiso   1.00
C345   C     0.63797   0.21002   0.27574   0.00000  Uiso   1.00
H346   H     0.82196   0.18533   0.38940   0.00000  Uiso   1.00
H347   H     0.86789   0.05624   0.40115   0.00000  Uiso   1.00
H348   H     0.91036   0.29142   0.39420   0.00000  Uiso   1.00
H349   H     0.68594   0.20966   0.38584   0.00000  Uiso   1.00
H350   H     0.92154   0.91109   0.39370   0.00000  Uiso   1.00
H351   H     0.01106   0.40699   0.37904   0.00000  Uiso   1.00
H352   H     0.53782   0.23461   0.36142   0.00000  Uiso   1.00
H353   H     0.84273   0.16964   0.23159   0.00000  Uiso   1.00
H354   H     0.88980   0.03968   0.23468   0.00000  Uiso   1.00
H355   H     0.93227   0.27486   0.22774   0.00000  Uiso   1.00
H356   H     0.70785   0.19311   0.21938   0.00000  Uiso   1.00
H357   H     0.93933   0.89766   0.25859   0.00000  Uiso   1.00
H358   H     0.02884   0.39356   0.24393   0.00000  Uiso   1.00
H359   H     0.55560   0.22117   0.22631   0.00000  Uiso   1.00
O360   O     0.96105   0.81918   0.33102   0.00000  Uiso   1.00
O361   O     0.07848   0.46979   0.31180   0.00000  Uiso   1.00
O362   O     0.45760   0.24361   0.28868   0.00000  Uiso   1.00
N363   N     0.91925   0.92576   0.36148   0.00000  Uiso   1.00
N364   N     0.00295   0.38939   0.34778   0.00000  Uiso   1.00
N365   N     0.56052   0.22824   0.33130   0.00000  Uiso   1.00
N366   N     0.92882   0.91853   0.28877   0.00000  Uiso   1.00
N367   N     0.01252   0.38216   0.27507   0.00000  Uiso   1.00
N368   N     0.57009   0.22101   0.25860   0.00000  Uiso   1.00
C369   C     0.68173   0.67328   0.14675   0.00000  Uiso   1.00
C370   C     0.60941   0.64545   0.16225   0.00000  Uiso   1.00
C371   C     0.55264   0.62737   0.13479   0.00000  Uiso   1.00
C372   C     0.49101   0.60293   0.15543   0.00000  Uiso   1.00
C373   C     0.37944   0.56061   0.17243   0.00000  Uiso   1.00
C374   C     0.73719   0.62237   0.16603   0.00000  Uiso   1.00
C375   C     0.78785   0.58490   0.14173   0.00000  Uiso   1.00
C376   C     0.83379   0.54104   0.16556   0.00000  Uiso   1.00
C377   C     0.92062   0.46293   0.18842   0.00000  Uiso   1.00
C378   C     0.69276   0.74431   0.17057   0.00000  Uiso   1.00
C379   C     0.70609   0.80936   0.15009   0.00000  Uiso   1.00
C380   C     0.71464   0.86815   0.17774   0.00000  Uiso   1.00
C381   C     0.73250   0.97936   0.20765   0.00000  Uiso   1.00
C382   C     0.67323   0.66203   0.23225   0.00000  Uiso   1.00
C383   C     0.60480   0.63934   0.20869   0.00000  Uiso   1.00
C384   C     0.54324   0.61492   0.22938   0.00000  Uiso   1.00
C385   C     0.48639   0.59681   0.20195   0.00000  Uiso   1.00
C386   C     0.73257   0.61626   0.21246   0.00000  Uiso   1.00
C387   C     0.77845   0.57245   0.23633   0.00000  Uiso   1.00
C388   C     0.82916   0.53491   0.21208   0.00000  Uiso   1.00
C389   C     0.68815   0.73820   0.21701   0.00000  Uiso   1.00
C390   C     0.69668   0.79690   0.24469   0.00000  Uiso   1.00
C391   C     0.71002   0.86203   0.22426   0.00000  Uiso   1.00
H392   H     0.68533   0.67804   0.11060   0.00000  Uiso   1.00
H393   H     0.55624   0.63211   0.09885   0.00000  Uiso   1.00
H394   H     0.79142   0.58964   0.10580   0.00000  Uiso   1.00
H395   H     0.70966   0.81406   0.11416   0.00000  Uiso   1.00
H396   H     0.41109   0.57846   0.10630   0.00000  Uiso   1.00
H397   H     0.90699   0.48894   0.12096   0.00000  Uiso   1.00
H398   H     0.73461   0.96218   0.13858   0.00000  Uiso   1.00
H399   H     0.66964   0.65727   0.26841   0.00000  Uiso   1.00
H400   H     0.53968   0.61020   0.26532   0.00000  Uiso   1.00
H401   H     0.77486   0.56773   0.27226   0.00000  Uiso   1.00
H402   H     0.69311   0.79215   0.28062   0.00000  Uiso   1.00
H403   H     0.39766   0.56067   0.24141   0.00000  Uiso   1.00
H404   H     0.89356   0.47116   0.25607   0.00000  Uiso   1.00
H405   H     0.72117   0.94440   0.27369   0.00000  Uiso   1.00
O406   O     0.31918   0.53895   0.16898   0.00000  Uiso   1.00
O407   O     0.96979   0.42152   0.18820   0.00000  Uiso   1.00
O408   O     0.74361   0.04240   0.21132   0.00000  Uiso   1.00
N409   N     0.42576   0.58075   0.13852   0.00000  Uiso   1.00
N410   N     0.88939   0.49705   0.15222   0.00000  Uiso   1.00
N411   N     0.72824   0.93948   0.16870   0.00000  Uiso   1.00
N412   N     0.41853   0.57118   0.21123   0.00000  Uiso   1.00
N413   N     0.88216   0.48748   0.22493   0.00000  Uiso   1.00
N414   N     0.72101   0.92991   0.24140   0.00000  Uiso   1.00
C415   C     0.18173   0.17328   0.64675   0.00000  Uiso   1.00
C416   C     0.10941   0.14545   0.66225   0.00000  Uiso   1.00
C417   C     0.05264   0.12737   0.63479   0.00000  Uiso   1.00
C418   C     0.99101   0.10293   0.65543   0.00000  Uiso   1.00
C419   C     0.87944   0.06061   0.67243   0.00000  Uiso   1.00
C420   C     0.23719   0.12237   0.66603   0.00000  Uiso   1.00
C421   C     0.28785   0.08490   0.64173   0.00000  Uiso   1.00
C422   C     0.33379   0.04104   0.66556   0.00000  Uiso   1.00
C423   C     0.42062   0.96293   0.68842   0.00000  Uiso   1.00
C424   C     0.19276   0.24431   0.67057   0.00000  Uiso   1.00
C425   C     0.20609   0.30936   0.65009   0.00000  Uiso   1.00
C426   C     0.21464   0.36815   0.67774   0.00000  Uiso   1.00
C427   C     0.23250   0.47936   0.70765   0.00000  Uiso   1.00
C428   C     0.17323   0.16203   0.73225   0.00000  Uiso   1.00
C429   C     0.10480   0.13934   0.70869   0.00000  Uiso   1.00
C430   C     0.04324   0.11492   0.72938   0.00000  Uiso   1.00
C431   C     0.98639   0.09681   0.70195   0.00000  Uiso   1.00
C432   C     0.23257   0.11626   0.71246   0.00000  Uiso   1.00
C433   C     0.27845   0.07245   0.73633   0.00000  Uiso   1.00
C434   C     0.32916   0.03491   0.71208   0.00000  Uiso   1.00
C435   C     0.18815   0.23820   0.71701   0.00000  Uiso   1.00
C436   C     0.19668   0.29690   0.74469   0.00000  Uiso   1.00
C437   C     0.21002   0.36203   0.72426   0.00000  Uiso   1.00
H438   H     0.18533   0.17804   0.61060   0.00000  Uiso   1.00
H439   H     0.05624   0.13211   0.59885   0.00000  Uiso   1.00
H440   H     0.29142   0.08964   0.60580   0.00000  Uiso   1.00
H441   H     0.20966   0.31406   0.61416   0.00000  Uiso   1.00
H442   H     0.91109   0.07846   0.60630   0.00000  Uiso   1.00
H443   H     0.40699   0.98894   0.62096   0.00000  Uiso   1.00
H444   H     0.23461   0.46218   0.63858   0.00000  Uiso   1.00
H445   H     0.16964   0.15727   0.76841   0.00000  Uiso   1.00
H446   H     0.03968   0.11020   0.76532   0.00000  Uiso   1.00
H447   H     0.27486   0.06773   0.77226   0.00000  Uiso   1.00
H448   H     0.19311   0.29215   0.78062   0.00000  Uiso   1.00
H449   H     0.89766   0.06067   0.74141   0.00000  Uiso   1.00
H450   H     0.39356   0.97116   0.75607   0.00000  Uiso   1.00
H451   H     0.22117   0.44440   0.77369   0.00000  Uiso   1.00
O452   O     0.81918   0.03895   0.66898   0.00000  Uiso   1.00
O453   O     0.46979   0.92152   0.68820   0.00000  Uiso   1.00
O454   O     0.24361   0.54240   0.71132   0.00000  Uiso   1.00
N455   N     0.92576   0.08075   0.63852   0.00000  Uiso   1.00
N456   N     0.38939   0.99705   0.65222   0.00000  Uiso   1.00
N457   N     0.22824   0.43948   0.66870   0.00000  Uiso   1.00
N458   N     0.91853   0.07118   0.71123   0.00000  Uiso   1.00
N459   N     0.38216   0.98748   0.72493   0.00000  Uiso   1.00
N460   N     0.22101   0.42991   0.74140   0.00000  Uiso   1.00
C461   C     0.81827   0.82672   0.64675   0.00000  Uiso   1.00
C462   C     0.89059   0.85455   0.66225   0.00000  Uiso   1.00
C463   C     0.94736   0.87263   0.63479   0.00000  Uiso   1.00
C464   C     0.00899   0.89707   0.65543   0.00000  Uiso   1.00
C465   C     0.12056   0.93939   0.67243   0.00000  Uiso   1.00
C466   C     0.76281   0.87763   0.66603   0.00000  Uiso   1.00
C467   C     0.71215   0.91510   0.64173   0.00000  Uiso   1.00
C468   C     0.66621   0.95896   0.66556   0.00000  Uiso   1.00
C469   C     0.57938   0.03707   0.68842   0.00000  Uiso   1.00
C470   C     0.80724   0.75569   0.67057   0.00000  Uiso   1.00
C471   C     0.79391   0.69064   0.65009   0.00000  Uiso   1.00
C472   C     0.78536   0.63185   0.67774   0.00000  Uiso   1.00
C473   C     0.76750   0.52064   0.70765   0.00000  Uiso   1.00
C474   C     0.82677   0.83797   0.73225   0.00000  Uiso   1.00
C475   C     0.89520   0.86066   0.70869   0.00000  Uiso   1.00
C476   C     0.95676   0.88508   0.72938   0.00000  Uiso   1.00
C477   C     0.01361   0.90319   0.70195   0.00000  Uiso   1.00
C478   C     0.76743   0.88374   0.71246   0.00000  Uiso   1.00
C479   C     0.72155   0.92755   0.73633   0.00000  Uiso   1.00
C480   C     0.67084   0.96509   0.71208   0.00000  Uiso   1.00
C481   C     0.81185   0.76180   0.71701   0.00000  Uiso   1.00
C482   C     0.80332   0.70310   0.74469   0.00000  Uiso   1.00
C483   C     0.78998   0.63797   0.72426   0.00000  Uiso   1.00
H484   H     0.81467   0.82196   0.61060   0.00000  Uiso   1.00
H485   H     0.94376   0.86789   0.59885   0.00000  Uiso   1.00
H486   H     0.70858   0.91036   0.60580   0.00000  Uiso   1.00
H487   H     0.79034   0.68594   0.61416   0.00000  Uiso   1.00
H488   H     0.08891   0.92154   0.60630   0.00000  Uiso   1.00
H489   H     0.59301   0.01106   0.62096   0.00000  Uiso   1.00
H490   H     0.76539   0.53782   0.63858   0.00000  Uiso   1.00
H491   H     0.83036   0.84273   0.76841   0.00000  Uiso   1.00
H492   H     0.96032   0.88980   0.76532   0.00000  Uiso   1.00
H493   H     0.72514   0.93227   0.77226   0.00000  Uiso   1.00
H494   H     0.80689   0.70785   0.78062   0.00000  Uiso   1.00
H495   H     0.10234   0.93933   0.74141   0.00000  Uiso   1.00
H496   H     0.60644   0.02884   0.75607   0.00000  Uiso   1.00
H497   H     0.77883   0.55560   0.77369   0.00000  Uiso   1.00
O498   O     0.18082   0.96105   0.66898   0.00000  Uiso   1.00
O499   O     0.53021   0.07848   0.68820   0.00000  Uiso   1.00
O500   O     0.75639   0.45760   0.71132   0.00000  Uiso   1.00
N501   N     0.07424   0.91925   0.63852   0.00000  Uiso   1.00
N502   N     0.61061   0.00295   0.65222   0.00000  Uiso   1.00
N503   N     0.77176   0.56052   0.66870   0.00000  Uiso   1.00
N504   N     0.08147   0.92882   0.71123   0.00000  Uiso   1.00
N505   N     0.61784   0.01252   0.72493   0.00000  Uiso   1.00
N506   N     0.77899   0.57009   0.74140   0.00000  Uiso   1.00
C507   C     0.31827   0.32672   0.14675   0.00000  Uiso   1.00
C508   C     0.39059   0.35455   0.16225   0.00000  Uiso   1.00
C509   C     0.44736   0.37263   0.13479   0.00000  Uiso   1.00
C510   C     0.50899   0.39707   0.15543   0.00000  Uiso   1.00
C511   C     0.62056   0.43939   0.17243   0.00000  Uiso   1.00
C512   C     0.26281   0.37763   0.16603   0.00000  Uiso   1.00
C513   C     0.21215   0.41510   0.14173   0.00000  Uiso   1.00
C514   C     0.16621   0.45896   0.16556   0.00000  Uiso   1.00
C515   C     0.07938   0.53707   0.18842   0.00000  Uiso   1.00
C516   C     0.30724   0.25569   0.17057   0.00000  Uiso   1.00
C517   C     0.29391   0.19064   0.15009   0.00000  Uiso   1.00
C518   C     0.28536   0.13185   0.17774   0.00000  Uiso   1.00
C519   C     0.26750   0.02064   0.20765   0.00000  Uiso   1.00
C520   C     0.32677   0.33797   0.23225   0.00000  Uiso   1.00
C521   C     0.39520   0.36066   0.20869   0.00000  Uiso   1.00
C522   C     0.45676   0.38508   0.22938   0.00000  Uiso   1.00
C523   C     0.51361   0.40319   0.20195   0.00000  Uiso   1.00
C524   C     0.26743   0.38374   0.21246   0.00000  Uiso   1.00
C525   C     0.22155   0.42755   0.23633   0.00000  Uiso   1.00
C526   C     0.17084   0.46509   0.21208   0.00000  Uiso   1.00
C527   C     0.31185   0.26180   0.21701   0.00000  Uiso   1.00
C528   C     0.30332   0.20310   0.24469   0.00000  Uiso   1.00
C529   C     0.28998   0.13797   0.22426   0.00000  Uiso   1.00
H530   H     0.31467   0.32196   0.11060   0.00000  Uiso   1.00
H531   H     0.44376   0.36789   0.09885   0.00000  Uiso   1.00
H532   H     0.20858   0.41036   0.10580   0.00000  Uiso   1.00
H533   H     0.29034   0.18594   0.11416   0.00000  Uiso   1.00
H534   H     0.58891   0.42154   0.10630   0.00000  Uiso   1.00
H535   H     0.09301   0.51106   0.12096   0.00000  Uiso   1.00
H536   H     0.26539   0.03782   0.13858   0.00000  Uiso   1.00
H537   H     0.33036   0.34273   0.26841   0.00000  Uiso   1.00
H538   H     0.46032   0.38980   0.26532   0.00000  Uiso   1.00
H539   H     0.22514   0.43227   0.27226   0.00000  Uiso   1.00
H540   H     0.30689   0.20785   0.28062   0.00000  Uiso   1.00
H541   H     0.60234   0.43933   0.24141   0.00000  Uiso   1.00
H542   H     0.10644   0.52884   0.25607   0.00000  Uiso   1.00
H543   H     0.27883   0.05560   0.27369   0.00000  Uiso   1.00
O544   O     0.68082   0.46105   0.16898   0.00000  Uiso   1.00
O545   O     0.03021   0.57848   0.18820   0.00000  Uiso   1.00
O546   O     0.25639   0.95760   0.21132   0.00000  Uiso   1.00
N547   N     0.57424   0.41925   0.13852   0.00000  Uiso   1.00
N548   N     0.11061   0.50295   0.15222   0.00000  Uiso   1.00
N549   N     0.27176   0.06052   0.16870   0.00000  Uiso   1.00
N550   N     0.58147   0.42882   0.21123   0.00000  Uiso   1.00
N551   N     0.11784   0.51252   0.22493   0.00000  Uiso   1.00
N552   N     0.27899   0.07009   0.24140   0.00000  Uiso   1.00
C553   C     0.82672   0.68173   0.89675   0.00000  Uiso   1.00
C554   C     0.85455   0.60941   0.91225   0.00000  Uiso   1.00
C555   C     0.87263   0.55264   0.88479   0.00000  Uiso   1.00
C556   C     0.89707   0.49101   0.90543   0.00000  Uiso   1.00
C557   C     0.93939   0.37944   0.92243   0.00000  Uiso   1.00
C558   C     0.87763   0.73719   0.91603   0.00000  Uiso   1.00
C559   C     0.91510   0.78785   0.89173   0.00000  Uiso   1.00
C560   C     0.95896   0.83379   0.91556   0.00000  Uiso   1.00
C561   C     0.03707   0.92062   0.93842   0.00000  Uiso   1.00
C562   C     0.75569   0.69276   0.92057   0.00000  Uiso   1.00
C563   C     0.69064   0.70609   0.90009   0.00000  Uiso   1.00
C564   C     0.63185   0.71464   0.92774   0.00000  Uiso   1.00
C565   C     0.52064   0.73250   0.95765   0.00000  Uiso   1.00
C566   C     0.83797   0.67323   0.98225   0.00000  Uiso   1.00
C567   C     0.86066   0.60480   0.95869   0.00000  Uiso   1.00
C568   C     0.88508   0.54324   0.97938   0.00000  Uiso   1.00
C569   C     0.90319   0.48639   0.95195   0.00000  Uiso   1.00
C570   C     0.88374   0.73257   0.96246   0.00000  Uiso   1.00
C571   C     0.92755   0.77845   0.98633   0.00000  Uiso   1.00
C572   C     0.96509   0.82916   0.96208   0.00000  Uiso   1.00
C573   C     0.76180   0.68815   0.96701   0.00000  Uiso   1.00
C574   C     0.70310   0.69668   0.99469   0.00000  Uiso   1.00
C575   C     0.63797   0.71002   0.97426   0.00000  Uiso   1.00
H576   H     0.82196   0.68533   0.86060   0.00000  Uiso   1.00
H577   H     0.86789   0.55624   0.84885   0.00000  Uiso   1.00
H578   H     0.91036   0.79142   0.85580   0.00000  Uiso   1.00
H579   H     0.68594   0.70966   0.86416   0.00000  Uiso   1.00
H580   H     0.92154   0.41109   0.85630   0.00000  Uiso   1.00
H581   H     0.01106   0.90699   0.87096   0.00000  Uiso   1.00
H582   H     0.53782   0.73461   0.88858   0.00000  Uiso   1.00
H583   H     0.84273   0.66964   0.01841   0.00000  Uiso   1.00
H584   H     0.88980   0.53968   0.01532   0.00000  Uiso   1.00
H585   H     0.93227   0.77486   0.02226   0.00000  Uiso   1.00
H586   H     0.70785   0.69311   0.03062   0.00000  Uiso   1.00
H587   H     0.93933   0.39766   0.99141   0.00000  Uiso   1.00
H588   H     0.02884   0.89356   0.00607   0.00000  Uiso   1.00
H589   H     0.55560   0.72117   0.02369   0.00000  Uiso   1.00
O590   O     0.96105   0.31918   0.91898   0.00000  Uiso   1.00
O591   O     0.07848   0.96979   0.93820   0.00000  Uiso   1.00
O592   O     0.45760   0.74361   0.96132   0.00000  Uiso   1.00
N593   N     0.91925   0.42576   0.88852   0.00000  Uiso   1.00
N594   N     0.00295   0.88939   0.90222   0.00000  Uiso   1.00
N595   N     0.56052   0.72824   0.91870   0.00000  Uiso   1.00
N596   N     0.92882   0.41853   0.96123   0.00000  Uiso   1.00
N597   N     0.01252   0.88216   0.97493   0.00000  Uiso   1.00
N598   N     0.57009   0.72101   0.99140   0.00000  Uiso   1.00
C599   C     0.32672   0.18173   0.39675   0.00000  Uiso   1.00
C600   C     0.35455   0.10941   0.41225   0.00000  Uiso   1.00
C601   C     0.37263   0.05264   0.38479   0.00000  Uiso   1.00
C602   C     0.39707   0.99101   0.40543   0.00000  Uiso   1.00
C603   C     0.43939   0.87944   0.42243   0.00000  Uiso   1.00
C604   C     0.37763   0.23719   0.41603   0.00000  Uiso   1.00
C605   C     0.41510   0.28785   0.39173   0.00000  Uiso   1.00
C606   C     0.45896   0.33379   0.41556   0.00000  Uiso   1.00
C607   C     0.53707   0.42062   0.43842   0.00000  Uiso   1.00
C608   C     0.25569   0.19276   0.42057   0.00000  Uiso   1.00
C609   C     0.19064   0.20609   0.40009   0.00000  Uiso   1.00
C610   C     0.13185   0.21464   0.42774   0.00000  Uiso   1.00
C611   C     0.02064   0.23250   0.45765   0.00000  Uiso   1.00
C612   C     0.33797   0.17323   0.48225   0.00000  Uiso   1.00
C613   C     0.36066   0.10480   0.45869   0.00000  Uiso   1.00
C614   C     0.38508   0.04324   0.47938   0.00000  Uiso   1.00
C615   C     0.40319   0.98639   0.45195   0.00000  Uiso   1.00
C616   C     0.38374   0.23257   0.46246   0.00000  Uiso   1.00
C617   C     0.42755   0.27845   0.48633   0.00000  Uiso   1.00
C618   C     0.46509   0.32916   0.46208   0.00000  Uiso   1.00
C619   C     0.26180   0.18815   0.46701   0.00000  Uiso   1.00
C620   C     0.20310   0.19668   0.49469   0.00000  Uiso   1.00
C621   C     0.13797   0.21002   0.47426   0.00000  Uiso   1.00
H622   H     0.32196   0.18533   0.36060   0.00000  Uiso   1.00
H623   H     0.36789   0.05624   0.34885   0.00000  Uiso   1.00
H624   H     0.41036   0.29142   0.35580   0.00000  Uiso   1.00
H625   H     0.18594   0.20966   0.36416   0.00000  Uiso   1.00
H626   H     0.42154   0.91109   0.35630   0.00000  Uiso   1.00
H627   H     0.51106   0.40699   0.37096   0.00000  Uiso   1.00
H628   H     0.03782   0.23461   0.38858   0.00000  Uiso   1.00
H629   H     0.34273   0.16964   0.51841   0.00000  Uiso   1.00
H630   H     0.38980   0.03968   0.51532   0.00000  Uiso   1.00
H631   H     0.43227   0.27486   0.52226   0.00000  Uiso   1.00
H632   H     0.20785   0.19311   0.53062   0.00000  Uiso   1.00
H633   H     0.43933   0.89766   0.49141   0.00000  Uiso   1.00
H634   H     0.52884   0.39356   0.50607   0.00000  Uiso   1.00
H635   H     0.05560   0.22117   0.52369   0.00000  Uiso   1.00
O636   O     0.46105   0.81918   0.41898   0.00000  Uiso   1.00
O637   O     0.57848   0.46979   0.43820   0.00000  Uiso   1.00
O638   O     0.95760   0.24361   0.46132   0.00000  Uiso   1.00
N639   N     0.41925   0.92576   0.38852   0.00000  Uiso   1.00
N640   N     0.50295   0.38939   0.40222   0.00000  Uiso   1.00
N641   N     0.06052   0.22824   0.41870   0.00000  Uiso   1.00
N642   N     0.42882   0.91853   0.46123   0.00000  Uiso   1.00
N643   N     0.51252   0.38216   0.47493   0.00000  Uiso   1.00
N644   N     0.07009   0.22101   0.49140   0.00000  Uiso   1.00
C645   C     0.67328   0.81827   0.39675   0.00000  Uiso   1.00
C646   C     0.64545   0.89059   0.41225   0.00000  Uiso   1.00
C647   C     0.62737   0.94736   0.38479   0.00000  Uiso   1.00
C648   C     0.60293   0.00899   0.40543   0.00000  Uiso   1.00
C649   C     0.56061   0.12056   0.42243   0.00000  Uiso   1.00
C650   C     0.62237   0.76281   0.41603   0.00000  Uiso   1.00
C651   C     0.58490   0.71215   0.39173   0.00000  Uiso   1.00
C652   C     0.54104   0.66621   0.41556   0.00000  Uiso   1.00
C653   C     0.46293   0.57938   0.43842   0.00000  Uiso   1.00
C654   C     0.74431   0.80724   0.42057   0.00000  Uiso   1.00
C655   C     0.80936   0.79391   0.40009   0.00000  Uiso   1.00
C656   C     0.86815   0.78536   0.42774   0.00000  Uiso   1.00
C657   C     0.97936   0.76750   0.45765   0.00000  Uiso   1.00
C658   C     0.66203   0.82677   0.48225   0.00000  Uiso   1.00
C659   C     0.63934   0.89520   0.45869   0.00000  Uiso   1.00
C660   C     0.61492   0.95676   0.47938   0.00000  Uiso   1.00
C661   C     0.59681   0.01361   0.45195   0.00000  Uiso   1.00
C662   C     0.61626   0.76743   0.46246   0.00000  Uiso   1.00
C663   C     0.57245   0.72155   0.48633   0.00000  Uiso   1.00
C664   C     0.53491   0.67084   0.46208   0.00000  Uiso   1.00
C665   C     0.73820   0.81185   0.46701   0.00000  Uiso   1.00
C666   C     0.79690   0.80332   0.49469   0.00000  Uiso   1.00
C667   C     0.86203   0.78998   0.47426   0.00000  Uiso   1.00
H668   H     0.67804   0.81467   0.36060   0.00000  Uiso   1.00
H669   H     0.63211   0.94376   0.34885   0.00000  Uiso   1.00
H670   H     0.58964   0.70858   0.35580   0.00000  Uiso   1.00
H671   H     0.81406   0.79034   0.36416   0.00000  Uiso   1.00
H672   H     0.57846   0.08891   0.35630   0.00000  Uiso   1.00
H673   H     0.48894   0.59301   0.37096   0.00000  Uiso   1.00
H674   H     0.96218   0.76539   0.38858   0.00000  Uiso   1.00
H675   H     0.65727   0.83036   0.51841   0.00000  Uiso   1.00
H676   H     0.61020   0.96032   0.51532   0.00000  Uiso   1.00
H677   H     0.56773   0.72514   0.52226   0.00000  Uiso   1.00
H678   H     0.79215   0.80689   0.53062   0.00000  Uiso   1.00
H679   H     0.56067   0.10234   0.49141   0.00000  Uiso   1.00
H680   H     0.47116   0.60644   0.50607   0.00000  Uiso   1.00
H681   H     0.94440   0.77883   0.52369   0.00000  Uiso   1.00
O682   O     0.53895   0.18082   0.41898   0.00000  Uiso   1.00
O683   O     0.42152   0.53021   0.43820   0.00000  Uiso   1.00
O684   O     0.04240   0.75639   0.46132   0.00000  Uiso   1.00
N685   N     0.58075   0.07424   0.38852   0.00000  Uiso   1.00
N686   N     0.49705   0.61061   0.40222   0.00000  Uiso   1.00
N687   N     0.93948   0.77176   0.41870   0.00000  Uiso   1.00
N688   N     0.57118   0.08147   0.46123   0.00000  Uiso   1.00
N689   N     0.48748   0.61784   0.47493   0.00000  Uiso   1.00
N690   N     0.92991   0.77899   0.49140   0.00000  Uiso   1.00
C691   C     0.17328   0.31827   0.89675   0.00000  Uiso   1.00
C692   C     0.14545   0.39059   0.91225   0.00000  Uiso   1.00
C693   C     0.12737   0.44736   0.88479   0.00000  Uiso   1.00
C694   C     0.10293   0.50899   0.90543   0.00000  Uiso   1.00
C695   C     0.06061   0.62056   0.92243   0.00000  Uiso   1.00
C696   C     0.12237   0.26281   0.91603   0.00000  Uiso   1.00
C697   C     0.08490   0.21215   0.89173   0.00000  Uiso   1.00
C698   C     0.04104   0.16621   0.91556   0.00000  Uiso   1.00
C699   C     0.96293   0.07938   0.93842   0.00000  Uiso   1.00
C700   C     0.24431   0.30724   0.92057   0.00000  Uiso   1.00
C701   C     0.30936   0.29391   0.90009   0.00000  Uiso   1.00
C702   C     0.36815   0.28536   0.92774   0.00000  Uiso   1.00
C703   C     0.47936   0.26750   0.95765   0.00000  Uiso   1.00
C704   C     0.16203   0.32677   0.98225   0.00000  Uiso   1.00
C705   C     0.13934   0.39520   0.95869   0.00000  Uiso   1.00
C706   C     0.11492   0.45676   0.97938   0.00000  Uiso   1.00
C707   C     0.09681   0.51361   0.95195   0.00000  Uiso   1.00
C708   C     0.11626   0.26743   0.96246   0.00000  Uiso   1.00
C709   C     0.07245   0.22155   0.98633   0.00000  Uiso   1.00
C710   C     0.03491   0.17084   0.96208   0.00000  Uiso   1.00
C711   C     0.23820   0.31185   0.96701   0.00000  Uiso   1.00
C712   C     0.29690   0.30332   0.99469   0.00000  Uiso   1.00
C713   C     0.36203   0.28998   0.97426   0.00000  Uiso   1.00
H714   H     0.17804   0.31467   0.86060   0.00000  Uiso   1.00
H715   H     0.13211   0.44376   0.84885   0.00000  Uiso   1.00
H716   H     0.08964   0.20858   0.85580   0.00000  Uiso   1.00
H717   H     0.31406   0.29034   0.86416   0.00000  Uiso   1.00
H718   H     0.07846   0.58891   0.85630   0.00000  Uiso   1.00
H719   H     0.98894   0.09301   0.87096   0.00000  Uiso   1.00
H720   H     0.46218   0.26539   0.88858   0.00000  Uiso   1.00
H721   H     0.15727   0.33036   0.01841   0.00000  Uiso   1.00
H722   H     0.11020   0.46032   0.01532   0.00000  Uiso   1.00
H723   H     0.06773   0.22514   0.02226   0.00000  Uiso   1.00
H724   H     0.29215   0.30689   0.03062   0.00000  Uiso   1.00
H725   H     0.06067   0.60234   0.99141   0.00000  Uiso   1.00
H726   H     0.97116   0.10644   0.00607   0.00000  Uiso   1.00
H727   H     0.44440   0.27883   0.02369   0.00000  Uiso   1.00
O728   O     0.03895   0.68082   0.91898   0.00000  Uiso   1.00
O729   O     0.92152   0.03021   0.93820   0.00000  Uiso   1.00
O730   O     0.54240   0.25639   0.96132   0.00000  Uiso   1.00
N731   N     0.08075   0.57424   0.88852   0.00000  Uiso   1.00
N732   N     0.99705   0.11061   0.90222   0.00000  Uiso   1.00
N733   N     0.43948   0.27176   0.91870   0.00000  Uiso   1.00
N734   N     0.07118   0.58147   0.96123   0.00000  Uiso   1.00
N735   N     0.98748   0.11784   0.97493   0.00000  Uiso   1.00
N736   N     0.42991   0.27899   0.99140   0.00000  Uiso   1.00
