data_job_02689
_audit_creation_date              2018-12-19
_audit_creation_method            'Materials Studio'
_symmetry_space_group_name_H-M    'P1'
_symmetry_Int_Tables_number       1
_symmetry_cell_setting            triclinic
loop_
_symmetry_equiv_pos_as_xyz
  x,y,z
_cell_length_a                    23.2825
_cell_length_b                    23.2825
_cell_length_c                    23.1331
_cell_angle_alpha                 90.0000
_cell_angle_beta                  90.0000
_cell_angle_gamma                 90.0000
loop_
_atom_site_label
_atom_site_type_symbol
_atom_site_fract_x
_atom_site_fract_y
_atom_site_fract_z
_atom_site_U_iso_or_equiv
_atom_site_adp_type
_atom_site_occupancy
C1     C     0.38289   0.36256   0.19686   0.00000  Uiso   1.00
C2     C     0.35455   0.42084   0.18734   0.00000  Uiso   1.00
C3     C     0.34370   0.44611   0.13411   0.00000  Uiso   1.00
C4     C     0.31742   0.49963   0.13457   0.00000  Uiso   1.00
C5     C     0.27569   0.58600   0.11190   0.00000  Uiso   1.00
C6     C     0.43463   0.37366   0.23571   0.00000  Uiso   1.00
C7     C     0.49110   0.35923   0.22316   0.00000  Uiso   1.00
C8     C     0.53222   0.37303   0.26436   0.00000  Uiso   1.00
C9     C     0.61481   0.38610   0.31681   0.00000  Uiso   1.00
C10    C     0.34074   0.32754   0.23295   0.00000  Uiso   1.00
C11    C     0.31829   0.27434   0.21808   0.00000  Uiso   1.00
C12    C     0.28037   0.24930   0.25696   0.00000  Uiso   1.00
C13    C     0.21718   0.19077   0.30512   0.00000  Uiso   1.00
C14    C     0.35550   0.41269   0.29233   0.00000  Uiso   1.00
C15    C     0.33967   0.44807   0.23920   0.00000  Uiso   1.00
C16    C     0.31339   0.50157   0.23974   0.00000  Uiso   1.00
C17    C     0.30251   0.52691   0.18652   0.00000  Uiso   1.00
C18    C     0.41975   0.40089   0.28757   0.00000  Uiso   1.00
C19    C     0.46079   0.41470   0.32880   0.00000  Uiso   1.00
C20    C     0.51732   0.40031   0.31631   0.00000  Uiso   1.00
C21    C     0.32586   0.35477   0.28481   0.00000  Uiso   1.00
C22    C     0.28797   0.32981   0.32372   0.00000  Uiso   1.00
C23    C     0.26546   0.27658   0.30891   0.00000  Uiso   1.00
H24    H     0.39448   0.34136   0.15648   0.00000  Uiso   1.00
H25    H     0.35523   0.42502   0.09398   0.00000  Uiso   1.00
H26    H     0.50261   0.33816   0.18303   0.00000  Uiso   1.00
H27    H     0.32981   0.25328   0.17795   0.00000  Uiso   1.00
H28    H     0.30517   0.52979   0.04756   0.00000  Uiso   1.00
H29    H     0.61591   0.34661   0.23533   0.00000  Uiso   1.00
H30    H     0.25154   0.16763   0.22461   0.00000  Uiso   1.00
H31    H     0.34391   0.43390   0.33271   0.00000  Uiso   1.00
H32    H     0.30188   0.52264   0.27988   0.00000  Uiso   1.00
H33    H     0.44926   0.43577   0.36892   0.00000  Uiso   1.00
H34    H     0.27647   0.35089   0.36384   0.00000  Uiso   1.00
H35    H     0.26187   0.60902   0.19844   0.00000  Uiso   1.00
H36    H     0.57262   0.42584   0.38621   0.00000  Uiso   1.00
H37    H     0.20825   0.24686   0.37549   0.00000  Uiso   1.00
O38    O     0.25680   0.62612   0.08507   0.00000  Uiso   1.00
O39    O     0.66448   0.38579   0.33141   0.00000  Uiso   1.00
O40    O     0.18644   0.15097   0.31735   0.00000  Uiso   1.00
N41    N     0.30073   0.53626   0.09032   0.00000  Uiso   1.00
N42    N     0.59127   0.36500   0.26587   0.00000  Uiso   1.00
N43    N     0.25062   0.19766   0.25586   0.00000  Uiso   1.00
N44    N     0.27744   0.57889   0.17151   0.00000  Uiso   1.00
N45    N     0.56797   0.40764   0.34705   0.00000  Uiso   1.00
N46    N     0.22732   0.24029   0.33704   0.00000  Uiso   1.00
C47    C     0.88289   0.86256   0.69686   0.00000  Uiso   1.00
C48    C     0.85455   0.92084   0.68734   0.00000  Uiso   1.00
C49    C     0.84370   0.94611   0.63411   0.00000  Uiso   1.00
C50    C     0.81742   0.99963   0.63457   0.00000  Uiso   1.00
C51    C     0.77569   0.08600   0.61190   0.00000  Uiso   1.00
C52    C     0.93463   0.87366   0.73571   0.00000  Uiso   1.00
C53    C     0.99110   0.85923   0.72316   0.00000  Uiso   1.00
C54    C     0.03222   0.87303   0.76436   0.00000  Uiso   1.00
C55    C     0.11481   0.88610   0.81681   0.00000  Uiso   1.00
C56    C     0.84074   0.82754   0.73295   0.00000  Uiso   1.00
C57    C     0.81829   0.77434   0.71808   0.00000  Uiso   1.00
C58    C     0.78037   0.74930   0.75696   0.00000  Uiso   1.00
C59    C     0.71718   0.69077   0.80512   0.00000  Uiso   1.00
C60    C     0.85550   0.91269   0.79233   0.00000  Uiso   1.00
C61    C     0.83967   0.94807   0.73920   0.00000  Uiso   1.00
C62    C     0.81339   0.00157   0.73974   0.00000  Uiso   1.00
C63    C     0.80251   0.02691   0.68652   0.00000  Uiso   1.00
C64    C     0.91975   0.90089   0.78757   0.00000  Uiso   1.00
C65    C     0.96079   0.91470   0.82880   0.00000  Uiso   1.00
C66    C     0.01732   0.90031   0.81631   0.00000  Uiso   1.00
C67    C     0.82586   0.85477   0.78481   0.00000  Uiso   1.00
C68    C     0.78797   0.82981   0.82372   0.00000  Uiso   1.00
C69    C     0.76546   0.77658   0.80891   0.00000  Uiso   1.00
H70    H     0.89448   0.84136   0.65648   0.00000  Uiso   1.00
H71    H     0.85523   0.92502   0.59398   0.00000  Uiso   1.00
H72    H     0.00261   0.83816   0.68303   0.00000  Uiso   1.00
H73    H     0.82981   0.75328   0.67795   0.00000  Uiso   1.00
H74    H     0.80517   0.02979   0.54756   0.00000  Uiso   1.00
H75    H     0.11591   0.84661   0.73533   0.00000  Uiso   1.00
H76    H     0.75154   0.66763   0.72461   0.00000  Uiso   1.00
H77    H     0.84391   0.93390   0.83271   0.00000  Uiso   1.00
H78    H     0.80188   0.02264   0.77988   0.00000  Uiso   1.00
H79    H     0.94926   0.93577   0.86892   0.00000  Uiso   1.00
H80    H     0.77647   0.85089   0.86384   0.00000  Uiso   1.00
H81    H     0.76187   0.10902   0.69844   0.00000  Uiso   1.00
H82    H     0.07262   0.92584   0.88621   0.00000  Uiso   1.00
H83    H     0.70825   0.74686   0.87549   0.00000  Uiso   1.00
O84    O     0.75680   0.12612   0.58507   0.00000  Uiso   1.00
O85    O     0.16448   0.88579   0.83141   0.00000  Uiso   1.00
O86    O     0.68644   0.65097   0.81735   0.00000  Uiso   1.00
N87    N     0.80073   0.03626   0.59032   0.00000  Uiso   1.00
N88    N     0.09127   0.86500   0.76587   0.00000  Uiso   1.00
N89    N     0.75062   0.69766   0.75586   0.00000  Uiso   1.00
N90    N     0.77744   0.07889   0.67151   0.00000  Uiso   1.00
N91    N     0.06797   0.90764   0.84705   0.00000  Uiso   1.00
N92    N     0.72732   0.74029   0.83704   0.00000  Uiso   1.00
C93    C     0.11711   0.13744   0.69686   0.00000  Uiso   1.00
C94    C     0.14545   0.07916   0.68734   0.00000  Uiso   1.00
C95    C     0.15630   0.05389   0.63411   0.00000  Uiso   1.00
C96    C     0.18258   0.00037   0.63457   0.00000  Uiso   1.00
C97    C     0.22431   0.91400   0.61190   0.00000  Uiso   1.00
C98    C     0.06537   0.12634   0.73571   0.00000  Uiso   1.00
C99    C     0.00890   0.14077   0.72316   0.00000  Uiso   1.00
C100   C     0.96778   0.12697   0.76436   0.00000  Uiso   1.00
C101   C     0.88519   0.11390   0.81681   0.00000  Uiso   1.00
C102   C     0.15926   0.17246   0.73295   0.00000  Uiso   1.00
C103   C     0.18171   0.22566   0.71808   0.00000  Uiso   1.00
C104   C     0.21963   0.25070   0.75696   0.00000  Uiso   1.00
C105   C     0.28282   0.30923   0.80512   0.00000  Uiso   1.00
C106   C     0.14450   0.08731   0.79233   0.00000  Uiso   1.00
C107   C     0.16033   0.05193   0.73920   0.00000  Uiso   1.00
C108   C     0.18661   0.99843   0.73974   0.00000  Uiso   1.00
C109   C     0.19749   0.97309   0.68652   0.00000  Uiso   1.00
C110   C     0.08025   0.09911   0.78757   0.00000  Uiso   1.00
C111   C     0.03921   0.08530   0.82880   0.00000  Uiso   1.00
C112   C     0.98268   0.09969   0.81631   0.00000  Uiso   1.00
C113   C     0.17414   0.14523   0.78481   0.00000  Uiso   1.00
C114   C     0.21203   0.17019   0.82372   0.00000  Uiso   1.00
C115   C     0.23454   0.22342   0.80891   0.00000  Uiso   1.00
H116   H     0.10552   0.15864   0.65648   0.00000  Uiso   1.00
H117   H     0.14477   0.07498   0.59398   0.00000  Uiso   1.00
H118   H     0.99739   0.16184   0.68303   0.00000  Uiso   1.00
H119   H     0.17019   0.24672   0.67795   0.00000  Uiso   1.00
H120   H     0.19483   0.97021   0.54756   0.00000  Uiso   1.00
H121   H     0.88409   0.15339   0.73533   0.00000  Uiso   1.00
H122   H     0.24846   0.33237   0.72461   0.00000  Uiso   1.00
H123   H     0.15609   0.06610   0.83271   0.00000  Uiso   1.00
H124   H     0.19812   0.97736   0.77988   0.00000  Uiso   1.00
H125   H     0.05074   0.06423   0.86892   0.00000  Uiso   1.00
H126   H     0.22353   0.14911   0.86384   0.00000  Uiso   1.00
H127   H     0.23813   0.89098   0.69844   0.00000  Uiso   1.00
H128   H     0.92738   0.07416   0.88621   0.00000  Uiso   1.00
H129   H     0.29175   0.25314   0.87549   0.00000  Uiso   1.00
O130   O     0.24320   0.87388   0.58507   0.00000  Uiso   1.00
O131   O     0.83552   0.11421   0.83141   0.00000  Uiso   1.00
O132   O     0.31356   0.34903   0.81735   0.00000  Uiso   1.00
N133   N     0.19927   0.96374   0.59032   0.00000  Uiso   1.00
N134   N     0.90873   0.13500   0.76587   0.00000  Uiso   1.00
N135   N     0.24938   0.30234   0.75586   0.00000  Uiso   1.00
N136   N     0.22256   0.92111   0.67151   0.00000  Uiso   1.00
N137   N     0.93203   0.09236   0.84705   0.00000  Uiso   1.00
N138   N     0.27268   0.25971   0.83704   0.00000  Uiso   1.00
C139   C     0.61711   0.63744   0.19686   0.00000  Uiso   1.00
C140   C     0.64545   0.57916   0.18734   0.00000  Uiso   1.00
C141   C     0.65630   0.55389   0.13411   0.00000  Uiso   1.00
C142   C     0.68258   0.50037   0.13457   0.00000  Uiso   1.00
C143   C     0.72431   0.41400   0.11190   0.00000  Uiso   1.00
C144   C     0.56537   0.62634   0.23571   0.00000  Uiso   1.00
C145   C     0.50890   0.64077   0.22316   0.00000  Uiso   1.00
C146   C     0.46778   0.62697   0.26436   0.00000  Uiso   1.00
C147   C     0.38519   0.61390   0.31681   0.00000  Uiso   1.00
C148   C     0.65926   0.67246   0.23295   0.00000  Uiso   1.00
C149   C     0.68171   0.72566   0.21808   0.00000  Uiso   1.00
C150   C     0.71963   0.75070   0.25696   0.00000  Uiso   1.00
C151   C     0.78282   0.80923   0.30512   0.00000  Uiso   1.00
C152   C     0.64450   0.58731   0.29233   0.00000  Uiso   1.00
C153   C     0.66033   0.55193   0.23920   0.00000  Uiso   1.00
C154   C     0.68661   0.49843   0.23974   0.00000  Uiso   1.00
C155   C     0.69749   0.47309   0.18652   0.00000  Uiso   1.00
C156   C     0.58025   0.59911   0.28757   0.00000  Uiso   1.00
C157   C     0.53921   0.58530   0.32880   0.00000  Uiso   1.00
C158   C     0.48268   0.59969   0.31631   0.00000  Uiso   1.00
C159   C     0.67414   0.64523   0.28481   0.00000  Uiso   1.00
C160   C     0.71203   0.67019   0.32372   0.00000  Uiso   1.00
C161   C     0.73454   0.72342   0.30891   0.00000  Uiso   1.00
H162   H     0.60552   0.65864   0.15648   0.00000  Uiso   1.00
H163   H     0.64477   0.57498   0.09398   0.00000  Uiso   1.00
H164   H     0.49739   0.66184   0.18303   0.00000  Uiso   1.00
H165   H     0.67019   0.74672   0.17795   0.00000  Uiso   1.00
H166   H     0.69483   0.47021   0.04756   0.00000  Uiso   1.00
H167   H     0.38409   0.65339   0.23533   0.00000  Uiso   1.00
H168   H     0.74846   0.83237   0.22461   0.00000  Uiso   1.00
H169   H     0.65609   0.56610   0.33271   0.00000  Uiso   1.00
H170   H     0.69812   0.47736   0.27988   0.00000  Uiso   1.00
H171   H     0.55074   0.56423   0.36892   0.00000  Uiso   1.00
H172   H     0.72353   0.64911   0.36384   0.00000  Uiso   1.00
H173   H     0.73813   0.39098   0.19844   0.00000  Uiso   1.00
H174   H     0.42738   0.57416   0.38621   0.00000  Uiso   1.00
H175   H     0.79175   0.75314   0.37549   0.00000  Uiso   1.00
O176   O     0.74320   0.37388   0.08507   0.00000  Uiso   1.00
O177   O     0.33552   0.61421   0.33141   0.00000  Uiso   1.00
O178   O     0.81356   0.84903   0.31735   0.00000  Uiso   1.00
N179   N     0.69927   0.46374   0.09032   0.00000  Uiso   1.00
N180   N     0.40873   0.63500   0.26587   0.00000  Uiso   1.00
N181   N     0.74938   0.80234   0.25586   0.00000  Uiso   1.00
N182   N     0.72256   0.42111   0.17151   0.00000  Uiso   1.00
N183   N     0.43203   0.59236   0.34705   0.00000  Uiso   1.00
N184   N     0.77268   0.75971   0.33704   0.00000  Uiso   1.00
C185   C     0.63744   0.88289   0.44686   0.00000  Uiso   1.00
C186   C     0.57916   0.85455   0.43734   0.00000  Uiso   1.00
C187   C     0.55389   0.84370   0.38411   0.00000  Uiso   1.00
C188   C     0.50037   0.81742   0.38457   0.00000  Uiso   1.00
C189   C     0.41400   0.77569   0.36190   0.00000  Uiso   1.00
C190   C     0.62634   0.93463   0.48571   0.00000  Uiso   1.00
C191   C     0.64077   0.99110   0.47316   0.00000  Uiso   1.00
C192   C     0.62697   0.03222   0.51436   0.00000  Uiso   1.00
C193   C     0.61390   0.11481   0.56681   0.00000  Uiso   1.00
C194   C     0.67246   0.84074   0.48295   0.00000  Uiso   1.00
C195   C     0.72566   0.81829   0.46808   0.00000  Uiso   1.00
C196   C     0.75070   0.78037   0.50696   0.00000  Uiso   1.00
C197   C     0.80923   0.71718   0.55512   0.00000  Uiso   1.00
C198   C     0.58731   0.85550   0.54233   0.00000  Uiso   1.00
C199   C     0.55193   0.83967   0.48920   0.00000  Uiso   1.00
C200   C     0.49843   0.81339   0.48974   0.00000  Uiso   1.00
C201   C     0.47309   0.80251   0.43652   0.00000  Uiso   1.00
C202   C     0.59911   0.91975   0.53757   0.00000  Uiso   1.00
C203   C     0.58530   0.96079   0.57880   0.00000  Uiso   1.00
C204   C     0.59969   0.01732   0.56631   0.00000  Uiso   1.00
C205   C     0.64523   0.82586   0.53481   0.00000  Uiso   1.00
C206   C     0.67019   0.78797   0.57372   0.00000  Uiso   1.00
C207   C     0.72342   0.76546   0.55891   0.00000  Uiso   1.00
H208   H     0.65864   0.89448   0.40648   0.00000  Uiso   1.00
H209   H     0.57498   0.85523   0.34398   0.00000  Uiso   1.00
H210   H     0.66184   0.00261   0.43303   0.00000  Uiso   1.00
H211   H     0.74672   0.82981   0.42795   0.00000  Uiso   1.00
H212   H     0.47021   0.80517   0.29756   0.00000  Uiso   1.00
H213   H     0.65339   0.11591   0.48533   0.00000  Uiso   1.00
H214   H     0.83237   0.75154   0.47461   0.00000  Uiso   1.00
H215   H     0.56610   0.84391   0.58271   0.00000  Uiso   1.00
H216   H     0.47736   0.80188   0.52988   0.00000  Uiso   1.00
H217   H     0.56423   0.94926   0.61892   0.00000  Uiso   1.00
H218   H     0.64911   0.77647   0.61384   0.00000  Uiso   1.00
H219   H     0.39098   0.76187   0.44844   0.00000  Uiso   1.00
H220   H     0.57416   0.07262   0.63621   0.00000  Uiso   1.00
H221   H     0.75314   0.70825   0.62549   0.00000  Uiso   1.00
O222   O     0.37388   0.75680   0.33507   0.00000  Uiso   1.00
O223   O     0.61421   0.16448   0.58141   0.00000  Uiso   1.00
O224   O     0.84903   0.68644   0.56735   0.00000  Uiso   1.00
N225   N     0.46374   0.80073   0.34032   0.00000  Uiso   1.00
N226   N     0.63500   0.09127   0.51587   0.00000  Uiso   1.00
N227   N     0.80234   0.75062   0.50586   0.00000  Uiso   1.00
N228   N     0.42111   0.77744   0.42151   0.00000  Uiso   1.00
N229   N     0.59236   0.06797   0.59705   0.00000  Uiso   1.00
N230   N     0.75971   0.72732   0.58704   0.00000  Uiso   1.00
C231   C     0.13744   0.38289   0.94686   0.00000  Uiso   1.00
C232   C     0.07916   0.35455   0.93734   0.00000  Uiso   1.00
C233   C     0.05389   0.34370   0.88411   0.00000  Uiso   1.00
C234   C     0.00037   0.31742   0.88457   0.00000  Uiso   1.00
C235   C     0.91400   0.27569   0.86190   0.00000  Uiso   1.00
C236   C     0.12634   0.43463   0.98571   0.00000  Uiso   1.00
C237   C     0.14077   0.49110   0.97316   0.00000  Uiso   1.00
C238   C     0.12697   0.53222   0.01436   0.00000  Uiso   1.00
C239   C     0.11390   0.61481   0.06681   0.00000  Uiso   1.00
C240   C     0.17246   0.34074   0.98295   0.00000  Uiso   1.00
C241   C     0.22566   0.31829   0.96808   0.00000  Uiso   1.00
C242   C     0.25070   0.28037   0.00696   0.00000  Uiso   1.00
C243   C     0.30923   0.21718   0.05512   0.00000  Uiso   1.00
C244   C     0.08731   0.35550   0.04233   0.00000  Uiso   1.00
C245   C     0.05193   0.33967   0.98920   0.00000  Uiso   1.00
C246   C     0.99843   0.31339   0.98974   0.00000  Uiso   1.00
C247   C     0.97309   0.30251   0.93652   0.00000  Uiso   1.00
C248   C     0.09911   0.41975   0.03757   0.00000  Uiso   1.00
C249   C     0.08530   0.46079   0.07880   0.00000  Uiso   1.00
C250   C     0.09969   0.51732   0.06631   0.00000  Uiso   1.00
C251   C     0.14523   0.32586   0.03481   0.00000  Uiso   1.00
C252   C     0.17019   0.28797   0.07372   0.00000  Uiso   1.00
C253   C     0.22342   0.26546   0.05891   0.00000  Uiso   1.00
H254   H     0.15864   0.39448   0.90648   0.00000  Uiso   1.00
H255   H     0.07498   0.35523   0.84398   0.00000  Uiso   1.00
H256   H     0.16184   0.50261   0.93303   0.00000  Uiso   1.00
H257   H     0.24672   0.32981   0.92795   0.00000  Uiso   1.00
H258   H     0.97021   0.30517   0.79756   0.00000  Uiso   1.00
H259   H     0.15339   0.61591   0.98533   0.00000  Uiso   1.00
H260   H     0.33237   0.25154   0.97461   0.00000  Uiso   1.00
H261   H     0.06610   0.34391   0.08271   0.00000  Uiso   1.00
H262   H     0.97736   0.30188   0.02988   0.00000  Uiso   1.00
H263   H     0.06423   0.44926   0.11892   0.00000  Uiso   1.00
H264   H     0.14911   0.27647   0.11384   0.00000  Uiso   1.00
H265   H     0.89098   0.26187   0.94844   0.00000  Uiso   1.00
H266   H     0.07416   0.57262   0.13621   0.00000  Uiso   1.00
H267   H     0.25314   0.20825   0.12549   0.00000  Uiso   1.00
O268   O     0.87388   0.25680   0.83507   0.00000  Uiso   1.00
O269   O     0.11421   0.66448   0.08141   0.00000  Uiso   1.00
O270   O     0.34903   0.18644   0.06735   0.00000  Uiso   1.00
N271   N     0.96374   0.30073   0.84032   0.00000  Uiso   1.00
N272   N     0.13500   0.59127   0.01587   0.00000  Uiso   1.00
N273   N     0.30234   0.25062   0.00586   0.00000  Uiso   1.00
N274   N     0.92111   0.27744   0.92151   0.00000  Uiso   1.00
N275   N     0.09236   0.56797   0.09705   0.00000  Uiso   1.00
N276   N     0.25971   0.22732   0.08704   0.00000  Uiso   1.00
C277   C     0.86256   0.61711   0.94686   0.00000  Uiso   1.00
C278   C     0.92084   0.64545   0.93734   0.00000  Uiso   1.00
C279   C     0.94611   0.65630   0.88411   0.00000  Uiso   1.00
C280   C     0.99963   0.68258   0.88457   0.00000  Uiso   1.00
C281   C     0.08600   0.72431   0.86190   0.00000  Uiso   1.00
C282   C     0.87366   0.56537   0.98571   0.00000  Uiso   1.00
C283   C     0.85923   0.50890   0.97316   0.00000  Uiso   1.00
C284   C     0.87303   0.46778   0.01436   0.00000  Uiso   1.00
C285   C     0.88610   0.38519   0.06681   0.00000  Uiso   1.00
C286   C     0.82754   0.65926   0.98295   0.00000  Uiso   1.00
C287   C     0.77434   0.68171   0.96808   0.00000  Uiso   1.00
C288   C     0.74930   0.71963   0.00696   0.00000  Uiso   1.00
C289   C     0.69077   0.78282   0.05512   0.00000  Uiso   1.00
C290   C     0.91269   0.64450   0.04233   0.00000  Uiso   1.00
C291   C     0.94807   0.66033   0.98920   0.00000  Uiso   1.00
C292   C     0.00157   0.68661   0.98974   0.00000  Uiso   1.00
C293   C     0.02691   0.69749   0.93652   0.00000  Uiso   1.00
C294   C     0.90089   0.58025   0.03757   0.00000  Uiso   1.00
C295   C     0.91470   0.53921   0.07880   0.00000  Uiso   1.00
C296   C     0.90031   0.48268   0.06631   0.00000  Uiso   1.00
C297   C     0.85477   0.67414   0.03481   0.00000  Uiso   1.00
C298   C     0.82981   0.71203   0.07372   0.00000  Uiso   1.00
C299   C     0.77658   0.73454   0.05891   0.00000  Uiso   1.00
H300   H     0.84136   0.60552   0.90648   0.00000  Uiso   1.00
H301   H     0.92502   0.64477   0.84398   0.00000  Uiso   1.00
H302   H     0.83816   0.49739   0.93303   0.00000  Uiso   1.00
H303   H     0.75328   0.67019   0.92795   0.00000  Uiso   1.00
H304   H     0.02979   0.69483   0.79756   0.00000  Uiso   1.00
H305   H     0.84661   0.38409   0.98533   0.00000  Uiso   1.00
H306   H     0.66763   0.74846   0.97461   0.00000  Uiso   1.00
H307   H     0.93390   0.65609   0.08271   0.00000  Uiso   1.00
H308   H     0.02264   0.69812   0.02988   0.00000  Uiso   1.00
H309   H     0.93577   0.55074   0.11892   0.00000  Uiso   1.00
H310   H     0.85089   0.72353   0.11384   0.00000  Uiso   1.00
H311   H     0.10902   0.73813   0.94844   0.00000  Uiso   1.00
H312   H     0.92584   0.42738   0.13621   0.00000  Uiso   1.00
H313   H     0.74686   0.79175   0.12549   0.00000  Uiso   1.00
O314   O     0.12612   0.74320   0.83507   0.00000  Uiso   1.00
O315   O     0.88579   0.33552   0.08141   0.00000  Uiso   1.00
O316   O     0.65097   0.81356   0.06735   0.00000  Uiso   1.00
N317   N     0.03626   0.69927   0.84032   0.00000  Uiso   1.00
N318   N     0.86500   0.40873   0.01587   0.00000  Uiso   1.00
N319   N     0.69766   0.74938   0.00586   0.00000  Uiso   1.00
N320   N     0.07889   0.72256   0.92151   0.00000  Uiso   1.00
N321   N     0.90764   0.43203   0.09705   0.00000  Uiso   1.00
N322   N     0.74029   0.77268   0.08704   0.00000  Uiso   1.00
C323   C     0.36256   0.11711   0.44686   0.00000  Uiso   1.00
C324   C     0.42084   0.14545   0.43734   0.00000  Uiso   1.00
C325   C     0.44611   0.15630   0.38411   0.00000  Uiso   1.00
C326   C     0.49963   0.18258   0.38457   0.00000  Uiso   1.00
C327   C     0.58600   0.22431   0.36190   0.00000  Uiso   1.00
C328   C     0.37366   0.06537   0.48571   0.00000  Uiso   1.00
C329   C     0.35923   0.00890   0.47316   0.00000  Uiso   1.00
C330   C     0.37303   0.96778   0.51436   0.00000  Uiso   1.00
C331   C     0.38610   0.88519   0.56681   0.00000  Uiso   1.00
C332   C     0.32754   0.15926   0.48295   0.00000  Uiso   1.00
C333   C     0.27434   0.18171   0.46808   0.00000  Uiso   1.00
C334   C     0.24930   0.21963   0.50696   0.00000  Uiso   1.00
C335   C     0.19077   0.28282   0.55512   0.00000  Uiso   1.00
C336   C     0.41269   0.14450   0.54233   0.00000  Uiso   1.00
C337   C     0.44807   0.16033   0.48920   0.00000  Uiso   1.00
C338   C     0.50157   0.18661   0.48974   0.00000  Uiso   1.00
C339   C     0.52691   0.19749   0.43652   0.00000  Uiso   1.00
C340   C     0.40089   0.08025   0.53757   0.00000  Uiso   1.00
C341   C     0.41470   0.03921   0.57880   0.00000  Uiso   1.00
C342   C     0.40031   0.98268   0.56631   0.00000  Uiso   1.00
C343   C     0.35477   0.17414   0.53481   0.00000  Uiso   1.00
C344   C     0.32981   0.21203   0.57372   0.00000  Uiso   1.00
C345   C     0.27658   0.23454   0.55891   0.00000  Uiso   1.00
H346   H     0.34136   0.10552   0.40648   0.00000  Uiso   1.00
H347   H     0.42502   0.14477   0.34398   0.00000  Uiso   1.00
H348   H     0.33816   0.99739   0.43303   0.00000  Uiso   1.00
H349   H     0.25328   0.17019   0.42795   0.00000  Uiso   1.00
H350   H     0.52979   0.19483   0.29756   0.00000  Uiso   1.00
H351   H     0.34661   0.88409   0.48533   0.00000  Uiso   1.00
H352   H     0.16763   0.24846   0.47461   0.00000  Uiso   1.00
H353   H     0.43390   0.15609   0.58271   0.00000  Uiso   1.00
H354   H     0.52264   0.19812   0.52988   0.00000  Uiso   1.00
H355   H     0.43577   0.05074   0.61892   0.00000  Uiso   1.00
H356   H     0.35089   0.22353   0.61384   0.00000  Uiso   1.00
H357   H     0.60902   0.23813   0.44844   0.00000  Uiso   1.00
H358   H     0.42584   0.92738   0.63621   0.00000  Uiso   1.00
H359   H     0.24686   0.29175   0.62549   0.00000  Uiso   1.00
O360   O     0.62612   0.24320   0.33507   0.00000  Uiso   1.00
O361   O     0.38579   0.83552   0.58141   0.00000  Uiso   1.00
O362   O     0.15097   0.31356   0.56735   0.00000  Uiso   1.00
N363   N     0.53626   0.19927   0.34032   0.00000  Uiso   1.00
N364   N     0.36500   0.90873   0.51587   0.00000  Uiso   1.00
N365   N     0.19766   0.24938   0.50586   0.00000  Uiso   1.00
N366   N     0.57889   0.22256   0.42151   0.00000  Uiso   1.00
N367   N     0.40764   0.93203   0.59705   0.00000  Uiso   1.00
N368   N     0.24029   0.27268   0.58704   0.00000  Uiso   1.00
C369   C     0.61711   0.13744   0.05314   0.00000  Uiso   1.00
C370   C     0.64545   0.07916   0.06266   0.00000  Uiso   1.00
C371   C     0.65630   0.05389   0.11589   0.00000  Uiso   1.00
C372   C     0.68258   0.00037   0.11543   0.00000  Uiso   1.00
C373   C     0.72431   0.91400   0.13810   0.00000  Uiso   1.00
C374   C     0.56537   0.12634   0.01429   0.00000  Uiso   1.00
C375   C     0.50890   0.14077   0.02684   0.00000  Uiso   1.00
C376   C     0.46778   0.12697   0.98564   0.00000  Uiso   1.00
C377   C     0.38519   0.11390   0.93319   0.00000  Uiso   1.00
C378   C     0.65926   0.17246   0.01705   0.00000  Uiso   1.00
C379   C     0.68171   0.22566   0.03192   0.00000  Uiso   1.00
C380   C     0.71963   0.25070   0.99304   0.00000  Uiso   1.00
C381   C     0.78282   0.30923   0.94488   0.00000  Uiso   1.00
C382   C     0.64450   0.08731   0.95767   0.00000  Uiso   1.00
C383   C     0.66033   0.05193   0.01080   0.00000  Uiso   1.00
C384   C     0.68661   0.99843   0.01026   0.00000  Uiso   1.00
C385   C     0.69749   0.97309   0.06348   0.00000  Uiso   1.00
C386   C     0.58025   0.09911   0.96243   0.00000  Uiso   1.00
C387   C     0.53921   0.08530   0.92120   0.00000  Uiso   1.00
C388   C     0.48268   0.09969   0.93369   0.00000  Uiso   1.00
C389   C     0.67414   0.14523   0.96519   0.00000  Uiso   1.00
C390   C     0.71203   0.17019   0.92628   0.00000  Uiso   1.00
C391   C     0.73454   0.22342   0.94109   0.00000  Uiso   1.00
H392   H     0.60552   0.15864   0.09352   0.00000  Uiso   1.00
H393   H     0.64477   0.07498   0.15602   0.00000  Uiso   1.00
H394   H     0.49739   0.16184   0.06697   0.00000  Uiso   1.00
H395   H     0.67019   0.24672   0.07205   0.00000  Uiso   1.00
H396   H     0.69483   0.97021   0.20244   0.00000  Uiso   1.00
H397   H     0.38409   0.15339   0.01467   0.00000  Uiso   1.00
H398   H     0.74846   0.33237   0.02539   0.00000  Uiso   1.00
H399   H     0.65609   0.06610   0.91729   0.00000  Uiso   1.00
H400   H     0.69812   0.97736   0.97012   0.00000  Uiso   1.00
H401   H     0.55074   0.06423   0.88108   0.00000  Uiso   1.00
H402   H     0.72353   0.14911   0.88616   0.00000  Uiso   1.00
H403   H     0.73813   0.89098   0.05156   0.00000  Uiso   1.00
H404   H     0.42738   0.07416   0.86379   0.00000  Uiso   1.00
H405   H     0.79175   0.25314   0.87451   0.00000  Uiso   1.00
O406   O     0.74320   0.87388   0.16493   0.00000  Uiso   1.00
O407   O     0.33552   0.11421   0.91859   0.00000  Uiso   1.00
O408   O     0.81356   0.34903   0.93265   0.00000  Uiso   1.00
N409   N     0.69927   0.96374   0.15968   0.00000  Uiso   1.00
N410   N     0.40873   0.13500   0.98413   0.00000  Uiso   1.00
N411   N     0.74938   0.30234   0.99414   0.00000  Uiso   1.00
N412   N     0.72256   0.92111   0.07849   0.00000  Uiso   1.00
N413   N     0.43203   0.09236   0.90295   0.00000  Uiso   1.00
N414   N     0.77268   0.25971   0.91296   0.00000  Uiso   1.00
C415   C     0.11711   0.63744   0.55314   0.00000  Uiso   1.00
C416   C     0.14545   0.57916   0.56266   0.00000  Uiso   1.00
C417   C     0.15630   0.55389   0.61589   0.00000  Uiso   1.00
C418   C     0.18258   0.50037   0.61543   0.00000  Uiso   1.00
C419   C     0.22431   0.41400   0.63810   0.00000  Uiso   1.00
C420   C     0.06537   0.62634   0.51429   0.00000  Uiso   1.00
C421   C     0.00890   0.64077   0.52684   0.00000  Uiso   1.00
C422   C     0.96778   0.62697   0.48564   0.00000  Uiso   1.00
C423   C     0.88519   0.61390   0.43319   0.00000  Uiso   1.00
C424   C     0.15926   0.67246   0.51705   0.00000  Uiso   1.00
C425   C     0.18171   0.72566   0.53192   0.00000  Uiso   1.00
C426   C     0.21963   0.75070   0.49304   0.00000  Uiso   1.00
C427   C     0.28282   0.80923   0.44488   0.00000  Uiso   1.00
C428   C     0.14450   0.58731   0.45767   0.00000  Uiso   1.00
C429   C     0.16033   0.55193   0.51080   0.00000  Uiso   1.00
C430   C     0.18661   0.49843   0.51026   0.00000  Uiso   1.00
C431   C     0.19749   0.47309   0.56348   0.00000  Uiso   1.00
C432   C     0.08025   0.59911   0.46243   0.00000  Uiso   1.00
C433   C     0.03921   0.58530   0.42120   0.00000  Uiso   1.00
C434   C     0.98268   0.59969   0.43369   0.00000  Uiso   1.00
C435   C     0.17414   0.64523   0.46519   0.00000  Uiso   1.00
C436   C     0.21203   0.67019   0.42628   0.00000  Uiso   1.00
C437   C     0.23454   0.72342   0.44109   0.00000  Uiso   1.00
H438   H     0.10552   0.65864   0.59352   0.00000  Uiso   1.00
H439   H     0.14477   0.57498   0.65602   0.00000  Uiso   1.00
H440   H     0.99739   0.66184   0.56697   0.00000  Uiso   1.00
H441   H     0.17019   0.74672   0.57205   0.00000  Uiso   1.00
H442   H     0.19483   0.47021   0.70244   0.00000  Uiso   1.00
H443   H     0.88409   0.65339   0.51467   0.00000  Uiso   1.00
H444   H     0.24846   0.83237   0.52539   0.00000  Uiso   1.00
H445   H     0.15609   0.56610   0.41729   0.00000  Uiso   1.00
H446   H     0.19812   0.47736   0.47012   0.00000  Uiso   1.00
H447   H     0.05074   0.56423   0.38108   0.00000  Uiso   1.00
H448   H     0.22353   0.64911   0.38616   0.00000  Uiso   1.00
H449   H     0.23813   0.39098   0.55156   0.00000  Uiso   1.00
H450   H     0.92738   0.57416   0.36379   0.00000  Uiso   1.00
H451   H     0.29175   0.75314   0.37451   0.00000  Uiso   1.00
O452   O     0.24320   0.37388   0.66493   0.00000  Uiso   1.00
O453   O     0.83552   0.61421   0.41859   0.00000  Uiso   1.00
O454   O     0.31356   0.84903   0.43265   0.00000  Uiso   1.00
N455   N     0.19927   0.46374   0.65968   0.00000  Uiso   1.00
N456   N     0.90873   0.63500   0.48413   0.00000  Uiso   1.00
N457   N     0.24938   0.80234   0.49414   0.00000  Uiso   1.00
N458   N     0.22256   0.42111   0.57849   0.00000  Uiso   1.00
N459   N     0.93203   0.59236   0.40295   0.00000  Uiso   1.00
N460   N     0.27268   0.75971   0.41296   0.00000  Uiso   1.00
C461   C     0.88289   0.36256   0.55314   0.00000  Uiso   1.00
C462   C     0.85455   0.42084   0.56266   0.00000  Uiso   1.00
C463   C     0.84370   0.44611   0.61589   0.00000  Uiso   1.00
C464   C     0.81742   0.49963   0.61543   0.00000  Uiso   1.00
C465   C     0.77569   0.58600   0.63810   0.00000  Uiso   1.00
C466   C     0.93463   0.37366   0.51429   0.00000  Uiso   1.00
C467   C     0.99110   0.35923   0.52684   0.00000  Uiso   1.00
C468   C     0.03222   0.37303   0.48564   0.00000  Uiso   1.00
C469   C     0.11481   0.38610   0.43319   0.00000  Uiso   1.00
C470   C     0.84074   0.32754   0.51705   0.00000  Uiso   1.00
C471   C     0.81829   0.27434   0.53192   0.00000  Uiso   1.00
C472   C     0.78037   0.24930   0.49304   0.00000  Uiso   1.00
C473   C     0.71718   0.19077   0.44488   0.00000  Uiso   1.00
C474   C     0.85550   0.41269   0.45767   0.00000  Uiso   1.00
C475   C     0.83967   0.44807   0.51080   0.00000  Uiso   1.00
C476   C     0.81339   0.50157   0.51026   0.00000  Uiso   1.00
C477   C     0.80251   0.52691   0.56348   0.00000  Uiso   1.00
C478   C     0.91975   0.40089   0.46243   0.00000  Uiso   1.00
C479   C     0.96079   0.41470   0.42120   0.00000  Uiso   1.00
C480   C     0.01732   0.40031   0.43369   0.00000  Uiso   1.00
C481   C     0.82586   0.35477   0.46519   0.00000  Uiso   1.00
C482   C     0.78797   0.32981   0.42628   0.00000  Uiso   1.00
C483   C     0.76546   0.27658   0.44109   0.00000  Uiso   1.00
H484   H     0.89448   0.34136   0.59352   0.00000  Uiso   1.00
H485   H     0.85523   0.42502   0.65602   0.00000  Uiso   1.00
H486   H     0.00261   0.33816   0.56697   0.00000  Uiso   1.00
H487   H     0.82981   0.25328   0.57205   0.00000  Uiso   1.00
H488   H     0.80517   0.52979   0.70244   0.00000  Uiso   1.00
H489   H     0.11591   0.34661   0.51467   0.00000  Uiso   1.00
H490   H     0.75154   0.16763   0.52539   0.00000  Uiso   1.00
H491   H     0.84391   0.43390   0.41729   0.00000  Uiso   1.00
H492   H     0.80188   0.52264   0.47012   0.00000  Uiso   1.00
H493   H     0.94926   0.43577   0.38108   0.00000  Uiso   1.00
H494   H     0.77647   0.35089   0.38616   0.00000  Uiso   1.00
H495   H     0.76187   0.60902   0.55156   0.00000  Uiso   1.00
H496   H     0.07262   0.42584   0.36379   0.00000  Uiso   1.00
H497   H     0.70825   0.24686   0.37451   0.00000  Uiso   1.00
O498   O     0.75680   0.62612   0.66493   0.00000  Uiso   1.00
O499   O     0.16448   0.38579   0.41859   0.00000  Uiso   1.00
O500   O     0.68644   0.15097   0.43265   0.00000  Uiso   1.00
N501   N     0.80073   0.53626   0.65968   0.00000  Uiso   1.00
N502   N     0.09127   0.36500   0.48413   0.00000  Uiso   1.00
N503   N     0.75062   0.19766   0.49414   0.00000  Uiso   1.00
N504   N     0.77744   0.57889   0.57849   0.00000  Uiso   1.00
N505   N     0.06797   0.40764   0.40295   0.00000  Uiso   1.00
N506   N     0.72732   0.24029   0.41296   0.00000  Uiso   1.00
C507   C     0.38289   0.86256   0.05314   0.00000  Uiso   1.00
C508   C     0.35455   0.92084   0.06266   0.00000  Uiso   1.00
C509   C     0.34370   0.94611   0.11589   0.00000  Uiso   1.00
C510   C     0.31742   0.99963   0.11543   0.00000  Uiso   1.00
C511   C     0.27569   0.08600   0.13810   0.00000  Uiso   1.00
C512   C     0.43463   0.87366   0.01429   0.00000  Uiso   1.00
C513   C     0.49110   0.85923   0.02684   0.00000  Uiso   1.00
C514   C     0.53222   0.87303   0.98564   0.00000  Uiso   1.00
C515   C     0.61481   0.88610   0.93319   0.00000  Uiso   1.00
C516   C     0.34074   0.82754   0.01705   0.00000  Uiso   1.00
C517   C     0.31829   0.77434   0.03192   0.00000  Uiso   1.00
C518   C     0.28037   0.74930   0.99304   0.00000  Uiso   1.00
C519   C     0.21718   0.69077   0.94488   0.00000  Uiso   1.00
C520   C     0.35550   0.91269   0.95767   0.00000  Uiso   1.00
C521   C     0.33967   0.94807   0.01080   0.00000  Uiso   1.00
C522   C     0.31339   0.00157   0.01026   0.00000  Uiso   1.00
C523   C     0.30251   0.02691   0.06348   0.00000  Uiso   1.00
C524   C     0.41975   0.90089   0.96243   0.00000  Uiso   1.00
C525   C     0.46079   0.91470   0.92120   0.00000  Uiso   1.00
C526   C     0.51732   0.90031   0.93369   0.00000  Uiso   1.00
C527   C     0.32586   0.85477   0.96519   0.00000  Uiso   1.00
C528   C     0.28797   0.82981   0.92628   0.00000  Uiso   1.00
C529   C     0.26546   0.77658   0.94109   0.00000  Uiso   1.00
H530   H     0.39448   0.84136   0.09352   0.00000  Uiso   1.00
H531   H     0.35523   0.92502   0.15602   0.00000  Uiso   1.00
H532   H     0.50261   0.83816   0.06697   0.00000  Uiso   1.00
H533   H     0.32981   0.75328   0.07205   0.00000  Uiso   1.00
H534   H     0.30517   0.02979   0.20244   0.00000  Uiso   1.00
H535   H     0.61591   0.84661   0.01467   0.00000  Uiso   1.00
H536   H     0.25154   0.66763   0.02539   0.00000  Uiso   1.00
H537   H     0.34391   0.93390   0.91729   0.00000  Uiso   1.00
H538   H     0.30188   0.02264   0.97012   0.00000  Uiso   1.00
H539   H     0.44926   0.93577   0.88108   0.00000  Uiso   1.00
H540   H     0.27647   0.85089   0.88616   0.00000  Uiso   1.00
H541   H     0.26187   0.10902   0.05156   0.00000  Uiso   1.00
H542   H     0.57262   0.92584   0.86379   0.00000  Uiso   1.00
H543   H     0.20825   0.74686   0.87451   0.00000  Uiso   1.00
O544   O     0.25680   0.12612   0.16493   0.00000  Uiso   1.00
O545   O     0.66448   0.88579   0.91859   0.00000  Uiso   1.00
O546   O     0.18644   0.65097   0.93265   0.00000  Uiso   1.00
N547   N     0.30073   0.03626   0.15968   0.00000  Uiso   1.00
N548   N     0.59127   0.86500   0.98413   0.00000  Uiso   1.00
N549   N     0.25062   0.69766   0.99414   0.00000  Uiso   1.00
N550   N     0.27744   0.07889   0.07849   0.00000  Uiso   1.00
N551   N     0.56797   0.90764   0.90295   0.00000  Uiso   1.00
N552   N     0.22732   0.74029   0.91296   0.00000  Uiso   1.00
C553   C     0.36256   0.61711   0.80314   0.00000  Uiso   1.00
C554   C     0.42084   0.64545   0.81266   0.00000  Uiso   1.00
C555   C     0.44611   0.65630   0.86589   0.00000  Uiso   1.00
C556   C     0.49963   0.68258   0.86543   0.00000  Uiso   1.00
C557   C     0.58600   0.72431   0.88810   0.00000  Uiso   1.00
C558   C     0.37366   0.56537   0.76429   0.00000  Uiso   1.00
C559   C     0.35923   0.50890   0.77684   0.00000  Uiso   1.00
C560   C     0.37303   0.46778   0.73564   0.00000  Uiso   1.00
C561   C     0.38610   0.38519   0.68319   0.00000  Uiso   1.00
C562   C     0.32754   0.65926   0.76705   0.00000  Uiso   1.00
C563   C     0.27434   0.68171   0.78192   0.00000  Uiso   1.00
C564   C     0.24930   0.71963   0.74304   0.00000  Uiso   1.00
C565   C     0.19077   0.78282   0.69488   0.00000  Uiso   1.00
C566   C     0.41269   0.64450   0.70767   0.00000  Uiso   1.00
C567   C     0.44807   0.66033   0.76080   0.00000  Uiso   1.00
C568   C     0.50157   0.68661   0.76026   0.00000  Uiso   1.00
C569   C     0.52691   0.69749   0.81348   0.00000  Uiso   1.00
C570   C     0.40089   0.58025   0.71243   0.00000  Uiso   1.00
C571   C     0.41470   0.53921   0.67120   0.00000  Uiso   1.00
C572   C     0.40031   0.48268   0.68369   0.00000  Uiso   1.00
C573   C     0.35477   0.67414   0.71519   0.00000  Uiso   1.00
C574   C     0.32981   0.71203   0.67628   0.00000  Uiso   1.00
C575   C     0.27658   0.73454   0.69109   0.00000  Uiso   1.00
H576   H     0.34136   0.60552   0.84352   0.00000  Uiso   1.00
H577   H     0.42502   0.64477   0.90602   0.00000  Uiso   1.00
H578   H     0.33816   0.49739   0.81697   0.00000  Uiso   1.00
H579   H     0.25328   0.67019   0.82205   0.00000  Uiso   1.00
H580   H     0.52979   0.69483   0.95244   0.00000  Uiso   1.00
H581   H     0.34661   0.38409   0.76467   0.00000  Uiso   1.00
H582   H     0.16763   0.74846   0.77539   0.00000  Uiso   1.00
H583   H     0.43390   0.65609   0.66729   0.00000  Uiso   1.00
H584   H     0.52264   0.69812   0.72012   0.00000  Uiso   1.00
H585   H     0.43577   0.55074   0.63108   0.00000  Uiso   1.00
H586   H     0.35089   0.72353   0.63616   0.00000  Uiso   1.00
H587   H     0.60902   0.73813   0.80156   0.00000  Uiso   1.00
H588   H     0.42584   0.42738   0.61379   0.00000  Uiso   1.00
H589   H     0.24686   0.79175   0.62451   0.00000  Uiso   1.00
O590   O     0.62612   0.74320   0.91493   0.00000  Uiso   1.00
O591   O     0.38579   0.33552   0.66859   0.00000  Uiso   1.00
O592   O     0.15097   0.81356   0.68265   0.00000  Uiso   1.00
N593   N     0.53626   0.69927   0.90968   0.00000  Uiso   1.00
N594   N     0.36500   0.40873   0.73413   0.00000  Uiso   1.00
N595   N     0.19766   0.74938   0.74414   0.00000  Uiso   1.00
N596   N     0.57889   0.72256   0.82849   0.00000  Uiso   1.00
N597   N     0.40764   0.43203   0.65295   0.00000  Uiso   1.00
N598   N     0.24029   0.77268   0.66296   0.00000  Uiso   1.00
C599   C     0.86256   0.11711   0.30314   0.00000  Uiso   1.00
C600   C     0.92084   0.14545   0.31266   0.00000  Uiso   1.00
C601   C     0.94611   0.15630   0.36589   0.00000  Uiso   1.00
C602   C     0.99963   0.18258   0.36543   0.00000  Uiso   1.00
C603   C     0.08600   0.22431   0.38810   0.00000  Uiso   1.00
C604   C     0.87366   0.06537   0.26429   0.00000  Uiso   1.00
C605   C     0.85923   0.00890   0.27684   0.00000  Uiso   1.00
C606   C     0.87303   0.96778   0.23564   0.00000  Uiso   1.00
C607   C     0.88610   0.88519   0.18319   0.00000  Uiso   1.00
C608   C     0.82754   0.15926   0.26705   0.00000  Uiso   1.00
C609   C     0.77434   0.18171   0.28192   0.00000  Uiso   1.00
C610   C     0.74930   0.21963   0.24304   0.00000  Uiso   1.00
C611   C     0.69077   0.28282   0.19488   0.00000  Uiso   1.00
C612   C     0.91269   0.14450   0.20767   0.00000  Uiso   1.00
C613   C     0.94807   0.16033   0.26080   0.00000  Uiso   1.00
C614   C     0.00157   0.18661   0.26026   0.00000  Uiso   1.00
C615   C     0.02691   0.19749   0.31348   0.00000  Uiso   1.00
C616   C     0.90089   0.08025   0.21243   0.00000  Uiso   1.00
C617   C     0.91470   0.03921   0.17120   0.00000  Uiso   1.00
C618   C     0.90031   0.98268   0.18369   0.00000  Uiso   1.00
C619   C     0.85477   0.17414   0.21519   0.00000  Uiso   1.00
C620   C     0.82981   0.21203   0.17628   0.00000  Uiso   1.00
C621   C     0.77658   0.23454   0.19109   0.00000  Uiso   1.00
H622   H     0.84136   0.10552   0.34352   0.00000  Uiso   1.00
H623   H     0.92502   0.14477   0.40602   0.00000  Uiso   1.00
H624   H     0.83816   0.99739   0.31697   0.00000  Uiso   1.00
H625   H     0.75328   0.17019   0.32205   0.00000  Uiso   1.00
H626   H     0.02979   0.19483   0.45244   0.00000  Uiso   1.00
H627   H     0.84661   0.88409   0.26467   0.00000  Uiso   1.00
H628   H     0.66763   0.24846   0.27539   0.00000  Uiso   1.00
H629   H     0.93390   0.15609   0.16729   0.00000  Uiso   1.00
H630   H     0.02264   0.19812   0.22012   0.00000  Uiso   1.00
H631   H     0.93577   0.05074   0.13108   0.00000  Uiso   1.00
H632   H     0.85089   0.22353   0.13616   0.00000  Uiso   1.00
H633   H     0.10902   0.23813   0.30156   0.00000  Uiso   1.00
H634   H     0.92584   0.92738   0.11379   0.00000  Uiso   1.00
H635   H     0.74686   0.29175   0.12451   0.00000  Uiso   1.00
O636   O     0.12612   0.24320   0.41493   0.00000  Uiso   1.00
O637   O     0.88579   0.83552   0.16859   0.00000  Uiso   1.00
O638   O     0.65097   0.31356   0.18265   0.00000  Uiso   1.00
N639   N     0.03626   0.19927   0.40968   0.00000  Uiso   1.00
N640   N     0.86500   0.90873   0.23413   0.00000  Uiso   1.00
N641   N     0.69766   0.24938   0.24414   0.00000  Uiso   1.00
N642   N     0.07889   0.22256   0.32849   0.00000  Uiso   1.00
N643   N     0.90764   0.93203   0.15295   0.00000  Uiso   1.00
N644   N     0.74029   0.27268   0.16296   0.00000  Uiso   1.00
C645   C     0.13744   0.88289   0.30314   0.00000  Uiso   1.00
C646   C     0.07916   0.85455   0.31266   0.00000  Uiso   1.00
C647   C     0.05389   0.84370   0.36589   0.00000  Uiso   1.00
C648   C     0.00037   0.81742   0.36543   0.00000  Uiso   1.00
C649   C     0.91400   0.77569   0.38810   0.00000  Uiso   1.00
C650   C     0.12634   0.93463   0.26429   0.00000  Uiso   1.00
C651   C     0.14077   0.99110   0.27684   0.00000  Uiso   1.00
C652   C     0.12697   0.03222   0.23564   0.00000  Uiso   1.00
C653   C     0.11390   0.11481   0.18319   0.00000  Uiso   1.00
C654   C     0.17246   0.84074   0.26705   0.00000  Uiso   1.00
C655   C     0.22566   0.81829   0.28192   0.00000  Uiso   1.00
C656   C     0.25070   0.78037   0.24304   0.00000  Uiso   1.00
C657   C     0.30923   0.71718   0.19488   0.00000  Uiso   1.00
C658   C     0.08731   0.85550   0.20767   0.00000  Uiso   1.00
C659   C     0.05193   0.83967   0.26080   0.00000  Uiso   1.00
C660   C     0.99843   0.81339   0.26026   0.00000  Uiso   1.00
C661   C     0.97309   0.80251   0.31348   0.00000  Uiso   1.00
C662   C     0.09911   0.91975   0.21243   0.00000  Uiso   1.00
C663   C     0.08530   0.96079   0.17120   0.00000  Uiso   1.00
C664   C     0.09969   0.01732   0.18369   0.00000  Uiso   1.00
C665   C     0.14523   0.82586   0.21519   0.00000  Uiso   1.00
C666   C     0.17019   0.78797   0.17628   0.00000  Uiso   1.00
C667   C     0.22342   0.76546   0.19109   0.00000  Uiso   1.00
H668   H     0.15864   0.89448   0.34352   0.00000  Uiso   1.00
H669   H     0.07498   0.85523   0.40602   0.00000  Uiso   1.00
H670   H     0.16184   0.00261   0.31697   0.00000  Uiso   1.00
H671   H     0.24672   0.82981   0.32205   0.00000  Uiso   1.00
H672   H     0.97021   0.80517   0.45244   0.00000  Uiso   1.00
H673   H     0.15339   0.11591   0.26467   0.00000  Uiso   1.00
H674   H     0.33237   0.75154   0.27539   0.00000  Uiso   1.00
H675   H     0.06610   0.84391   0.16729   0.00000  Uiso   1.00
H676   H     0.97736   0.80188   0.22012   0.00000  Uiso   1.00
H677   H     0.06423   0.94926   0.13108   0.00000  Uiso   1.00
H678   H     0.14911   0.77647   0.13616   0.00000  Uiso   1.00
H679   H     0.89098   0.76187   0.30156   0.00000  Uiso   1.00
H680   H     0.07416   0.07262   0.11379   0.00000  Uiso   1.00
H681   H     0.25314   0.70825   0.12451   0.00000  Uiso   1.00
O682   O     0.87388   0.75680   0.41493   0.00000  Uiso   1.00
O683   O     0.11421   0.16448   0.16859   0.00000  Uiso   1.00
O684   O     0.34903   0.68644   0.18265   0.00000  Uiso   1.00
N685   N     0.96374   0.80073   0.40968   0.00000  Uiso   1.00
N686   N     0.13500   0.09127   0.23413   0.00000  Uiso   1.00
N687   N     0.30234   0.75062   0.24414   0.00000  Uiso   1.00
N688   N     0.92111   0.77744   0.32849   0.00000  Uiso   1.00
N689   N     0.09236   0.06797   0.15295   0.00000  Uiso   1.00
N690   N     0.25971   0.72732   0.16296   0.00000  Uiso   1.00
C691   C     0.63744   0.38289   0.80314   0.00000  Uiso   1.00
C692   C     0.57916   0.35455   0.81266   0.00000  Uiso   1.00
C693   C     0.55389   0.34370   0.86589   0.00000  Uiso   1.00
C694   C     0.50037   0.31742   0.86543   0.00000  Uiso   1.00
C695   C     0.41400   0.27569   0.88810   0.00000  Uiso   1.00
C696   C     0.62634   0.43463   0.76429   0.00000  Uiso   1.00
C697   C     0.64077   0.49110   0.77684   0.00000  Uiso   1.00
C698   C     0.62697   0.53222   0.73564   0.00000  Uiso   1.00
C699   C     0.61390   0.61481   0.68319   0.00000  Uiso   1.00
C700   C     0.67246   0.34074   0.76705   0.00000  Uiso   1.00
C701   C     0.72566   0.31829   0.78192   0.00000  Uiso   1.00
C702   C     0.75070   0.28037   0.74304   0.00000  Uiso   1.00
C703   C     0.80923   0.21718   0.69488   0.00000  Uiso   1.00
C704   C     0.58731   0.35550   0.70767   0.00000  Uiso   1.00
C705   C     0.55193   0.33967   0.76080   0.00000  Uiso   1.00
C706   C     0.49843   0.31339   0.76026   0.00000  Uiso   1.00
C707   C     0.47309   0.30251   0.81348   0.00000  Uiso   1.00
C708   C     0.59911   0.41975   0.71243   0.00000  Uiso   1.00
C709   C     0.58530   0.46079   0.67120   0.00000  Uiso   1.00
C710   C     0.59969   0.51732   0.68369   0.00000  Uiso   1.00
C711   C     0.64523   0.32586   0.71519   0.00000  Uiso   1.00
C712   C     0.67019   0.28797   0.67628   0.00000  Uiso   1.00
C713   C     0.72342   0.26546   0.69109   0.00000  Uiso   1.00
H714   H     0.65864   0.39448   0.84352   0.00000  Uiso   1.00
H715   H     0.57498   0.35523   0.90602   0.00000  Uiso   1.00
H716   H     0.66184   0.50261   0.81697   0.00000  Uiso   1.00
H717   H     0.74672   0.32981   0.82205   0.00000  Uiso   1.00
H718   H     0.47021   0.30517   0.95244   0.00000  Uiso   1.00
H719   H     0.65339   0.61591   0.76467   0.00000  Uiso   1.00
H720   H     0.83237   0.25154   0.77539   0.00000  Uiso   1.00
H721   H     0.56610   0.34391   0.66729   0.00000  Uiso   1.00
H722   H     0.47736   0.30188   0.72012   0.00000  Uiso   1.00
H723   H     0.56423   0.44926   0.63108   0.00000  Uiso   1.00
H724   H     0.64911   0.27647   0.63616   0.00000  Uiso   1.00
H725   H     0.39098   0.26187   0.80156   0.00000  Uiso   1.00
H726   H     0.57416   0.57262   0.61379   0.00000  Uiso   1.00
H727   H     0.75314   0.20825   0.62451   0.00000  Uiso   1.00
O728   O     0.37388   0.25680   0.91493   0.00000  Uiso   1.00
O729   O     0.61421   0.66448   0.66859   0.00000  Uiso   1.00
O730   O     0.84903   0.18644   0.68265   0.00000  Uiso   1.00
N731   N     0.46374   0.30073   0.90968   0.00000  Uiso   1.00
N732   N     0.63500   0.59127   0.73413   0.00000  Uiso   1.00
N733   N     0.80234   0.25062   0.74414   0.00000  Uiso   1.00
N734   N     0.42111   0.27744   0.82849   0.00000  Uiso   1.00
N735   N     0.59236   0.56797   0.65295   0.00000  Uiso   1.00
N736   N     0.75971   0.22732   0.66296   0.00000  Uiso   1.00
