data_job_03192
_audit_creation_date              2018-12-19
_audit_creation_method            'Materials Studio'
_symmetry_space_group_name_H-M    'P1'
_symmetry_Int_Tables_number       1
_symmetry_cell_setting            triclinic
loop_
_symmetry_equiv_pos_as_xyz
  x,y,z
_cell_length_a                    19.4904
_cell_length_b                    19.4904
_cell_length_c                    39.9469
_cell_angle_alpha                 90.0000
_cell_angle_beta                  90.0000
_cell_angle_gamma                 90.0000
loop_
_atom_site_label
_atom_site_type_symbol
_atom_site_fract_x
_atom_site_fract_y
_atom_site_fract_z
_atom_site_U_iso_or_equiv
_atom_site_adp_type
_atom_site_occupancy
C1     C     0.16059   0.82054   0.77457   0.00000  Uiso   1.00
C2     C     0.20547   0.88215   0.78318   0.00000  Uiso   1.00
C3     C     0.26504   0.90131   0.76661   0.00000  Uiso   1.00
C4     C     0.29874   0.95929   0.77833   0.00000  Uiso   1.00
C5     C     0.37225   0.04924   0.78756   0.00000  Uiso   1.00
C6     C     0.15597   0.77774   0.80644   0.00000  Uiso   1.00
C7     C     0.17392   0.70910   0.80942   0.00000  Uiso   1.00
C8     C     0.16594   0.67919   0.84072   0.00000  Uiso   1.00
C9     C     0.16255   0.60702   0.88606   0.00000  Uiso   1.00
C10    C     0.08875   0.84896   0.76854   0.00000  Uiso   1.00
C11    C     0.05017   0.84018   0.73966   0.00000  Uiso   1.00
C12    C     0.98558   0.87021   0.73906   0.00000  Uiso   1.00
C13    C     0.87782   0.90862   0.72555   0.00000  Uiso   1.00
C14    C     0.11450   0.88945   0.82486   0.00000  Uiso   1.00
C15    C     0.18043   0.91958   0.81050   0.00000  Uiso   1.00
C16    C     0.21404   0.97755   0.82225   0.00000  Uiso   1.00
C17    C     0.27365   0.99679   0.80570   0.00000  Uiso   1.00
C18    C     0.13094   0.81517   0.83376   0.00000  Uiso   1.00
C19    C     0.12292   0.78534   0.86506   0.00000  Uiso   1.00
C20    C     0.14085   0.71668   0.86809   0.00000  Uiso   1.00
C21    C     0.06371   0.88639   0.79586   0.00000  Uiso   1.00
C22    C     0.99917   0.91643   0.79531   0.00000  Uiso   1.00
C23    C     0.96049   0.90771   0.76643   0.00000  Uiso   1.00
H24    H     0.18009   0.79140   0.75330   0.00000  Uiso   1.00
H25    H     0.28441   0.87232   0.74547   0.00000  Uiso   1.00
H26    H     0.19329   0.68015   0.78827   0.00000  Uiso   1.00
H27    H     0.06956   0.81122   0.71853   0.00000  Uiso   1.00
H28    H     0.38903   0.97854   0.74884   0.00000  Uiso   1.00
H29    H     0.19689   0.57332   0.83910   0.00000  Uiso   1.00
H30    H     0.93598   0.84969   0.69202   0.00000  Uiso   1.00
H31    H     0.09500   0.91859   0.84613   0.00000  Uiso   1.00
H32    H     0.19465   0.00650   0.84339   0.00000  Uiso   1.00
H33    H     0.10354   0.81432   0.88620   0.00000  Uiso   1.00
H34    H     0.97981   0.94539   0.81645   0.00000  Uiso   1.00
H35    H     0.31619   0.08744   0.82832   0.00000  Uiso   1.00
H36    H     0.12404   0.68222   0.91858   0.00000  Uiso   1.00
H37    H     0.86313   0.95860   0.77150   0.00000  Uiso   1.00
O38    O     0.41971   0.08851   0.78511   0.00000  Uiso   1.00
O39    O     0.16761   0.55687   0.90352   0.00000  Uiso   1.00
O40    O     0.82531   0.91948   0.71056   0.00000  Uiso   1.00
N41    N     0.35821   0.99211   0.76792   0.00000  Uiso   1.00
N42    N     0.17857   0.61326   0.85230   0.00000  Uiso   1.00
N43    N     0.93463   0.87163   0.71480   0.00000  Uiso   1.00
N44    N     0.31901   0.05071   0.81069   0.00000  Uiso   1.00
N45    N     0.13938   0.67186   0.89507   0.00000  Uiso   1.00
N46    N     0.89544   0.93023   0.75757   0.00000  Uiso   1.00
C47    C     0.66059   0.32054   0.27457   0.00000  Uiso   1.00
C48    C     0.70547   0.38215   0.28318   0.00000  Uiso   1.00
C49    C     0.76504   0.40131   0.26661   0.00000  Uiso   1.00
C50    C     0.79874   0.45929   0.27833   0.00000  Uiso   1.00
C51    C     0.87225   0.54924   0.28756   0.00000  Uiso   1.00
C52    C     0.65597   0.27774   0.30644   0.00000  Uiso   1.00
C53    C     0.67392   0.20910   0.30942   0.00000  Uiso   1.00
C54    C     0.66594   0.17919   0.34072   0.00000  Uiso   1.00
C55    C     0.66255   0.10702   0.38606   0.00000  Uiso   1.00
C56    C     0.58875   0.34896   0.26854   0.00000  Uiso   1.00
C57    C     0.55017   0.34018   0.23966   0.00000  Uiso   1.00
C58    C     0.48558   0.37021   0.23906   0.00000  Uiso   1.00
C59    C     0.37782   0.40862   0.22555   0.00000  Uiso   1.00
C60    C     0.61450   0.38945   0.32486   0.00000  Uiso   1.00
C61    C     0.68043   0.41958   0.31050   0.00000  Uiso   1.00
C62    C     0.71404   0.47755   0.32225   0.00000  Uiso   1.00
C63    C     0.77365   0.49679   0.30570   0.00000  Uiso   1.00
C64    C     0.63094   0.31517   0.33376   0.00000  Uiso   1.00
C65    C     0.62292   0.28534   0.36506   0.00000  Uiso   1.00
C66    C     0.64085   0.21668   0.36809   0.00000  Uiso   1.00
C67    C     0.56371   0.38639   0.29586   0.00000  Uiso   1.00
C68    C     0.49917   0.41643   0.29531   0.00000  Uiso   1.00
C69    C     0.46049   0.40771   0.26643   0.00000  Uiso   1.00
H70    H     0.68009   0.29140   0.25330   0.00000  Uiso   1.00
H71    H     0.78441   0.37232   0.24547   0.00000  Uiso   1.00
H72    H     0.69329   0.18015   0.28827   0.00000  Uiso   1.00
H73    H     0.56956   0.31122   0.21853   0.00000  Uiso   1.00
H74    H     0.88903   0.47854   0.24884   0.00000  Uiso   1.00
H75    H     0.69689   0.07332   0.33910   0.00000  Uiso   1.00
H76    H     0.43598   0.34969   0.19202   0.00000  Uiso   1.00
H77    H     0.59500   0.41859   0.34613   0.00000  Uiso   1.00
H78    H     0.69465   0.50650   0.34339   0.00000  Uiso   1.00
H79    H     0.60354   0.31432   0.38620   0.00000  Uiso   1.00
H80    H     0.47981   0.44539   0.31645   0.00000  Uiso   1.00
H81    H     0.81619   0.58744   0.32832   0.00000  Uiso   1.00
H82    H     0.62404   0.18222   0.41858   0.00000  Uiso   1.00
H83    H     0.36313   0.45860   0.27150   0.00000  Uiso   1.00
O84    O     0.91971   0.58851   0.28511   0.00000  Uiso   1.00
O85    O     0.66761   0.05687   0.40352   0.00000  Uiso   1.00
O86    O     0.32531   0.41948   0.21056   0.00000  Uiso   1.00
N87    N     0.85821   0.49211   0.26792   0.00000  Uiso   1.00
N88    N     0.67857   0.11326   0.35230   0.00000  Uiso   1.00
N89    N     0.43463   0.37163   0.21480   0.00000  Uiso   1.00
N90    N     0.81901   0.55071   0.31069   0.00000  Uiso   1.00
N91    N     0.63938   0.17186   0.39507   0.00000  Uiso   1.00
N92    N     0.39544   0.43023   0.25757   0.00000  Uiso   1.00
C93    C     0.83941   0.17946   0.77457   0.00000  Uiso   1.00
C94    C     0.79453   0.11785   0.78318   0.00000  Uiso   1.00
C95    C     0.73496   0.09869   0.76661   0.00000  Uiso   1.00
C96    C     0.70126   0.04071   0.77833   0.00000  Uiso   1.00
C97    C     0.62775   0.95076   0.78756   0.00000  Uiso   1.00
C98    C     0.84403   0.22226   0.80644   0.00000  Uiso   1.00
C99    C     0.82608   0.29090   0.80942   0.00000  Uiso   1.00
C100   C     0.83406   0.32081   0.84072   0.00000  Uiso   1.00
C101   C     0.83745   0.39298   0.88606   0.00000  Uiso   1.00
C102   C     0.91125   0.15104   0.76854   0.00000  Uiso   1.00
C103   C     0.94983   0.15982   0.73966   0.00000  Uiso   1.00
C104   C     0.01442   0.12979   0.73906   0.00000  Uiso   1.00
C105   C     0.12218   0.09138   0.72555   0.00000  Uiso   1.00
C106   C     0.88550   0.11055   0.82486   0.00000  Uiso   1.00
C107   C     0.81957   0.08042   0.81050   0.00000  Uiso   1.00
C108   C     0.78596   0.02245   0.82225   0.00000  Uiso   1.00
C109   C     0.72635   0.00321   0.80570   0.00000  Uiso   1.00
C110   C     0.86906   0.18483   0.83376   0.00000  Uiso   1.00
C111   C     0.87708   0.21466   0.86506   0.00000  Uiso   1.00
C112   C     0.85915   0.28332   0.86809   0.00000  Uiso   1.00
C113   C     0.93629   0.11361   0.79586   0.00000  Uiso   1.00
C114   C     0.00083   0.08357   0.79531   0.00000  Uiso   1.00
C115   C     0.03951   0.09229   0.76643   0.00000  Uiso   1.00
H116   H     0.81991   0.20860   0.75330   0.00000  Uiso   1.00
H117   H     0.71559   0.12768   0.74547   0.00000  Uiso   1.00
H118   H     0.80671   0.31985   0.78827   0.00000  Uiso   1.00
H119   H     0.93044   0.18878   0.71853   0.00000  Uiso   1.00
H120   H     0.61097   0.02146   0.74884   0.00000  Uiso   1.00
H121   H     0.80311   0.42668   0.83910   0.00000  Uiso   1.00
H122   H     0.06402   0.15031   0.69202   0.00000  Uiso   1.00
H123   H     0.90500   0.08141   0.84613   0.00000  Uiso   1.00
H124   H     0.80535   0.99350   0.84339   0.00000  Uiso   1.00
H125   H     0.89646   0.18568   0.88620   0.00000  Uiso   1.00
H126   H     0.02019   0.05461   0.81645   0.00000  Uiso   1.00
H127   H     0.68381   0.91256   0.82832   0.00000  Uiso   1.00
H128   H     0.87596   0.31778   0.91858   0.00000  Uiso   1.00
H129   H     0.13687   0.04140   0.77150   0.00000  Uiso   1.00
O130   O     0.58029   0.91149   0.78511   0.00000  Uiso   1.00
O131   O     0.83239   0.44313   0.90352   0.00000  Uiso   1.00
O132   O     0.17469   0.08052   0.71056   0.00000  Uiso   1.00
N133   N     0.64179   0.00789   0.76792   0.00000  Uiso   1.00
N134   N     0.82143   0.38674   0.85230   0.00000  Uiso   1.00
N135   N     0.06537   0.12837   0.71480   0.00000  Uiso   1.00
N136   N     0.68099   0.94929   0.81069   0.00000  Uiso   1.00
N137   N     0.86062   0.32814   0.89507   0.00000  Uiso   1.00
N138   N     0.10456   0.06977   0.75757   0.00000  Uiso   1.00
C139   C     0.33941   0.67946   0.27457   0.00000  Uiso   1.00
C140   C     0.29453   0.61785   0.28318   0.00000  Uiso   1.00
C141   C     0.23496   0.59869   0.26661   0.00000  Uiso   1.00
C142   C     0.20126   0.54071   0.27833   0.00000  Uiso   1.00
C143   C     0.12775   0.45076   0.28756   0.00000  Uiso   1.00
C144   C     0.34403   0.72226   0.30644   0.00000  Uiso   1.00
C145   C     0.32608   0.79090   0.30942   0.00000  Uiso   1.00
C146   C     0.33406   0.82081   0.34072   0.00000  Uiso   1.00
C147   C     0.33745   0.89298   0.38606   0.00000  Uiso   1.00
C148   C     0.41125   0.65104   0.26854   0.00000  Uiso   1.00
C149   C     0.44983   0.65982   0.23966   0.00000  Uiso   1.00
C150   C     0.51442   0.62979   0.23906   0.00000  Uiso   1.00
C151   C     0.62218   0.59138   0.22555   0.00000  Uiso   1.00
C152   C     0.38550   0.61055   0.32486   0.00000  Uiso   1.00
C153   C     0.31957   0.58042   0.31050   0.00000  Uiso   1.00
C154   C     0.28596   0.52245   0.32225   0.00000  Uiso   1.00
C155   C     0.22635   0.50321   0.30570   0.00000  Uiso   1.00
C156   C     0.36906   0.68483   0.33376   0.00000  Uiso   1.00
C157   C     0.37708   0.71466   0.36506   0.00000  Uiso   1.00
C158   C     0.35915   0.78332   0.36809   0.00000  Uiso   1.00
C159   C     0.43629   0.61361   0.29586   0.00000  Uiso   1.00
C160   C     0.50083   0.58357   0.29531   0.00000  Uiso   1.00
C161   C     0.53951   0.59229   0.26643   0.00000  Uiso   1.00
H162   H     0.31991   0.70860   0.25330   0.00000  Uiso   1.00
H163   H     0.21559   0.62768   0.24547   0.00000  Uiso   1.00
H164   H     0.30671   0.81985   0.28827   0.00000  Uiso   1.00
H165   H     0.43044   0.68878   0.21853   0.00000  Uiso   1.00
H166   H     0.11097   0.52146   0.24884   0.00000  Uiso   1.00
H167   H     0.30311   0.92668   0.33910   0.00000  Uiso   1.00
H168   H     0.56402   0.65031   0.19202   0.00000  Uiso   1.00
H169   H     0.40500   0.58141   0.34613   0.00000  Uiso   1.00
H170   H     0.30535   0.49350   0.34339   0.00000  Uiso   1.00
H171   H     0.39646   0.68568   0.38620   0.00000  Uiso   1.00
H172   H     0.52019   0.55461   0.31645   0.00000  Uiso   1.00
H173   H     0.18381   0.41256   0.32832   0.00000  Uiso   1.00
H174   H     0.37596   0.81778   0.41858   0.00000  Uiso   1.00
H175   H     0.63687   0.54140   0.27150   0.00000  Uiso   1.00
O176   O     0.08029   0.41149   0.28511   0.00000  Uiso   1.00
O177   O     0.33239   0.94313   0.40352   0.00000  Uiso   1.00
O178   O     0.67469   0.58052   0.21056   0.00000  Uiso   1.00
N179   N     0.14179   0.50789   0.26792   0.00000  Uiso   1.00
N180   N     0.32143   0.88674   0.35230   0.00000  Uiso   1.00
N181   N     0.56537   0.62837   0.21480   0.00000  Uiso   1.00
N182   N     0.18099   0.44929   0.31069   0.00000  Uiso   1.00
N183   N     0.36062   0.82814   0.39507   0.00000  Uiso   1.00
N184   N     0.60456   0.56977   0.25757   0.00000  Uiso   1.00
C185   C     0.82054   0.83941   0.22543   0.00000  Uiso   1.00
C186   C     0.88215   0.79453   0.21682   0.00000  Uiso   1.00
C187   C     0.90131   0.73496   0.23339   0.00000  Uiso   1.00
C188   C     0.95929   0.70126   0.22167   0.00000  Uiso   1.00
C189   C     0.04924   0.62775   0.21244   0.00000  Uiso   1.00
C190   C     0.77774   0.84403   0.19356   0.00000  Uiso   1.00
C191   C     0.70910   0.82608   0.19058   0.00000  Uiso   1.00
C192   C     0.67919   0.83406   0.15928   0.00000  Uiso   1.00
C193   C     0.60702   0.83745   0.11394   0.00000  Uiso   1.00
C194   C     0.84896   0.91125   0.23146   0.00000  Uiso   1.00
C195   C     0.84018   0.94983   0.26034   0.00000  Uiso   1.00
C196   C     0.87021   0.01442   0.26094   0.00000  Uiso   1.00
C197   C     0.90862   0.12218   0.27445   0.00000  Uiso   1.00
C198   C     0.88945   0.88550   0.17514   0.00000  Uiso   1.00
C199   C     0.91958   0.81957   0.18950   0.00000  Uiso   1.00
C200   C     0.97755   0.78596   0.17775   0.00000  Uiso   1.00
C201   C     0.99679   0.72635   0.19430   0.00000  Uiso   1.00
C202   C     0.81517   0.86906   0.16624   0.00000  Uiso   1.00
C203   C     0.78534   0.87708   0.13494   0.00000  Uiso   1.00
C204   C     0.71668   0.85915   0.13191   0.00000  Uiso   1.00
C205   C     0.88639   0.93629   0.20414   0.00000  Uiso   1.00
C206   C     0.91643   0.00083   0.20469   0.00000  Uiso   1.00
C207   C     0.90771   0.03951   0.23357   0.00000  Uiso   1.00
H208   H     0.79140   0.81991   0.24670   0.00000  Uiso   1.00
H209   H     0.87232   0.71559   0.25453   0.00000  Uiso   1.00
H210   H     0.68015   0.80671   0.21173   0.00000  Uiso   1.00
H211   H     0.81122   0.93044   0.28147   0.00000  Uiso   1.00
H212   H     0.97854   0.61097   0.25116   0.00000  Uiso   1.00
H213   H     0.57332   0.80311   0.16090   0.00000  Uiso   1.00
H214   H     0.84969   0.06402   0.30798   0.00000  Uiso   1.00
H215   H     0.91859   0.90500   0.15387   0.00000  Uiso   1.00
H216   H     0.00650   0.80535   0.15661   0.00000  Uiso   1.00
H217   H     0.81432   0.89646   0.11380   0.00000  Uiso   1.00
H218   H     0.94539   0.02019   0.18355   0.00000  Uiso   1.00
H219   H     0.08744   0.68381   0.17168   0.00000  Uiso   1.00
H220   H     0.68222   0.87596   0.08142   0.00000  Uiso   1.00
H221   H     0.95860   0.13687   0.22850   0.00000  Uiso   1.00
O222   O     0.08851   0.58029   0.21489   0.00000  Uiso   1.00
O223   O     0.55687   0.83239   0.09648   0.00000  Uiso   1.00
O224   O     0.91948   0.17469   0.28944   0.00000  Uiso   1.00
N225   N     0.99211   0.64179   0.23208   0.00000  Uiso   1.00
N226   N     0.61326   0.82143   0.14770   0.00000  Uiso   1.00
N227   N     0.87163   0.06537   0.28520   0.00000  Uiso   1.00
N228   N     0.05071   0.68099   0.18931   0.00000  Uiso   1.00
N229   N     0.67186   0.86062   0.10493   0.00000  Uiso   1.00
N230   N     0.93023   0.10456   0.24243   0.00000  Uiso   1.00
C231   C     0.32054   0.33941   0.72543   0.00000  Uiso   1.00
C232   C     0.38215   0.29453   0.71682   0.00000  Uiso   1.00
C233   C     0.40131   0.23496   0.73339   0.00000  Uiso   1.00
C234   C     0.45929   0.20126   0.72167   0.00000  Uiso   1.00
C235   C     0.54924   0.12775   0.71244   0.00000  Uiso   1.00
C236   C     0.27774   0.34403   0.69356   0.00000  Uiso   1.00
C237   C     0.20910   0.32608   0.69058   0.00000  Uiso   1.00
C238   C     0.17919   0.33406   0.65928   0.00000  Uiso   1.00
C239   C     0.10702   0.33745   0.61394   0.00000  Uiso   1.00
C240   C     0.34896   0.41125   0.73146   0.00000  Uiso   1.00
C241   C     0.34018   0.44983   0.76034   0.00000  Uiso   1.00
C242   C     0.37021   0.51442   0.76094   0.00000  Uiso   1.00
C243   C     0.40862   0.62218   0.77445   0.00000  Uiso   1.00
C244   C     0.38945   0.38550   0.67514   0.00000  Uiso   1.00
C245   C     0.41958   0.31957   0.68950   0.00000  Uiso   1.00
C246   C     0.47755   0.28596   0.67775   0.00000  Uiso   1.00
C247   C     0.49679   0.22635   0.69430   0.00000  Uiso   1.00
C248   C     0.31517   0.36906   0.66624   0.00000  Uiso   1.00
C249   C     0.28534   0.37708   0.63494   0.00000  Uiso   1.00
C250   C     0.21668   0.35915   0.63191   0.00000  Uiso   1.00
C251   C     0.38639   0.43629   0.70414   0.00000  Uiso   1.00
C252   C     0.41643   0.50083   0.70469   0.00000  Uiso   1.00
C253   C     0.40771   0.53951   0.73357   0.00000  Uiso   1.00
H254   H     0.29140   0.31991   0.74670   0.00000  Uiso   1.00
H255   H     0.37232   0.21559   0.75453   0.00000  Uiso   1.00
H256   H     0.18015   0.30671   0.71173   0.00000  Uiso   1.00
H257   H     0.31122   0.43044   0.78147   0.00000  Uiso   1.00
H258   H     0.47854   0.11097   0.75116   0.00000  Uiso   1.00
H259   H     0.07332   0.30311   0.66090   0.00000  Uiso   1.00
H260   H     0.34969   0.56402   0.80798   0.00000  Uiso   1.00
H261   H     0.41859   0.40500   0.65387   0.00000  Uiso   1.00
H262   H     0.50650   0.30535   0.65661   0.00000  Uiso   1.00
H263   H     0.31432   0.39646   0.61380   0.00000  Uiso   1.00
H264   H     0.44539   0.52019   0.68355   0.00000  Uiso   1.00
H265   H     0.58744   0.18381   0.67168   0.00000  Uiso   1.00
H266   H     0.18222   0.37596   0.58142   0.00000  Uiso   1.00
H267   H     0.45860   0.63687   0.72850   0.00000  Uiso   1.00
O268   O     0.58851   0.08029   0.71489   0.00000  Uiso   1.00
O269   O     0.05687   0.33239   0.59648   0.00000  Uiso   1.00
O270   O     0.41948   0.67469   0.78944   0.00000  Uiso   1.00
N271   N     0.49211   0.14179   0.73208   0.00000  Uiso   1.00
N272   N     0.11326   0.32143   0.64770   0.00000  Uiso   1.00
N273   N     0.37163   0.56537   0.78520   0.00000  Uiso   1.00
N274   N     0.55071   0.18099   0.68931   0.00000  Uiso   1.00
N275   N     0.17186   0.36062   0.60493   0.00000  Uiso   1.00
N276   N     0.43023   0.60456   0.74243   0.00000  Uiso   1.00
C277   C     0.17946   0.16059   0.22543   0.00000  Uiso   1.00
C278   C     0.11785   0.20547   0.21682   0.00000  Uiso   1.00
C279   C     0.09869   0.26504   0.23339   0.00000  Uiso   1.00
C280   C     0.04071   0.29874   0.22167   0.00000  Uiso   1.00
C281   C     0.95076   0.37225   0.21244   0.00000  Uiso   1.00
C282   C     0.22226   0.15597   0.19356   0.00000  Uiso   1.00
C283   C     0.29090   0.17392   0.19058   0.00000  Uiso   1.00
C284   C     0.32081   0.16594   0.15928   0.00000  Uiso   1.00
C285   C     0.39298   0.16255   0.11394   0.00000  Uiso   1.00
C286   C     0.15104   0.08875   0.23146   0.00000  Uiso   1.00
C287   C     0.15982   0.05017   0.26034   0.00000  Uiso   1.00
C288   C     0.12979   0.98558   0.26094   0.00000  Uiso   1.00
C289   C     0.09138   0.87782   0.27445   0.00000  Uiso   1.00
C290   C     0.11055   0.11450   0.17514   0.00000  Uiso   1.00
C291   C     0.08042   0.18043   0.18950   0.00000  Uiso   1.00
C292   C     0.02245   0.21404   0.17775   0.00000  Uiso   1.00
C293   C     0.00321   0.27365   0.19430   0.00000  Uiso   1.00
C294   C     0.18483   0.13094   0.16624   0.00000  Uiso   1.00
C295   C     0.21466   0.12292   0.13494   0.00000  Uiso   1.00
C296   C     0.28332   0.14085   0.13191   0.00000  Uiso   1.00
C297   C     0.11361   0.06371   0.20414   0.00000  Uiso   1.00
C298   C     0.08357   0.99917   0.20469   0.00000  Uiso   1.00
C299   C     0.09229   0.96049   0.23357   0.00000  Uiso   1.00
H300   H     0.20860   0.18009   0.24670   0.00000  Uiso   1.00
H301   H     0.12768   0.28441   0.25453   0.00000  Uiso   1.00
H302   H     0.31985   0.19329   0.21173   0.00000  Uiso   1.00
H303   H     0.18878   0.06956   0.28147   0.00000  Uiso   1.00
H304   H     0.02146   0.38903   0.25116   0.00000  Uiso   1.00
H305   H     0.42668   0.19689   0.16090   0.00000  Uiso   1.00
H306   H     0.15031   0.93598   0.30798   0.00000  Uiso   1.00
H307   H     0.08141   0.09500   0.15387   0.00000  Uiso   1.00
H308   H     0.99350   0.19465   0.15661   0.00000  Uiso   1.00
H309   H     0.18568   0.10354   0.11380   0.00000  Uiso   1.00
H310   H     0.05461   0.97981   0.18355   0.00000  Uiso   1.00
H311   H     0.91256   0.31619   0.17168   0.00000  Uiso   1.00
H312   H     0.31778   0.12404   0.08142   0.00000  Uiso   1.00
H313   H     0.04140   0.86313   0.22850   0.00000  Uiso   1.00
O314   O     0.91149   0.41971   0.21489   0.00000  Uiso   1.00
O315   O     0.44313   0.16761   0.09648   0.00000  Uiso   1.00
O316   O     0.08052   0.82531   0.28944   0.00000  Uiso   1.00
N317   N     0.00789   0.35821   0.23208   0.00000  Uiso   1.00
N318   N     0.38674   0.17857   0.14770   0.00000  Uiso   1.00
N319   N     0.12837   0.93463   0.28520   0.00000  Uiso   1.00
N320   N     0.94929   0.31901   0.18931   0.00000  Uiso   1.00
N321   N     0.32814   0.13938   0.10493   0.00000  Uiso   1.00
N322   N     0.06977   0.89544   0.24243   0.00000  Uiso   1.00
C323   C     0.67946   0.66059   0.72543   0.00000  Uiso   1.00
C324   C     0.61785   0.70547   0.71682   0.00000  Uiso   1.00
C325   C     0.59869   0.76504   0.73339   0.00000  Uiso   1.00
C326   C     0.54071   0.79874   0.72167   0.00000  Uiso   1.00
C327   C     0.45076   0.87225   0.71244   0.00000  Uiso   1.00
C328   C     0.72226   0.65597   0.69356   0.00000  Uiso   1.00
C329   C     0.79090   0.67392   0.69058   0.00000  Uiso   1.00
C330   C     0.82081   0.66594   0.65928   0.00000  Uiso   1.00
C331   C     0.89298   0.66255   0.61394   0.00000  Uiso   1.00
C332   C     0.65104   0.58875   0.73146   0.00000  Uiso   1.00
C333   C     0.65982   0.55017   0.76034   0.00000  Uiso   1.00
C334   C     0.62979   0.48558   0.76094   0.00000  Uiso   1.00
C335   C     0.59138   0.37782   0.77445   0.00000  Uiso   1.00
C336   C     0.61055   0.61450   0.67514   0.00000  Uiso   1.00
C337   C     0.58042   0.68043   0.68950   0.00000  Uiso   1.00
C338   C     0.52245   0.71404   0.67775   0.00000  Uiso   1.00
C339   C     0.50321   0.77365   0.69430   0.00000  Uiso   1.00
C340   C     0.68483   0.63094   0.66624   0.00000  Uiso   1.00
C341   C     0.71466   0.62292   0.63494   0.00000  Uiso   1.00
C342   C     0.78332   0.64085   0.63191   0.00000  Uiso   1.00
C343   C     0.61361   0.56371   0.70414   0.00000  Uiso   1.00
C344   C     0.58357   0.49917   0.70469   0.00000  Uiso   1.00
C345   C     0.59229   0.46049   0.73357   0.00000  Uiso   1.00
H346   H     0.70860   0.68009   0.74670   0.00000  Uiso   1.00
H347   H     0.62768   0.78441   0.75453   0.00000  Uiso   1.00
H348   H     0.81985   0.69329   0.71173   0.00000  Uiso   1.00
H349   H     0.68878   0.56956   0.78147   0.00000  Uiso   1.00
H350   H     0.52146   0.88903   0.75116   0.00000  Uiso   1.00
H351   H     0.92668   0.69689   0.66090   0.00000  Uiso   1.00
H352   H     0.65031   0.43598   0.80798   0.00000  Uiso   1.00
H353   H     0.58141   0.59500   0.65387   0.00000  Uiso   1.00
H354   H     0.49350   0.69465   0.65661   0.00000  Uiso   1.00
H355   H     0.68568   0.60354   0.61380   0.00000  Uiso   1.00
H356   H     0.55461   0.47981   0.68355   0.00000  Uiso   1.00
H357   H     0.41256   0.81619   0.67168   0.00000  Uiso   1.00
H358   H     0.81778   0.62404   0.58142   0.00000  Uiso   1.00
H359   H     0.54140   0.36313   0.72850   0.00000  Uiso   1.00
O360   O     0.41149   0.91971   0.71489   0.00000  Uiso   1.00
O361   O     0.94313   0.66761   0.59648   0.00000  Uiso   1.00
O362   O     0.58052   0.32531   0.78944   0.00000  Uiso   1.00
N363   N     0.50789   0.85821   0.73208   0.00000  Uiso   1.00
N364   N     0.88674   0.67857   0.64770   0.00000  Uiso   1.00
N365   N     0.62837   0.43463   0.78520   0.00000  Uiso   1.00
N366   N     0.44929   0.81901   0.68931   0.00000  Uiso   1.00
N367   N     0.82814   0.63938   0.60493   0.00000  Uiso   1.00
N368   N     0.56977   0.39544   0.74243   0.00000  Uiso   1.00
C369   C     0.33941   0.82054   0.97543   0.00000  Uiso   1.00
C370   C     0.29453   0.88215   0.96682   0.00000  Uiso   1.00
C371   C     0.23496   0.90131   0.98339   0.00000  Uiso   1.00
C372   C     0.20126   0.95929   0.97167   0.00000  Uiso   1.00
C373   C     0.12775   0.04924   0.96244   0.00000  Uiso   1.00
C374   C     0.34403   0.77774   0.94356   0.00000  Uiso   1.00
C375   C     0.32608   0.70910   0.94058   0.00000  Uiso   1.00
C376   C     0.33406   0.67919   0.90928   0.00000  Uiso   1.00
C377   C     0.33745   0.60702   0.86394   0.00000  Uiso   1.00
C378   C     0.41125   0.84896   0.98146   0.00000  Uiso   1.00
C379   C     0.44983   0.84018   0.01034   0.00000  Uiso   1.00
C380   C     0.51442   0.87021   0.01094   0.00000  Uiso   1.00
C381   C     0.62218   0.90862   0.02445   0.00000  Uiso   1.00
C382   C     0.38550   0.88945   0.92514   0.00000  Uiso   1.00
C383   C     0.31957   0.91958   0.93950   0.00000  Uiso   1.00
C384   C     0.28596   0.97755   0.92775   0.00000  Uiso   1.00
C385   C     0.22635   0.99679   0.94430   0.00000  Uiso   1.00
C386   C     0.36906   0.81517   0.91624   0.00000  Uiso   1.00
C387   C     0.37708   0.78534   0.88494   0.00000  Uiso   1.00
C388   C     0.35915   0.71668   0.88191   0.00000  Uiso   1.00
C389   C     0.43629   0.88639   0.95414   0.00000  Uiso   1.00
C390   C     0.50083   0.91643   0.95469   0.00000  Uiso   1.00
C391   C     0.53951   0.90771   0.98357   0.00000  Uiso   1.00
H392   H     0.31991   0.79140   0.99670   0.00000  Uiso   1.00
H393   H     0.21559   0.87232   0.00453   0.00000  Uiso   1.00
H394   H     0.30671   0.68015   0.96173   0.00000  Uiso   1.00
H395   H     0.43044   0.81122   0.03147   0.00000  Uiso   1.00
H396   H     0.11097   0.97854   0.00116   0.00000  Uiso   1.00
H397   H     0.30311   0.57332   0.91090   0.00000  Uiso   1.00
H398   H     0.56402   0.84969   0.05798   0.00000  Uiso   1.00
H399   H     0.40500   0.91859   0.90387   0.00000  Uiso   1.00
H400   H     0.30535   0.00650   0.90661   0.00000  Uiso   1.00
H401   H     0.39646   0.81432   0.86380   0.00000  Uiso   1.00
H402   H     0.52019   0.94539   0.93355   0.00000  Uiso   1.00
H403   H     0.18381   0.08744   0.92168   0.00000  Uiso   1.00
H404   H     0.37596   0.68222   0.83142   0.00000  Uiso   1.00
H405   H     0.63687   0.95860   0.97850   0.00000  Uiso   1.00
O406   O     0.08029   0.08851   0.96489   0.00000  Uiso   1.00
O407   O     0.33239   0.55687   0.84648   0.00000  Uiso   1.00
O408   O     0.67469   0.91948   0.03944   0.00000  Uiso   1.00
N409   N     0.14179   0.99211   0.98208   0.00000  Uiso   1.00
N410   N     0.32143   0.61326   0.89770   0.00000  Uiso   1.00
N411   N     0.56537   0.87163   0.03520   0.00000  Uiso   1.00
N412   N     0.18099   0.05071   0.93931   0.00000  Uiso   1.00
N413   N     0.36062   0.67186   0.85493   0.00000  Uiso   1.00
N414   N     0.60456   0.93023   0.99243   0.00000  Uiso   1.00
C415   C     0.83941   0.32054   0.47543   0.00000  Uiso   1.00
C416   C     0.79453   0.38215   0.46682   0.00000  Uiso   1.00
C417   C     0.73496   0.40131   0.48339   0.00000  Uiso   1.00
C418   C     0.70126   0.45929   0.47167   0.00000  Uiso   1.00
C419   C     0.62775   0.54924   0.46244   0.00000  Uiso   1.00
C420   C     0.84403   0.27774   0.44356   0.00000  Uiso   1.00
C421   C     0.82608   0.20910   0.44058   0.00000  Uiso   1.00
C422   C     0.83406   0.17919   0.40928   0.00000  Uiso   1.00
C423   C     0.83745   0.10702   0.36394   0.00000  Uiso   1.00
C424   C     0.91125   0.34896   0.48146   0.00000  Uiso   1.00
C425   C     0.94983   0.34018   0.51034   0.00000  Uiso   1.00
C426   C     0.01442   0.37021   0.51094   0.00000  Uiso   1.00
C427   C     0.12218   0.40862   0.52445   0.00000  Uiso   1.00
C428   C     0.88550   0.38945   0.42514   0.00000  Uiso   1.00
C429   C     0.81957   0.41958   0.43950   0.00000  Uiso   1.00
C430   C     0.78596   0.47755   0.42775   0.00000  Uiso   1.00
C431   C     0.72635   0.49679   0.44430   0.00000  Uiso   1.00
C432   C     0.86906   0.31517   0.41624   0.00000  Uiso   1.00
C433   C     0.87708   0.28534   0.38494   0.00000  Uiso   1.00
C434   C     0.85915   0.21668   0.38191   0.00000  Uiso   1.00
C435   C     0.93629   0.38639   0.45414   0.00000  Uiso   1.00
C436   C     0.00083   0.41643   0.45469   0.00000  Uiso   1.00
C437   C     0.03951   0.40771   0.48357   0.00000  Uiso   1.00
H438   H     0.81991   0.29140   0.49670   0.00000  Uiso   1.00
H439   H     0.71559   0.37232   0.50453   0.00000  Uiso   1.00
H440   H     0.80671   0.18015   0.46173   0.00000  Uiso   1.00
H441   H     0.93044   0.31122   0.53147   0.00000  Uiso   1.00
H442   H     0.61097   0.47854   0.50116   0.00000  Uiso   1.00
H443   H     0.80311   0.07332   0.41090   0.00000  Uiso   1.00
H444   H     0.06402   0.34969   0.55798   0.00000  Uiso   1.00
H445   H     0.90500   0.41859   0.40387   0.00000  Uiso   1.00
H446   H     0.80535   0.50650   0.40661   0.00000  Uiso   1.00
H447   H     0.89646   0.31432   0.36380   0.00000  Uiso   1.00
H448   H     0.02019   0.44539   0.43355   0.00000  Uiso   1.00
H449   H     0.68381   0.58744   0.42168   0.00000  Uiso   1.00
H450   H     0.87596   0.18222   0.33142   0.00000  Uiso   1.00
H451   H     0.13687   0.45860   0.47850   0.00000  Uiso   1.00
O452   O     0.58029   0.58851   0.46489   0.00000  Uiso   1.00
O453   O     0.83239   0.05687   0.34648   0.00000  Uiso   1.00
O454   O     0.17469   0.41948   0.53944   0.00000  Uiso   1.00
N455   N     0.64179   0.49211   0.48208   0.00000  Uiso   1.00
N456   N     0.82143   0.11326   0.39770   0.00000  Uiso   1.00
N457   N     0.06537   0.37163   0.53520   0.00000  Uiso   1.00
N458   N     0.68099   0.55071   0.43931   0.00000  Uiso   1.00
N459   N     0.86062   0.17186   0.35493   0.00000  Uiso   1.00
N460   N     0.10456   0.43023   0.49243   0.00000  Uiso   1.00
C461   C     0.66059   0.17946   0.97543   0.00000  Uiso   1.00
C462   C     0.70547   0.11785   0.96682   0.00000  Uiso   1.00
C463   C     0.76504   0.09869   0.98339   0.00000  Uiso   1.00
C464   C     0.79874   0.04071   0.97167   0.00000  Uiso   1.00
C465   C     0.87225   0.95076   0.96244   0.00000  Uiso   1.00
C466   C     0.65597   0.22226   0.94356   0.00000  Uiso   1.00
C467   C     0.67392   0.29090   0.94058   0.00000  Uiso   1.00
C468   C     0.66594   0.32081   0.90928   0.00000  Uiso   1.00
C469   C     0.66255   0.39298   0.86394   0.00000  Uiso   1.00
C470   C     0.58875   0.15104   0.98146   0.00000  Uiso   1.00
C471   C     0.55017   0.15982   0.01034   0.00000  Uiso   1.00
C472   C     0.48558   0.12979   0.01094   0.00000  Uiso   1.00
C473   C     0.37782   0.09138   0.02445   0.00000  Uiso   1.00
C474   C     0.61450   0.11055   0.92514   0.00000  Uiso   1.00
C475   C     0.68043   0.08042   0.93950   0.00000  Uiso   1.00
C476   C     0.71404   0.02245   0.92775   0.00000  Uiso   1.00
C477   C     0.77365   0.00321   0.94430   0.00000  Uiso   1.00
C478   C     0.63094   0.18483   0.91624   0.00000  Uiso   1.00
C479   C     0.62292   0.21466   0.88494   0.00000  Uiso   1.00
C480   C     0.64085   0.28332   0.88191   0.00000  Uiso   1.00
C481   C     0.56371   0.11361   0.95414   0.00000  Uiso   1.00
C482   C     0.49917   0.08357   0.95469   0.00000  Uiso   1.00
C483   C     0.46049   0.09229   0.98357   0.00000  Uiso   1.00
H484   H     0.68009   0.20860   0.99670   0.00000  Uiso   1.00
H485   H     0.78441   0.12768   0.00453   0.00000  Uiso   1.00
H486   H     0.69329   0.31985   0.96173   0.00000  Uiso   1.00
H487   H     0.56956   0.18878   0.03147   0.00000  Uiso   1.00
H488   H     0.88903   0.02146   0.00116   0.00000  Uiso   1.00
H489   H     0.69689   0.42668   0.91090   0.00000  Uiso   1.00
H490   H     0.43598   0.15031   0.05798   0.00000  Uiso   1.00
H491   H     0.59500   0.08141   0.90387   0.00000  Uiso   1.00
H492   H     0.69465   0.99350   0.90661   0.00000  Uiso   1.00
H493   H     0.60354   0.18568   0.86380   0.00000  Uiso   1.00
H494   H     0.47981   0.05461   0.93355   0.00000  Uiso   1.00
H495   H     0.81619   0.91256   0.92168   0.00000  Uiso   1.00
H496   H     0.62404   0.31778   0.83142   0.00000  Uiso   1.00
H497   H     0.36313   0.04140   0.97850   0.00000  Uiso   1.00
O498   O     0.91971   0.91149   0.96489   0.00000  Uiso   1.00
O499   O     0.66761   0.44313   0.84648   0.00000  Uiso   1.00
O500   O     0.32531   0.08052   0.03944   0.00000  Uiso   1.00
N501   N     0.85821   0.00789   0.98208   0.00000  Uiso   1.00
N502   N     0.67857   0.38674   0.89770   0.00000  Uiso   1.00
N503   N     0.43463   0.12837   0.03520   0.00000  Uiso   1.00
N504   N     0.81901   0.94929   0.93931   0.00000  Uiso   1.00
N505   N     0.63938   0.32814   0.85493   0.00000  Uiso   1.00
N506   N     0.39544   0.06977   0.99243   0.00000  Uiso   1.00
C507   C     0.16059   0.67946   0.47543   0.00000  Uiso   1.00
C508   C     0.20547   0.61785   0.46682   0.00000  Uiso   1.00
C509   C     0.26504   0.59869   0.48339   0.00000  Uiso   1.00
C510   C     0.29874   0.54071   0.47167   0.00000  Uiso   1.00
C511   C     0.37225   0.45076   0.46244   0.00000  Uiso   1.00
C512   C     0.15597   0.72226   0.44356   0.00000  Uiso   1.00
C513   C     0.17392   0.79090   0.44058   0.00000  Uiso   1.00
C514   C     0.16594   0.82081   0.40928   0.00000  Uiso   1.00
C515   C     0.16255   0.89298   0.36394   0.00000  Uiso   1.00
C516   C     0.08875   0.65104   0.48146   0.00000  Uiso   1.00
C517   C     0.05017   0.65982   0.51034   0.00000  Uiso   1.00
C518   C     0.98558   0.62979   0.51094   0.00000  Uiso   1.00
C519   C     0.87782   0.59138   0.52445   0.00000  Uiso   1.00
C520   C     0.11450   0.61055   0.42514   0.00000  Uiso   1.00
C521   C     0.18043   0.58042   0.43950   0.00000  Uiso   1.00
C522   C     0.21404   0.52245   0.42775   0.00000  Uiso   1.00
C523   C     0.27365   0.50321   0.44430   0.00000  Uiso   1.00
C524   C     0.13094   0.68483   0.41624   0.00000  Uiso   1.00
C525   C     0.12292   0.71466   0.38494   0.00000  Uiso   1.00
C526   C     0.14085   0.78332   0.38191   0.00000  Uiso   1.00
C527   C     0.06371   0.61361   0.45414   0.00000  Uiso   1.00
C528   C     0.99917   0.58357   0.45469   0.00000  Uiso   1.00
C529   C     0.96049   0.59229   0.48357   0.00000  Uiso   1.00
H530   H     0.18009   0.70860   0.49670   0.00000  Uiso   1.00
H531   H     0.28441   0.62768   0.50453   0.00000  Uiso   1.00
H532   H     0.19329   0.81985   0.46173   0.00000  Uiso   1.00
H533   H     0.06956   0.68878   0.53147   0.00000  Uiso   1.00
H534   H     0.38903   0.52146   0.50116   0.00000  Uiso   1.00
H535   H     0.19689   0.92668   0.41090   0.00000  Uiso   1.00
H536   H     0.93598   0.65031   0.55798   0.00000  Uiso   1.00
H537   H     0.09500   0.58141   0.40387   0.00000  Uiso   1.00
H538   H     0.19465   0.49350   0.40661   0.00000  Uiso   1.00
H539   H     0.10354   0.68568   0.36380   0.00000  Uiso   1.00
H540   H     0.97981   0.55461   0.43355   0.00000  Uiso   1.00
H541   H     0.31619   0.41256   0.42168   0.00000  Uiso   1.00
H542   H     0.12404   0.81778   0.33142   0.00000  Uiso   1.00
H543   H     0.86313   0.54140   0.47850   0.00000  Uiso   1.00
O544   O     0.41971   0.41149   0.46489   0.00000  Uiso   1.00
O545   O     0.16761   0.94313   0.34648   0.00000  Uiso   1.00
O546   O     0.82531   0.58052   0.53944   0.00000  Uiso   1.00
N547   N     0.35821   0.50789   0.48208   0.00000  Uiso   1.00
N548   N     0.17857   0.88674   0.39770   0.00000  Uiso   1.00
N549   N     0.93463   0.62837   0.53520   0.00000  Uiso   1.00
N550   N     0.31901   0.44929   0.43931   0.00000  Uiso   1.00
N551   N     0.13938   0.82814   0.35493   0.00000  Uiso   1.00
N552   N     0.89544   0.56977   0.49243   0.00000  Uiso   1.00
C553   C     0.67946   0.83941   0.52457   0.00000  Uiso   1.00
C554   C     0.61785   0.79453   0.53318   0.00000  Uiso   1.00
C555   C     0.59869   0.73496   0.51661   0.00000  Uiso   1.00
C556   C     0.54071   0.70126   0.52833   0.00000  Uiso   1.00
C557   C     0.45076   0.62775   0.53756   0.00000  Uiso   1.00
C558   C     0.72226   0.84403   0.55644   0.00000  Uiso   1.00
C559   C     0.79090   0.82608   0.55942   0.00000  Uiso   1.00
C560   C     0.82081   0.83406   0.59072   0.00000  Uiso   1.00
C561   C     0.89298   0.83745   0.63606   0.00000  Uiso   1.00
C562   C     0.65104   0.91125   0.51854   0.00000  Uiso   1.00
C563   C     0.65982   0.94983   0.48966   0.00000  Uiso   1.00
C564   C     0.62979   0.01442   0.48906   0.00000  Uiso   1.00
C565   C     0.59138   0.12218   0.47555   0.00000  Uiso   1.00
C566   C     0.61055   0.88550   0.57486   0.00000  Uiso   1.00
C567   C     0.58042   0.81957   0.56050   0.00000  Uiso   1.00
C568   C     0.52245   0.78596   0.57225   0.00000  Uiso   1.00
C569   C     0.50321   0.72635   0.55570   0.00000  Uiso   1.00
C570   C     0.68483   0.86906   0.58376   0.00000  Uiso   1.00
C571   C     0.71466   0.87708   0.61506   0.00000  Uiso   1.00
C572   C     0.78332   0.85915   0.61809   0.00000  Uiso   1.00
C573   C     0.61361   0.93629   0.54586   0.00000  Uiso   1.00
C574   C     0.58357   0.00083   0.54531   0.00000  Uiso   1.00
C575   C     0.59229   0.03951   0.51643   0.00000  Uiso   1.00
H576   H     0.70860   0.81991   0.50330   0.00000  Uiso   1.00
H577   H     0.62768   0.71559   0.49547   0.00000  Uiso   1.00
H578   H     0.81985   0.80671   0.53827   0.00000  Uiso   1.00
H579   H     0.68878   0.93044   0.46853   0.00000  Uiso   1.00
H580   H     0.52146   0.61097   0.49884   0.00000  Uiso   1.00
H581   H     0.92668   0.80311   0.58910   0.00000  Uiso   1.00
H582   H     0.65031   0.06402   0.44202   0.00000  Uiso   1.00
H583   H     0.58141   0.90500   0.59613   0.00000  Uiso   1.00
H584   H     0.49350   0.80535   0.59339   0.00000  Uiso   1.00
H585   H     0.68568   0.89646   0.63620   0.00000  Uiso   1.00
H586   H     0.55461   0.02019   0.56645   0.00000  Uiso   1.00
H587   H     0.41256   0.68381   0.57832   0.00000  Uiso   1.00
H588   H     0.81778   0.87596   0.66858   0.00000  Uiso   1.00
H589   H     0.54140   0.13687   0.52150   0.00000  Uiso   1.00
O590   O     0.41149   0.58029   0.53511   0.00000  Uiso   1.00
O591   O     0.94313   0.83239   0.65352   0.00000  Uiso   1.00
O592   O     0.58052   0.17469   0.46056   0.00000  Uiso   1.00
N593   N     0.50789   0.64179   0.51792   0.00000  Uiso   1.00
N594   N     0.88674   0.82143   0.60230   0.00000  Uiso   1.00
N595   N     0.62837   0.06537   0.46480   0.00000  Uiso   1.00
N596   N     0.44929   0.68099   0.56069   0.00000  Uiso   1.00
N597   N     0.82814   0.86062   0.64507   0.00000  Uiso   1.00
N598   N     0.56977   0.10456   0.50757   0.00000  Uiso   1.00
C599   C     0.17946   0.33941   0.02457   0.00000  Uiso   1.00
C600   C     0.11785   0.29453   0.03318   0.00000  Uiso   1.00
C601   C     0.09869   0.23496   0.01661   0.00000  Uiso   1.00
C602   C     0.04071   0.20126   0.02833   0.00000  Uiso   1.00
C603   C     0.95076   0.12775   0.03756   0.00000  Uiso   1.00
C604   C     0.22226   0.34403   0.05644   0.00000  Uiso   1.00
C605   C     0.29090   0.32608   0.05942   0.00000  Uiso   1.00
C606   C     0.32081   0.33406   0.09072   0.00000  Uiso   1.00
C607   C     0.39298   0.33745   0.13606   0.00000  Uiso   1.00
C608   C     0.15104   0.41125   0.01854   0.00000  Uiso   1.00
C609   C     0.15982   0.44983   0.98966   0.00000  Uiso   1.00
C610   C     0.12979   0.51442   0.98906   0.00000  Uiso   1.00
C611   C     0.09138   0.62218   0.97555   0.00000  Uiso   1.00
C612   C     0.11055   0.38550   0.07486   0.00000  Uiso   1.00
C613   C     0.08042   0.31957   0.06050   0.00000  Uiso   1.00
C614   C     0.02245   0.28596   0.07225   0.00000  Uiso   1.00
C615   C     0.00321   0.22635   0.05570   0.00000  Uiso   1.00
C616   C     0.18483   0.36906   0.08376   0.00000  Uiso   1.00
C617   C     0.21466   0.37708   0.11506   0.00000  Uiso   1.00
C618   C     0.28332   0.35915   0.11809   0.00000  Uiso   1.00
C619   C     0.11361   0.43629   0.04586   0.00000  Uiso   1.00
C620   C     0.08357   0.50083   0.04531   0.00000  Uiso   1.00
C621   C     0.09229   0.53951   0.01643   0.00000  Uiso   1.00
H622   H     0.20860   0.31991   0.00330   0.00000  Uiso   1.00
H623   H     0.12768   0.21559   0.99547   0.00000  Uiso   1.00
H624   H     0.31985   0.30671   0.03827   0.00000  Uiso   1.00
H625   H     0.18878   0.43044   0.96853   0.00000  Uiso   1.00
H626   H     0.02146   0.11097   0.99884   0.00000  Uiso   1.00
H627   H     0.42668   0.30311   0.08910   0.00000  Uiso   1.00
H628   H     0.15031   0.56402   0.94202   0.00000  Uiso   1.00
H629   H     0.08141   0.40500   0.09613   0.00000  Uiso   1.00
H630   H     0.99350   0.30535   0.09339   0.00000  Uiso   1.00
H631   H     0.18568   0.39646   0.13620   0.00000  Uiso   1.00
H632   H     0.05461   0.52019   0.06645   0.00000  Uiso   1.00
H633   H     0.91256   0.18381   0.07832   0.00000  Uiso   1.00
H634   H     0.31778   0.37596   0.16858   0.00000  Uiso   1.00
H635   H     0.04140   0.63687   0.02150   0.00000  Uiso   1.00
O636   O     0.91149   0.08029   0.03511   0.00000  Uiso   1.00
O637   O     0.44313   0.33239   0.15352   0.00000  Uiso   1.00
O638   O     0.08052   0.67469   0.96056   0.00000  Uiso   1.00
N639   N     0.00789   0.14179   0.01792   0.00000  Uiso   1.00
N640   N     0.38674   0.32143   0.10230   0.00000  Uiso   1.00
N641   N     0.12837   0.56537   0.96480   0.00000  Uiso   1.00
N642   N     0.94929   0.18099   0.06069   0.00000  Uiso   1.00
N643   N     0.32814   0.36062   0.14507   0.00000  Uiso   1.00
N644   N     0.06977   0.60456   0.00757   0.00000  Uiso   1.00
C645   C     0.32054   0.16059   0.52457   0.00000  Uiso   1.00
C646   C     0.38215   0.20547   0.53318   0.00000  Uiso   1.00
C647   C     0.40131   0.26504   0.51661   0.00000  Uiso   1.00
C648   C     0.45929   0.29874   0.52833   0.00000  Uiso   1.00
C649   C     0.54924   0.37225   0.53756   0.00000  Uiso   1.00
C650   C     0.27774   0.15597   0.55644   0.00000  Uiso   1.00
C651   C     0.20910   0.17392   0.55942   0.00000  Uiso   1.00
C652   C     0.17919   0.16594   0.59072   0.00000  Uiso   1.00
C653   C     0.10702   0.16255   0.63606   0.00000  Uiso   1.00
C654   C     0.34896   0.08875   0.51854   0.00000  Uiso   1.00
C655   C     0.34018   0.05017   0.48966   0.00000  Uiso   1.00
C656   C     0.37021   0.98558   0.48906   0.00000  Uiso   1.00
C657   C     0.40862   0.87782   0.47555   0.00000  Uiso   1.00
C658   C     0.38945   0.11450   0.57486   0.00000  Uiso   1.00
C659   C     0.41958   0.18043   0.56050   0.00000  Uiso   1.00
C660   C     0.47755   0.21404   0.57225   0.00000  Uiso   1.00
C661   C     0.49679   0.27365   0.55570   0.00000  Uiso   1.00
C662   C     0.31517   0.13094   0.58376   0.00000  Uiso   1.00
C663   C     0.28534   0.12292   0.61506   0.00000  Uiso   1.00
C664   C     0.21668   0.14085   0.61809   0.00000  Uiso   1.00
C665   C     0.38639   0.06371   0.54586   0.00000  Uiso   1.00
C666   C     0.41643   0.99917   0.54531   0.00000  Uiso   1.00
C667   C     0.40771   0.96049   0.51643   0.00000  Uiso   1.00
H668   H     0.29140   0.18009   0.50330   0.00000  Uiso   1.00
H669   H     0.37232   0.28441   0.49547   0.00000  Uiso   1.00
H670   H     0.18015   0.19329   0.53827   0.00000  Uiso   1.00
H671   H     0.31122   0.06956   0.46853   0.00000  Uiso   1.00
H672   H     0.47854   0.38903   0.49884   0.00000  Uiso   1.00
H673   H     0.07332   0.19689   0.58910   0.00000  Uiso   1.00
H674   H     0.34969   0.93598   0.44202   0.00000  Uiso   1.00
H675   H     0.41859   0.09500   0.59613   0.00000  Uiso   1.00
H676   H     0.50650   0.19465   0.59339   0.00000  Uiso   1.00
H677   H     0.31432   0.10354   0.63620   0.00000  Uiso   1.00
H678   H     0.44539   0.97981   0.56645   0.00000  Uiso   1.00
H679   H     0.58744   0.31619   0.57832   0.00000  Uiso   1.00
H680   H     0.18222   0.12404   0.66858   0.00000  Uiso   1.00
H681   H     0.45860   0.86313   0.52150   0.00000  Uiso   1.00
O682   O     0.58851   0.41971   0.53511   0.00000  Uiso   1.00
O683   O     0.05687   0.16761   0.65352   0.00000  Uiso   1.00
O684   O     0.41948   0.82531   0.46056   0.00000  Uiso   1.00
N685   N     0.49211   0.35821   0.51792   0.00000  Uiso   1.00
N686   N     0.11326   0.17857   0.60230   0.00000  Uiso   1.00
N687   N     0.37163   0.93463   0.46480   0.00000  Uiso   1.00
N688   N     0.55071   0.31901   0.56069   0.00000  Uiso   1.00
N689   N     0.17186   0.13938   0.64507   0.00000  Uiso   1.00
N690   N     0.43023   0.89544   0.50757   0.00000  Uiso   1.00
C691   C     0.82054   0.66059   0.02457   0.00000  Uiso   1.00
C692   C     0.88215   0.70547   0.03318   0.00000  Uiso   1.00
C693   C     0.90131   0.76504   0.01661   0.00000  Uiso   1.00
C694   C     0.95929   0.79874   0.02833   0.00000  Uiso   1.00
C695   C     0.04924   0.87225   0.03756   0.00000  Uiso   1.00
C696   C     0.77774   0.65597   0.05644   0.00000  Uiso   1.00
C697   C     0.70910   0.67392   0.05942   0.00000  Uiso   1.00
C698   C     0.67919   0.66594   0.09072   0.00000  Uiso   1.00
C699   C     0.60702   0.66255   0.13606   0.00000  Uiso   1.00
C700   C     0.84896   0.58875   0.01854   0.00000  Uiso   1.00
C701   C     0.84018   0.55017   0.98966   0.00000  Uiso   1.00
C702   C     0.87021   0.48558   0.98906   0.00000  Uiso   1.00
C703   C     0.90862   0.37782   0.97555   0.00000  Uiso   1.00
C704   C     0.88945   0.61450   0.07486   0.00000  Uiso   1.00
C705   C     0.91958   0.68043   0.06050   0.00000  Uiso   1.00
C706   C     0.97755   0.71404   0.07225   0.00000  Uiso   1.00
C707   C     0.99679   0.77365   0.05570   0.00000  Uiso   1.00
C708   C     0.81517   0.63094   0.08376   0.00000  Uiso   1.00
C709   C     0.78534   0.62292   0.11506   0.00000  Uiso   1.00
C710   C     0.71668   0.64085   0.11809   0.00000  Uiso   1.00
C711   C     0.88639   0.56371   0.04586   0.00000  Uiso   1.00
C712   C     0.91643   0.49917   0.04531   0.00000  Uiso   1.00
C713   C     0.90771   0.46049   0.01643   0.00000  Uiso   1.00
H714   H     0.79140   0.68009   0.00330   0.00000  Uiso   1.00
H715   H     0.87232   0.78441   0.99547   0.00000  Uiso   1.00
H716   H     0.68015   0.69329   0.03827   0.00000  Uiso   1.00
H717   H     0.81122   0.56956   0.96853   0.00000  Uiso   1.00
H718   H     0.97854   0.88903   0.99884   0.00000  Uiso   1.00
H719   H     0.57332   0.69689   0.08910   0.00000  Uiso   1.00
H720   H     0.84969   0.43598   0.94202   0.00000  Uiso   1.00
H721   H     0.91859   0.59500   0.09613   0.00000  Uiso   1.00
H722   H     0.00650   0.69465   0.09339   0.00000  Uiso   1.00
H723   H     0.81432   0.60354   0.13620   0.00000  Uiso   1.00
H724   H     0.94539   0.47981   0.06645   0.00000  Uiso   1.00
H725   H     0.08744   0.81619   0.07832   0.00000  Uiso   1.00
H726   H     0.68222   0.62404   0.16858   0.00000  Uiso   1.00
H727   H     0.95860   0.36313   0.02150   0.00000  Uiso   1.00
O728   O     0.08851   0.91971   0.03511   0.00000  Uiso   1.00
O729   O     0.55687   0.66761   0.15352   0.00000  Uiso   1.00
O730   O     0.91948   0.32531   0.96056   0.00000  Uiso   1.00
N731   N     0.99211   0.85821   0.01792   0.00000  Uiso   1.00
N732   N     0.61326   0.67857   0.10230   0.00000  Uiso   1.00
N733   N     0.87163   0.43463   0.96480   0.00000  Uiso   1.00
N734   N     0.05071   0.81901   0.06069   0.00000  Uiso   1.00
N735   N     0.67186   0.63938   0.14507   0.00000  Uiso   1.00
N736   N     0.93023   0.39544   0.00757   0.00000  Uiso   1.00
