data_job_03559
_audit_creation_date              2018-12-19
_audit_creation_method            'Materials Studio'
_symmetry_space_group_name_H-M    'P1'
_symmetry_Int_Tables_number       1
_symmetry_cell_setting            triclinic
loop_
_symmetry_equiv_pos_as_xyz
  x,y,z
_cell_length_a                    29.3529
_cell_length_b                    12.7755
_cell_length_c                    37.7350
_cell_angle_alpha                 90.0000
_cell_angle_beta                  90.0000
_cell_angle_gamma                 90.0000
loop_
_atom_site_label
_atom_site_type_symbol
_atom_site_fract_x
_atom_site_fract_y
_atom_site_fract_z
_atom_site_U_iso_or_equiv
_atom_site_adp_type
_atom_site_occupancy
C1     C     0.08886   0.71066   0.14157   0.00000  Uiso   1.00
C2     C     0.11847   0.70857   0.17476   0.00000  Uiso   1.00
C3     C     0.14937   0.63069   0.18367   0.00000  Uiso   1.00
C4     C     0.17317   0.64319   0.21518   0.00000  Uiso   1.00
C5     C     0.22018   0.62665   0.26342   0.00000  Uiso   1.00
C6     C     0.03981   0.71987   0.15452   0.00000  Uiso   1.00
C7     C     0.00458   0.65151   0.14639   0.00000  Uiso   1.00
C8     C     0.96216   0.67354   0.16086   0.00000  Uiso   1.00
C9     C     0.88704   0.67459   0.17764   0.00000  Uiso   1.00
C10    C     0.09959   0.81365   0.12292   0.00000  Uiso   1.00
C11    C     0.11461   0.82413   0.08823   0.00000  Uiso   1.00
C12    C     0.12251   0.92511   0.07610   0.00000  Uiso   1.00
C13    C     0.14020   0.07176   0.04383   0.00000  Uiso   1.00
C14    C     0.07616   0.87136   0.18170   0.00000  Uiso   1.00
C15    C     0.11157   0.79586   0.19656   0.00000  Uiso   1.00
C16    C     0.13532   0.80849   0.22807   0.00000  Uiso   1.00
C17    C     0.16626   0.73064   0.23702   0.00000  Uiso   1.00
C18    C     0.03291   0.80716   0.17632   0.00000  Uiso   1.00
C19    C     0.99053   0.82930   0.19080   0.00000  Uiso   1.00
C20    C     0.95525   0.76098   0.18270   0.00000  Uiso   1.00
C21    C     0.09269   0.90093   0.14472   0.00000  Uiso   1.00
C22    C     0.10056   0.00192   0.13264   0.00000  Uiso   1.00
C23    C     0.11559   0.01256   0.09794   0.00000  Uiso   1.00
H24    H     0.09422   0.64270   0.12459   0.00000  Uiso   1.00
H25    H     0.15470   0.56314   0.16679   0.00000  Uiso   1.00
H26    H     0.00993   0.58397   0.12952   0.00000  Uiso   1.00
H27    H     0.11994   0.75656   0.07137   0.00000  Uiso   1.00
H28    H     0.21869   0.51342   0.22320   0.00000  Uiso   1.00
H29    H     0.91343   0.55735   0.14459   0.00000  Uiso   1.00
H30    H     0.14542   0.92129   0.02198   0.00000  Uiso   1.00
H31    H     0.07078   0.93932   0.19867   0.00000  Uiso   1.00
H32    H     0.12998   0.87604   0.24494   0.00000  Uiso   1.00
H33    H     0.98520   0.89686   0.20766   0.00000  Uiso   1.00
H34    H     0.09522   0.06945   0.14952   0.00000  Uiso   1.00
H35    H     0.19863   0.76737   0.28662   0.00000  Uiso   1.00
H36    H     0.89336   0.81130   0.20802   0.00000  Uiso   1.00
H37    H     0.12535   0.17525   0.08540   0.00000  Uiso   1.00
O38    O     0.24801   0.59340   0.28401   0.00000  Uiso   1.00
O39    O     0.84752   0.65104   0.18088   0.00000  Uiso   1.00
O40    O     0.15188   0.12853   0.02001   0.00000  Uiso   1.00
N41    N     0.20585   0.58188   0.23177   0.00000  Uiso   1.00
N42    N     0.92045   0.62294   0.15829   0.00000  Uiso   1.00
N43    N     0.13733   0.96320   0.04365   0.00000  Uiso   1.00
N44    N     0.19506   0.71853   0.26590   0.00000  Uiso   1.00
N45    N     0.90966   0.75959   0.19242   0.00000  Uiso   1.00
N46    N     0.12653   0.09985   0.07778   0.00000  Uiso   1.00
C47    C     0.58886   0.21066   0.14157   0.00000  Uiso   1.00
C48    C     0.61847   0.20857   0.17476   0.00000  Uiso   1.00
C49    C     0.64937   0.13069   0.18367   0.00000  Uiso   1.00
C50    C     0.67317   0.14319   0.21518   0.00000  Uiso   1.00
C51    C     0.72018   0.12665   0.26342   0.00000  Uiso   1.00
C52    C     0.53981   0.21987   0.15452   0.00000  Uiso   1.00
C53    C     0.50458   0.15151   0.14639   0.00000  Uiso   1.00
C54    C     0.46216   0.17354   0.16086   0.00000  Uiso   1.00
C55    C     0.38704   0.17459   0.17764   0.00000  Uiso   1.00
C56    C     0.59959   0.31365   0.12292   0.00000  Uiso   1.00
C57    C     0.61461   0.32413   0.08823   0.00000  Uiso   1.00
C58    C     0.62251   0.42511   0.07610   0.00000  Uiso   1.00
C59    C     0.64020   0.57176   0.04383   0.00000  Uiso   1.00
C60    C     0.57616   0.37136   0.18170   0.00000  Uiso   1.00
C61    C     0.61157   0.29586   0.19656   0.00000  Uiso   1.00
C62    C     0.63532   0.30849   0.22807   0.00000  Uiso   1.00
C63    C     0.66626   0.23064   0.23702   0.00000  Uiso   1.00
C64    C     0.53291   0.30716   0.17632   0.00000  Uiso   1.00
C65    C     0.49053   0.32930   0.19080   0.00000  Uiso   1.00
C66    C     0.45525   0.26098   0.18270   0.00000  Uiso   1.00
C67    C     0.59269   0.40093   0.14472   0.00000  Uiso   1.00
C68    C     0.60056   0.50192   0.13264   0.00000  Uiso   1.00
C69    C     0.61559   0.51256   0.09794   0.00000  Uiso   1.00
H70    H     0.59422   0.14270   0.12459   0.00000  Uiso   1.00
H71    H     0.65470   0.06314   0.16679   0.00000  Uiso   1.00
H72    H     0.50993   0.08397   0.12952   0.00000  Uiso   1.00
H73    H     0.61994   0.25656   0.07137   0.00000  Uiso   1.00
H74    H     0.71869   0.01342   0.22320   0.00000  Uiso   1.00
H75    H     0.41343   0.05735   0.14459   0.00000  Uiso   1.00
H76    H     0.64542   0.42129   0.02198   0.00000  Uiso   1.00
H77    H     0.57078   0.43932   0.19867   0.00000  Uiso   1.00
H78    H     0.62998   0.37604   0.24494   0.00000  Uiso   1.00
H79    H     0.48520   0.39686   0.20766   0.00000  Uiso   1.00
H80    H     0.59522   0.56945   0.14952   0.00000  Uiso   1.00
H81    H     0.69863   0.26737   0.28662   0.00000  Uiso   1.00
H82    H     0.39336   0.31130   0.20802   0.00000  Uiso   1.00
H83    H     0.62535   0.67525   0.08540   0.00000  Uiso   1.00
O84    O     0.74801   0.09340   0.28401   0.00000  Uiso   1.00
O85    O     0.34752   0.15104   0.18088   0.00000  Uiso   1.00
O86    O     0.65188   0.62853   0.02001   0.00000  Uiso   1.00
N87    N     0.70585   0.08188   0.23177   0.00000  Uiso   1.00
N88    N     0.42045   0.12294   0.15829   0.00000  Uiso   1.00
N89    N     0.63733   0.46320   0.04365   0.00000  Uiso   1.00
N90    N     0.69506   0.21853   0.26590   0.00000  Uiso   1.00
N91    N     0.40966   0.25959   0.19242   0.00000  Uiso   1.00
N92    N     0.62653   0.59985   0.07778   0.00000  Uiso   1.00
C93    C     0.41114   0.78934   0.14157   0.00000  Uiso   1.00
C94    C     0.38153   0.79143   0.17476   0.00000  Uiso   1.00
C95    C     0.35063   0.86931   0.18367   0.00000  Uiso   1.00
C96    C     0.32683   0.85681   0.21518   0.00000  Uiso   1.00
C97    C     0.27982   0.87335   0.26342   0.00000  Uiso   1.00
C98    C     0.46019   0.78013   0.15452   0.00000  Uiso   1.00
C99    C     0.49542   0.84849   0.14639   0.00000  Uiso   1.00
C100   C     0.53784   0.82646   0.16086   0.00000  Uiso   1.00
C101   C     0.61296   0.82541   0.17764   0.00000  Uiso   1.00
C102   C     0.40041   0.68635   0.12292   0.00000  Uiso   1.00
C103   C     0.38539   0.67587   0.08823   0.00000  Uiso   1.00
C104   C     0.37749   0.57489   0.07610   0.00000  Uiso   1.00
C105   C     0.35980   0.42824   0.04383   0.00000  Uiso   1.00
C106   C     0.42384   0.62864   0.18170   0.00000  Uiso   1.00
C107   C     0.38843   0.70414   0.19656   0.00000  Uiso   1.00
C108   C     0.36468   0.69151   0.22807   0.00000  Uiso   1.00
C109   C     0.33374   0.76936   0.23702   0.00000  Uiso   1.00
C110   C     0.46709   0.69284   0.17632   0.00000  Uiso   1.00
C111   C     0.50947   0.67070   0.19080   0.00000  Uiso   1.00
C112   C     0.54475   0.73902   0.18270   0.00000  Uiso   1.00
C113   C     0.40731   0.59907   0.14472   0.00000  Uiso   1.00
C114   C     0.39944   0.49808   0.13264   0.00000  Uiso   1.00
C115   C     0.38441   0.48744   0.09794   0.00000  Uiso   1.00
H116   H     0.40578   0.85730   0.12459   0.00000  Uiso   1.00
H117   H     0.34530   0.93686   0.16679   0.00000  Uiso   1.00
H118   H     0.49007   0.91603   0.12952   0.00000  Uiso   1.00
H119   H     0.38006   0.74344   0.07137   0.00000  Uiso   1.00
H120   H     0.28131   0.98658   0.22320   0.00000  Uiso   1.00
H121   H     0.58657   0.94265   0.14459   0.00000  Uiso   1.00
H122   H     0.35458   0.57871   0.02198   0.00000  Uiso   1.00
H123   H     0.42922   0.56068   0.19867   0.00000  Uiso   1.00
H124   H     0.37002   0.62396   0.24494   0.00000  Uiso   1.00
H125   H     0.51480   0.60314   0.20766   0.00000  Uiso   1.00
H126   H     0.40478   0.43055   0.14952   0.00000  Uiso   1.00
H127   H     0.30137   0.73263   0.28662   0.00000  Uiso   1.00
H128   H     0.60664   0.68870   0.20802   0.00000  Uiso   1.00
H129   H     0.37465   0.32475   0.08540   0.00000  Uiso   1.00
O130   O     0.25199   0.90660   0.28401   0.00000  Uiso   1.00
O131   O     0.65248   0.84896   0.18088   0.00000  Uiso   1.00
O132   O     0.34812   0.37147   0.02001   0.00000  Uiso   1.00
N133   N     0.29415   0.91812   0.23177   0.00000  Uiso   1.00
N134   N     0.57955   0.87706   0.15829   0.00000  Uiso   1.00
N135   N     0.36267   0.53680   0.04365   0.00000  Uiso   1.00
N136   N     0.30494   0.78147   0.26590   0.00000  Uiso   1.00
N137   N     0.59034   0.74041   0.19242   0.00000  Uiso   1.00
N138   N     0.37347   0.40015   0.07778   0.00000  Uiso   1.00
C139   C     0.91114   0.28934   0.14157   0.00000  Uiso   1.00
C140   C     0.88153   0.29143   0.17476   0.00000  Uiso   1.00
C141   C     0.85063   0.36931   0.18367   0.00000  Uiso   1.00
C142   C     0.82683   0.35681   0.21518   0.00000  Uiso   1.00
C143   C     0.77982   0.37335   0.26342   0.00000  Uiso   1.00
C144   C     0.96019   0.28013   0.15452   0.00000  Uiso   1.00
C145   C     0.99542   0.34849   0.14639   0.00000  Uiso   1.00
C146   C     0.03784   0.32646   0.16086   0.00000  Uiso   1.00
C147   C     0.11296   0.32541   0.17764   0.00000  Uiso   1.00
C148   C     0.90041   0.18635   0.12292   0.00000  Uiso   1.00
C149   C     0.88539   0.17587   0.08823   0.00000  Uiso   1.00
C150   C     0.87749   0.07489   0.07610   0.00000  Uiso   1.00
C151   C     0.85980   0.92824   0.04383   0.00000  Uiso   1.00
C152   C     0.92384   0.12864   0.18170   0.00000  Uiso   1.00
C153   C     0.88843   0.20414   0.19656   0.00000  Uiso   1.00
C154   C     0.86468   0.19151   0.22807   0.00000  Uiso   1.00
C155   C     0.83374   0.26936   0.23702   0.00000  Uiso   1.00
C156   C     0.96709   0.19284   0.17632   0.00000  Uiso   1.00
C157   C     0.00947   0.17070   0.19080   0.00000  Uiso   1.00
C158   C     0.04475   0.23902   0.18270   0.00000  Uiso   1.00
C159   C     0.90731   0.09907   0.14472   0.00000  Uiso   1.00
C160   C     0.89944   0.99808   0.13264   0.00000  Uiso   1.00
C161   C     0.88441   0.98744   0.09794   0.00000  Uiso   1.00
H162   H     0.90578   0.35730   0.12459   0.00000  Uiso   1.00
H163   H     0.84530   0.43686   0.16679   0.00000  Uiso   1.00
H164   H     0.99007   0.41603   0.12952   0.00000  Uiso   1.00
H165   H     0.88006   0.24344   0.07137   0.00000  Uiso   1.00
H166   H     0.78131   0.48658   0.22320   0.00000  Uiso   1.00
H167   H     0.08657   0.44265   0.14459   0.00000  Uiso   1.00
H168   H     0.85458   0.07871   0.02198   0.00000  Uiso   1.00
H169   H     0.92922   0.06068   0.19867   0.00000  Uiso   1.00
H170   H     0.87002   0.12396   0.24494   0.00000  Uiso   1.00
H171   H     0.01480   0.10314   0.20766   0.00000  Uiso   1.00
H172   H     0.90478   0.93055   0.14952   0.00000  Uiso   1.00
H173   H     0.80137   0.23263   0.28662   0.00000  Uiso   1.00
H174   H     0.10664   0.18870   0.20802   0.00000  Uiso   1.00
H175   H     0.87465   0.82475   0.08540   0.00000  Uiso   1.00
O176   O     0.75199   0.40660   0.28401   0.00000  Uiso   1.00
O177   O     0.15248   0.34896   0.18088   0.00000  Uiso   1.00
O178   O     0.84812   0.87147   0.02001   0.00000  Uiso   1.00
N179   N     0.79415   0.41812   0.23177   0.00000  Uiso   1.00
N180   N     0.07955   0.37706   0.15829   0.00000  Uiso   1.00
N181   N     0.86267   0.03680   0.04365   0.00000  Uiso   1.00
N182   N     0.80494   0.28147   0.26590   0.00000  Uiso   1.00
N183   N     0.09034   0.24041   0.19242   0.00000  Uiso   1.00
N184   N     0.87347   0.90015   0.07778   0.00000  Uiso   1.00
C185   C     0.91114   0.71066   0.85843   0.00000  Uiso   1.00
C186   C     0.88153   0.70857   0.82524   0.00000  Uiso   1.00
C187   C     0.85063   0.63069   0.81633   0.00000  Uiso   1.00
C188   C     0.82683   0.64319   0.78482   0.00000  Uiso   1.00
C189   C     0.77982   0.62665   0.73658   0.00000  Uiso   1.00
C190   C     0.96019   0.71987   0.84548   0.00000  Uiso   1.00
C191   C     0.99542   0.65151   0.85361   0.00000  Uiso   1.00
C192   C     0.03784   0.67354   0.83914   0.00000  Uiso   1.00
C193   C     0.11296   0.67459   0.82236   0.00000  Uiso   1.00
C194   C     0.90041   0.81365   0.87708   0.00000  Uiso   1.00
C195   C     0.88539   0.82413   0.91177   0.00000  Uiso   1.00
C196   C     0.87749   0.92511   0.92390   0.00000  Uiso   1.00
C197   C     0.85980   0.07176   0.95617   0.00000  Uiso   1.00
C198   C     0.92384   0.87136   0.81830   0.00000  Uiso   1.00
C199   C     0.88843   0.79586   0.80344   0.00000  Uiso   1.00
C200   C     0.86468   0.80849   0.77193   0.00000  Uiso   1.00
C201   C     0.83374   0.73064   0.76298   0.00000  Uiso   1.00
C202   C     0.96709   0.80716   0.82368   0.00000  Uiso   1.00
C203   C     0.00947   0.82930   0.80920   0.00000  Uiso   1.00
C204   C     0.04475   0.76098   0.81730   0.00000  Uiso   1.00
C205   C     0.90731   0.90093   0.85528   0.00000  Uiso   1.00
C206   C     0.89944   0.00192   0.86736   0.00000  Uiso   1.00
C207   C     0.88441   0.01256   0.90206   0.00000  Uiso   1.00
H208   H     0.90578   0.64270   0.87541   0.00000  Uiso   1.00
H209   H     0.84530   0.56314   0.83321   0.00000  Uiso   1.00
H210   H     0.99007   0.58397   0.87048   0.00000  Uiso   1.00
H211   H     0.88006   0.75656   0.92863   0.00000  Uiso   1.00
H212   H     0.78131   0.51342   0.77680   0.00000  Uiso   1.00
H213   H     0.08657   0.55735   0.85541   0.00000  Uiso   1.00
H214   H     0.85458   0.92129   0.97802   0.00000  Uiso   1.00
H215   H     0.92922   0.93932   0.80133   0.00000  Uiso   1.00
H216   H     0.87002   0.87604   0.75506   0.00000  Uiso   1.00
H217   H     0.01480   0.89686   0.79234   0.00000  Uiso   1.00
H218   H     0.90478   0.06945   0.85048   0.00000  Uiso   1.00
H219   H     0.80137   0.76737   0.71338   0.00000  Uiso   1.00
H220   H     0.10664   0.81130   0.79198   0.00000  Uiso   1.00
H221   H     0.87465   0.17525   0.91460   0.00000  Uiso   1.00
O222   O     0.75199   0.59340   0.71599   0.00000  Uiso   1.00
O223   O     0.15248   0.65104   0.81912   0.00000  Uiso   1.00
O224   O     0.84812   0.12853   0.97999   0.00000  Uiso   1.00
N225   N     0.79415   0.58188   0.76823   0.00000  Uiso   1.00
N226   N     0.07955   0.62294   0.84171   0.00000  Uiso   1.00
N227   N     0.86267   0.96320   0.95635   0.00000  Uiso   1.00
N228   N     0.80494   0.71853   0.73410   0.00000  Uiso   1.00
N229   N     0.09034   0.75959   0.80758   0.00000  Uiso   1.00
N230   N     0.87347   0.09985   0.92222   0.00000  Uiso   1.00
C231   C     0.41114   0.21066   0.85843   0.00000  Uiso   1.00
C232   C     0.38153   0.20857   0.82524   0.00000  Uiso   1.00
C233   C     0.35063   0.13069   0.81633   0.00000  Uiso   1.00
C234   C     0.32683   0.14319   0.78482   0.00000  Uiso   1.00
C235   C     0.27982   0.12665   0.73658   0.00000  Uiso   1.00
C236   C     0.46019   0.21987   0.84548   0.00000  Uiso   1.00
C237   C     0.49542   0.15151   0.85361   0.00000  Uiso   1.00
C238   C     0.53784   0.17354   0.83914   0.00000  Uiso   1.00
C239   C     0.61296   0.17459   0.82236   0.00000  Uiso   1.00
C240   C     0.40041   0.31365   0.87708   0.00000  Uiso   1.00
C241   C     0.38539   0.32413   0.91177   0.00000  Uiso   1.00
C242   C     0.37749   0.42511   0.92390   0.00000  Uiso   1.00
C243   C     0.35980   0.57176   0.95617   0.00000  Uiso   1.00
C244   C     0.42384   0.37136   0.81830   0.00000  Uiso   1.00
C245   C     0.38843   0.29586   0.80344   0.00000  Uiso   1.00
C246   C     0.36468   0.30849   0.77193   0.00000  Uiso   1.00
C247   C     0.33374   0.23064   0.76298   0.00000  Uiso   1.00
C248   C     0.46709   0.30716   0.82368   0.00000  Uiso   1.00
C249   C     0.50947   0.32930   0.80920   0.00000  Uiso   1.00
C250   C     0.54475   0.26098   0.81730   0.00000  Uiso   1.00
C251   C     0.40731   0.40093   0.85528   0.00000  Uiso   1.00
C252   C     0.39944   0.50192   0.86736   0.00000  Uiso   1.00
C253   C     0.38441   0.51256   0.90206   0.00000  Uiso   1.00
H254   H     0.40578   0.14270   0.87541   0.00000  Uiso   1.00
H255   H     0.34530   0.06314   0.83321   0.00000  Uiso   1.00
H256   H     0.49007   0.08397   0.87048   0.00000  Uiso   1.00
H257   H     0.38006   0.25656   0.92863   0.00000  Uiso   1.00
H258   H     0.28131   0.01342   0.77680   0.00000  Uiso   1.00
H259   H     0.58657   0.05735   0.85541   0.00000  Uiso   1.00
H260   H     0.35458   0.42129   0.97802   0.00000  Uiso   1.00
H261   H     0.42922   0.43932   0.80133   0.00000  Uiso   1.00
H262   H     0.37002   0.37604   0.75506   0.00000  Uiso   1.00
H263   H     0.51480   0.39686   0.79234   0.00000  Uiso   1.00
H264   H     0.40478   0.56945   0.85048   0.00000  Uiso   1.00
H265   H     0.30137   0.26737   0.71338   0.00000  Uiso   1.00
H266   H     0.60664   0.31130   0.79198   0.00000  Uiso   1.00
H267   H     0.37465   0.67525   0.91460   0.00000  Uiso   1.00
O268   O     0.25199   0.09340   0.71599   0.00000  Uiso   1.00
O269   O     0.65248   0.15104   0.81912   0.00000  Uiso   1.00
O270   O     0.34812   0.62853   0.97999   0.00000  Uiso   1.00
N271   N     0.29415   0.08188   0.76823   0.00000  Uiso   1.00
N272   N     0.57955   0.12294   0.84171   0.00000  Uiso   1.00
N273   N     0.36267   0.46320   0.95635   0.00000  Uiso   1.00
N274   N     0.30494   0.21853   0.73410   0.00000  Uiso   1.00
N275   N     0.59034   0.25959   0.80758   0.00000  Uiso   1.00
N276   N     0.37347   0.59985   0.92222   0.00000  Uiso   1.00
C277   C     0.58886   0.78934   0.85843   0.00000  Uiso   1.00
C278   C     0.61847   0.79143   0.82524   0.00000  Uiso   1.00
C279   C     0.64937   0.86931   0.81633   0.00000  Uiso   1.00
C280   C     0.67317   0.85681   0.78482   0.00000  Uiso   1.00
C281   C     0.72018   0.87335   0.73658   0.00000  Uiso   1.00
C282   C     0.53981   0.78013   0.84548   0.00000  Uiso   1.00
C283   C     0.50458   0.84849   0.85361   0.00000  Uiso   1.00
C284   C     0.46216   0.82646   0.83914   0.00000  Uiso   1.00
C285   C     0.38704   0.82541   0.82236   0.00000  Uiso   1.00
C286   C     0.59959   0.68635   0.87708   0.00000  Uiso   1.00
C287   C     0.61461   0.67587   0.91177   0.00000  Uiso   1.00
C288   C     0.62251   0.57489   0.92390   0.00000  Uiso   1.00
C289   C     0.64020   0.42824   0.95617   0.00000  Uiso   1.00
C290   C     0.57616   0.62864   0.81830   0.00000  Uiso   1.00
C291   C     0.61157   0.70414   0.80344   0.00000  Uiso   1.00
C292   C     0.63532   0.69151   0.77193   0.00000  Uiso   1.00
C293   C     0.66626   0.76936   0.76298   0.00000  Uiso   1.00
C294   C     0.53291   0.69284   0.82368   0.00000  Uiso   1.00
C295   C     0.49053   0.67070   0.80920   0.00000  Uiso   1.00
C296   C     0.45525   0.73902   0.81730   0.00000  Uiso   1.00
C297   C     0.59269   0.59907   0.85528   0.00000  Uiso   1.00
C298   C     0.60056   0.49808   0.86736   0.00000  Uiso   1.00
C299   C     0.61559   0.48744   0.90206   0.00000  Uiso   1.00
H300   H     0.59422   0.85730   0.87541   0.00000  Uiso   1.00
H301   H     0.65470   0.93686   0.83321   0.00000  Uiso   1.00
H302   H     0.50993   0.91603   0.87048   0.00000  Uiso   1.00
H303   H     0.61994   0.74344   0.92863   0.00000  Uiso   1.00
H304   H     0.71869   0.98658   0.77680   0.00000  Uiso   1.00
H305   H     0.41343   0.94265   0.85541   0.00000  Uiso   1.00
H306   H     0.64542   0.57871   0.97802   0.00000  Uiso   1.00
H307   H     0.57078   0.56068   0.80133   0.00000  Uiso   1.00
H308   H     0.62998   0.62396   0.75506   0.00000  Uiso   1.00
H309   H     0.48520   0.60314   0.79234   0.00000  Uiso   1.00
H310   H     0.59522   0.43055   0.85048   0.00000  Uiso   1.00
H311   H     0.69863   0.73263   0.71338   0.00000  Uiso   1.00
H312   H     0.39336   0.68870   0.79198   0.00000  Uiso   1.00
H313   H     0.62535   0.32475   0.91460   0.00000  Uiso   1.00
O314   O     0.74801   0.90660   0.71599   0.00000  Uiso   1.00
O315   O     0.34752   0.84896   0.81912   0.00000  Uiso   1.00
O316   O     0.65188   0.37147   0.97999   0.00000  Uiso   1.00
N317   N     0.70585   0.91812   0.76823   0.00000  Uiso   1.00
N318   N     0.42045   0.87706   0.84171   0.00000  Uiso   1.00
N319   N     0.63733   0.53680   0.95635   0.00000  Uiso   1.00
N320   N     0.69506   0.78147   0.73410   0.00000  Uiso   1.00
N321   N     0.40966   0.74041   0.80758   0.00000  Uiso   1.00
N322   N     0.62653   0.40015   0.92222   0.00000  Uiso   1.00
C323   C     0.08886   0.28934   0.85843   0.00000  Uiso   1.00
C324   C     0.11847   0.29143   0.82524   0.00000  Uiso   1.00
C325   C     0.14937   0.36931   0.81633   0.00000  Uiso   1.00
C326   C     0.17317   0.35681   0.78482   0.00000  Uiso   1.00
C327   C     0.22018   0.37335   0.73658   0.00000  Uiso   1.00
C328   C     0.03981   0.28013   0.84548   0.00000  Uiso   1.00
C329   C     0.00458   0.34849   0.85361   0.00000  Uiso   1.00
C330   C     0.96216   0.32646   0.83914   0.00000  Uiso   1.00
C331   C     0.88704   0.32541   0.82236   0.00000  Uiso   1.00
C332   C     0.09959   0.18635   0.87708   0.00000  Uiso   1.00
C333   C     0.11461   0.17587   0.91177   0.00000  Uiso   1.00
C334   C     0.12251   0.07489   0.92390   0.00000  Uiso   1.00
C335   C     0.14020   0.92824   0.95617   0.00000  Uiso   1.00
C336   C     0.07616   0.12864   0.81830   0.00000  Uiso   1.00
C337   C     0.11157   0.20414   0.80344   0.00000  Uiso   1.00
C338   C     0.13532   0.19151   0.77193   0.00000  Uiso   1.00
C339   C     0.16626   0.26936   0.76298   0.00000  Uiso   1.00
C340   C     0.03291   0.19284   0.82368   0.00000  Uiso   1.00
C341   C     0.99053   0.17070   0.80920   0.00000  Uiso   1.00
C342   C     0.95525   0.23902   0.81730   0.00000  Uiso   1.00
C343   C     0.09269   0.09907   0.85528   0.00000  Uiso   1.00
C344   C     0.10056   0.99808   0.86736   0.00000  Uiso   1.00
C345   C     0.11559   0.98744   0.90206   0.00000  Uiso   1.00
H346   H     0.09422   0.35730   0.87541   0.00000  Uiso   1.00
H347   H     0.15470   0.43686   0.83321   0.00000  Uiso   1.00
H348   H     0.00993   0.41603   0.87048   0.00000  Uiso   1.00
H349   H     0.11994   0.24344   0.92863   0.00000  Uiso   1.00
H350   H     0.21869   0.48658   0.77680   0.00000  Uiso   1.00
H351   H     0.91343   0.44265   0.85541   0.00000  Uiso   1.00
H352   H     0.14542   0.07871   0.97802   0.00000  Uiso   1.00
H353   H     0.07078   0.06068   0.80133   0.00000  Uiso   1.00
H354   H     0.12998   0.12396   0.75506   0.00000  Uiso   1.00
H355   H     0.98520   0.10314   0.79234   0.00000  Uiso   1.00
H356   H     0.09522   0.93055   0.85048   0.00000  Uiso   1.00
H357   H     0.19863   0.23263   0.71338   0.00000  Uiso   1.00
H358   H     0.89336   0.18870   0.79198   0.00000  Uiso   1.00
H359   H     0.12535   0.82475   0.91460   0.00000  Uiso   1.00
O360   O     0.24801   0.40660   0.71599   0.00000  Uiso   1.00
O361   O     0.84752   0.34896   0.81912   0.00000  Uiso   1.00
O362   O     0.15188   0.87147   0.97999   0.00000  Uiso   1.00
N363   N     0.20585   0.41812   0.76823   0.00000  Uiso   1.00
N364   N     0.92045   0.37706   0.84171   0.00000  Uiso   1.00
N365   N     0.13733   0.03680   0.95635   0.00000  Uiso   1.00
N366   N     0.19506   0.28147   0.73410   0.00000  Uiso   1.00
N367   N     0.90966   0.24041   0.80758   0.00000  Uiso   1.00
N368   N     0.12653   0.90015   0.92222   0.00000  Uiso   1.00
C369   C     0.91114   0.78934   0.35843   0.00000  Uiso   1.00
C370   C     0.88153   0.79143   0.32524   0.00000  Uiso   1.00
C371   C     0.85063   0.86931   0.31633   0.00000  Uiso   1.00
C372   C     0.82683   0.85681   0.28482   0.00000  Uiso   1.00
C373   C     0.77982   0.87335   0.23658   0.00000  Uiso   1.00
C374   C     0.96019   0.78013   0.34548   0.00000  Uiso   1.00
C375   C     0.99542   0.84849   0.35361   0.00000  Uiso   1.00
C376   C     0.03784   0.82646   0.33914   0.00000  Uiso   1.00
C377   C     0.11296   0.82541   0.32236   0.00000  Uiso   1.00
C378   C     0.90041   0.68635   0.37708   0.00000  Uiso   1.00
C379   C     0.88539   0.67587   0.41177   0.00000  Uiso   1.00
C380   C     0.87749   0.57489   0.42390   0.00000  Uiso   1.00
C381   C     0.85980   0.42824   0.45617   0.00000  Uiso   1.00
C382   C     0.92384   0.62864   0.31830   0.00000  Uiso   1.00
C383   C     0.88843   0.70414   0.30344   0.00000  Uiso   1.00
C384   C     0.86468   0.69151   0.27193   0.00000  Uiso   1.00
C385   C     0.83374   0.76936   0.26298   0.00000  Uiso   1.00
C386   C     0.96709   0.69284   0.32368   0.00000  Uiso   1.00
C387   C     0.00947   0.67070   0.30920   0.00000  Uiso   1.00
C388   C     0.04475   0.73902   0.31730   0.00000  Uiso   1.00
C389   C     0.90731   0.59907   0.35528   0.00000  Uiso   1.00
C390   C     0.89944   0.49808   0.36736   0.00000  Uiso   1.00
C391   C     0.88441   0.48744   0.40206   0.00000  Uiso   1.00
H392   H     0.90578   0.85730   0.37541   0.00000  Uiso   1.00
H393   H     0.84530   0.93686   0.33321   0.00000  Uiso   1.00
H394   H     0.99007   0.91603   0.37048   0.00000  Uiso   1.00
H395   H     0.88006   0.74344   0.42863   0.00000  Uiso   1.00
H396   H     0.78131   0.98658   0.27680   0.00000  Uiso   1.00
H397   H     0.08657   0.94265   0.35541   0.00000  Uiso   1.00
H398   H     0.85458   0.57871   0.47802   0.00000  Uiso   1.00
H399   H     0.92922   0.56068   0.30133   0.00000  Uiso   1.00
H400   H     0.87002   0.62396   0.25506   0.00000  Uiso   1.00
H401   H     0.01480   0.60314   0.29234   0.00000  Uiso   1.00
H402   H     0.90478   0.43055   0.35048   0.00000  Uiso   1.00
H403   H     0.80137   0.73263   0.21338   0.00000  Uiso   1.00
H404   H     0.10664   0.68870   0.29198   0.00000  Uiso   1.00
H405   H     0.87465   0.32475   0.41460   0.00000  Uiso   1.00
O406   O     0.75199   0.90660   0.21599   0.00000  Uiso   1.00
O407   O     0.15248   0.84896   0.31912   0.00000  Uiso   1.00
O408   O     0.84812   0.37147   0.47999   0.00000  Uiso   1.00
N409   N     0.79415   0.91812   0.26823   0.00000  Uiso   1.00
N410   N     0.07955   0.87706   0.34171   0.00000  Uiso   1.00
N411   N     0.86267   0.53680   0.45635   0.00000  Uiso   1.00
N412   N     0.80494   0.78147   0.23410   0.00000  Uiso   1.00
N413   N     0.09034   0.74041   0.30758   0.00000  Uiso   1.00
N414   N     0.87347   0.40015   0.42222   0.00000  Uiso   1.00
C415   C     0.41114   0.28934   0.35843   0.00000  Uiso   1.00
C416   C     0.38153   0.29143   0.32524   0.00000  Uiso   1.00
C417   C     0.35063   0.36931   0.31633   0.00000  Uiso   1.00
C418   C     0.32683   0.35681   0.28482   0.00000  Uiso   1.00
C419   C     0.27982   0.37335   0.23658   0.00000  Uiso   1.00
C420   C     0.46019   0.28013   0.34548   0.00000  Uiso   1.00
C421   C     0.49542   0.34849   0.35361   0.00000  Uiso   1.00
C422   C     0.53784   0.32646   0.33914   0.00000  Uiso   1.00
C423   C     0.61296   0.32541   0.32236   0.00000  Uiso   1.00
C424   C     0.40041   0.18635   0.37708   0.00000  Uiso   1.00
C425   C     0.38539   0.17587   0.41177   0.00000  Uiso   1.00
C426   C     0.37749   0.07489   0.42390   0.00000  Uiso   1.00
C427   C     0.35980   0.92824   0.45617   0.00000  Uiso   1.00
C428   C     0.42384   0.12864   0.31830   0.00000  Uiso   1.00
C429   C     0.38843   0.20414   0.30344   0.00000  Uiso   1.00
C430   C     0.36468   0.19151   0.27193   0.00000  Uiso   1.00
C431   C     0.33374   0.26936   0.26298   0.00000  Uiso   1.00
C432   C     0.46709   0.19284   0.32368   0.00000  Uiso   1.00
C433   C     0.50947   0.17070   0.30920   0.00000  Uiso   1.00
C434   C     0.54475   0.23902   0.31730   0.00000  Uiso   1.00
C435   C     0.40731   0.09907   0.35528   0.00000  Uiso   1.00
C436   C     0.39944   0.99808   0.36736   0.00000  Uiso   1.00
C437   C     0.38441   0.98744   0.40206   0.00000  Uiso   1.00
H438   H     0.40578   0.35730   0.37541   0.00000  Uiso   1.00
H439   H     0.34530   0.43686   0.33321   0.00000  Uiso   1.00
H440   H     0.49007   0.41603   0.37048   0.00000  Uiso   1.00
H441   H     0.38006   0.24344   0.42863   0.00000  Uiso   1.00
H442   H     0.28131   0.48658   0.27680   0.00000  Uiso   1.00
H443   H     0.58657   0.44265   0.35541   0.00000  Uiso   1.00
H444   H     0.35458   0.07871   0.47802   0.00000  Uiso   1.00
H445   H     0.42922   0.06068   0.30133   0.00000  Uiso   1.00
H446   H     0.37002   0.12396   0.25506   0.00000  Uiso   1.00
H447   H     0.51480   0.10314   0.29234   0.00000  Uiso   1.00
H448   H     0.40478   0.93055   0.35048   0.00000  Uiso   1.00
H449   H     0.30137   0.23263   0.21338   0.00000  Uiso   1.00
H450   H     0.60664   0.18870   0.29198   0.00000  Uiso   1.00
H451   H     0.37465   0.82475   0.41460   0.00000  Uiso   1.00
O452   O     0.25199   0.40660   0.21599   0.00000  Uiso   1.00
O453   O     0.65248   0.34896   0.31912   0.00000  Uiso   1.00
O454   O     0.34812   0.87147   0.47999   0.00000  Uiso   1.00
N455   N     0.29415   0.41812   0.26823   0.00000  Uiso   1.00
N456   N     0.57955   0.37706   0.34171   0.00000  Uiso   1.00
N457   N     0.36267   0.03680   0.45635   0.00000  Uiso   1.00
N458   N     0.30494   0.28147   0.23410   0.00000  Uiso   1.00
N459   N     0.59034   0.24041   0.30758   0.00000  Uiso   1.00
N460   N     0.37347   0.90015   0.42222   0.00000  Uiso   1.00
C461   C     0.58886   0.71066   0.35843   0.00000  Uiso   1.00
C462   C     0.61847   0.70857   0.32524   0.00000  Uiso   1.00
C463   C     0.64937   0.63069   0.31633   0.00000  Uiso   1.00
C464   C     0.67317   0.64319   0.28482   0.00000  Uiso   1.00
C465   C     0.72018   0.62665   0.23658   0.00000  Uiso   1.00
C466   C     0.53981   0.71987   0.34548   0.00000  Uiso   1.00
C467   C     0.50458   0.65151   0.35361   0.00000  Uiso   1.00
C468   C     0.46216   0.67354   0.33914   0.00000  Uiso   1.00
C469   C     0.38704   0.67459   0.32236   0.00000  Uiso   1.00
C470   C     0.59959   0.81365   0.37708   0.00000  Uiso   1.00
C471   C     0.61461   0.82413   0.41177   0.00000  Uiso   1.00
C472   C     0.62251   0.92511   0.42390   0.00000  Uiso   1.00
C473   C     0.64020   0.07176   0.45617   0.00000  Uiso   1.00
C474   C     0.57616   0.87136   0.31830   0.00000  Uiso   1.00
C475   C     0.61157   0.79586   0.30344   0.00000  Uiso   1.00
C476   C     0.63532   0.80849   0.27193   0.00000  Uiso   1.00
C477   C     0.66626   0.73064   0.26298   0.00000  Uiso   1.00
C478   C     0.53291   0.80716   0.32368   0.00000  Uiso   1.00
C479   C     0.49053   0.82930   0.30920   0.00000  Uiso   1.00
C480   C     0.45525   0.76098   0.31730   0.00000  Uiso   1.00
C481   C     0.59269   0.90093   0.35528   0.00000  Uiso   1.00
C482   C     0.60056   0.00192   0.36736   0.00000  Uiso   1.00
C483   C     0.61559   0.01256   0.40206   0.00000  Uiso   1.00
H484   H     0.59422   0.64270   0.37541   0.00000  Uiso   1.00
H485   H     0.65470   0.56314   0.33321   0.00000  Uiso   1.00
H486   H     0.50993   0.58397   0.37048   0.00000  Uiso   1.00
H487   H     0.61994   0.75656   0.42863   0.00000  Uiso   1.00
H488   H     0.71869   0.51342   0.27680   0.00000  Uiso   1.00
H489   H     0.41343   0.55735   0.35541   0.00000  Uiso   1.00
H490   H     0.64542   0.92129   0.47802   0.00000  Uiso   1.00
H491   H     0.57078   0.93932   0.30133   0.00000  Uiso   1.00
H492   H     0.62998   0.87604   0.25506   0.00000  Uiso   1.00
H493   H     0.48520   0.89686   0.29234   0.00000  Uiso   1.00
H494   H     0.59522   0.06945   0.35048   0.00000  Uiso   1.00
H495   H     0.69863   0.76737   0.21338   0.00000  Uiso   1.00
H496   H     0.39336   0.81130   0.29198   0.00000  Uiso   1.00
H497   H     0.62535   0.17525   0.41460   0.00000  Uiso   1.00
O498   O     0.74801   0.59340   0.21599   0.00000  Uiso   1.00
O499   O     0.34752   0.65104   0.31912   0.00000  Uiso   1.00
O500   O     0.65188   0.12853   0.47999   0.00000  Uiso   1.00
N501   N     0.70585   0.58188   0.26823   0.00000  Uiso   1.00
N502   N     0.42045   0.62294   0.34171   0.00000  Uiso   1.00
N503   N     0.63733   0.96320   0.45635   0.00000  Uiso   1.00
N504   N     0.69506   0.71853   0.23410   0.00000  Uiso   1.00
N505   N     0.40966   0.75959   0.30758   0.00000  Uiso   1.00
N506   N     0.62653   0.09985   0.42222   0.00000  Uiso   1.00
C507   C     0.08886   0.21066   0.35843   0.00000  Uiso   1.00
C508   C     0.11847   0.20857   0.32524   0.00000  Uiso   1.00
C509   C     0.14937   0.13069   0.31633   0.00000  Uiso   1.00
C510   C     0.17317   0.14319   0.28482   0.00000  Uiso   1.00
C511   C     0.22018   0.12665   0.23658   0.00000  Uiso   1.00
C512   C     0.03981   0.21987   0.34548   0.00000  Uiso   1.00
C513   C     0.00458   0.15151   0.35361   0.00000  Uiso   1.00
C514   C     0.96216   0.17354   0.33914   0.00000  Uiso   1.00
C515   C     0.88704   0.17459   0.32236   0.00000  Uiso   1.00
C516   C     0.09959   0.31365   0.37708   0.00000  Uiso   1.00
C517   C     0.11461   0.32413   0.41177   0.00000  Uiso   1.00
C518   C     0.12251   0.42511   0.42390   0.00000  Uiso   1.00
C519   C     0.14020   0.57176   0.45617   0.00000  Uiso   1.00
C520   C     0.07616   0.37136   0.31830   0.00000  Uiso   1.00
C521   C     0.11157   0.29586   0.30344   0.00000  Uiso   1.00
C522   C     0.13532   0.30849   0.27193   0.00000  Uiso   1.00
C523   C     0.16626   0.23064   0.26298   0.00000  Uiso   1.00
C524   C     0.03291   0.30716   0.32368   0.00000  Uiso   1.00
C525   C     0.99053   0.32930   0.30920   0.00000  Uiso   1.00
C526   C     0.95525   0.26098   0.31730   0.00000  Uiso   1.00
C527   C     0.09269   0.40093   0.35528   0.00000  Uiso   1.00
C528   C     0.10056   0.50192   0.36736   0.00000  Uiso   1.00
C529   C     0.11559   0.51256   0.40206   0.00000  Uiso   1.00
H530   H     0.09422   0.14270   0.37541   0.00000  Uiso   1.00
H531   H     0.15470   0.06314   0.33321   0.00000  Uiso   1.00
H532   H     0.00993   0.08397   0.37048   0.00000  Uiso   1.00
H533   H     0.11994   0.25656   0.42863   0.00000  Uiso   1.00
H534   H     0.21869   0.01342   0.27680   0.00000  Uiso   1.00
H535   H     0.91343   0.05735   0.35541   0.00000  Uiso   1.00
H536   H     0.14542   0.42129   0.47802   0.00000  Uiso   1.00
H537   H     0.07078   0.43932   0.30133   0.00000  Uiso   1.00
H538   H     0.12998   0.37604   0.25506   0.00000  Uiso   1.00
H539   H     0.98520   0.39686   0.29234   0.00000  Uiso   1.00
H540   H     0.09522   0.56945   0.35048   0.00000  Uiso   1.00
H541   H     0.19863   0.26737   0.21338   0.00000  Uiso   1.00
H542   H     0.89336   0.31130   0.29198   0.00000  Uiso   1.00
H543   H     0.12535   0.67525   0.41460   0.00000  Uiso   1.00
O544   O     0.24801   0.09340   0.21599   0.00000  Uiso   1.00
O545   O     0.84752   0.15104   0.31912   0.00000  Uiso   1.00
O546   O     0.15188   0.62853   0.47999   0.00000  Uiso   1.00
N547   N     0.20585   0.08188   0.26823   0.00000  Uiso   1.00
N548   N     0.92045   0.12294   0.34171   0.00000  Uiso   1.00
N549   N     0.13733   0.46320   0.45635   0.00000  Uiso   1.00
N550   N     0.19506   0.21853   0.23410   0.00000  Uiso   1.00
N551   N     0.90966   0.25959   0.30758   0.00000  Uiso   1.00
N552   N     0.12653   0.59985   0.42222   0.00000  Uiso   1.00
C553   C     0.08886   0.78934   0.64157   0.00000  Uiso   1.00
C554   C     0.11847   0.79143   0.67476   0.00000  Uiso   1.00
C555   C     0.14937   0.86931   0.68367   0.00000  Uiso   1.00
C556   C     0.17317   0.85681   0.71518   0.00000  Uiso   1.00
C557   C     0.22018   0.87335   0.76342   0.00000  Uiso   1.00
C558   C     0.03981   0.78013   0.65452   0.00000  Uiso   1.00
C559   C     0.00458   0.84849   0.64639   0.00000  Uiso   1.00
C560   C     0.96216   0.82646   0.66086   0.00000  Uiso   1.00
C561   C     0.88704   0.82541   0.67764   0.00000  Uiso   1.00
C562   C     0.09959   0.68635   0.62292   0.00000  Uiso   1.00
C563   C     0.11461   0.67587   0.58823   0.00000  Uiso   1.00
C564   C     0.12251   0.57489   0.57610   0.00000  Uiso   1.00
C565   C     0.14020   0.42824   0.54383   0.00000  Uiso   1.00
C566   C     0.07616   0.62864   0.68170   0.00000  Uiso   1.00
C567   C     0.11157   0.70414   0.69656   0.00000  Uiso   1.00
C568   C     0.13532   0.69151   0.72807   0.00000  Uiso   1.00
C569   C     0.16626   0.76936   0.73702   0.00000  Uiso   1.00
C570   C     0.03291   0.69284   0.67632   0.00000  Uiso   1.00
C571   C     0.99053   0.67070   0.69080   0.00000  Uiso   1.00
C572   C     0.95525   0.73902   0.68270   0.00000  Uiso   1.00
C573   C     0.09269   0.59907   0.64472   0.00000  Uiso   1.00
C574   C     0.10056   0.49808   0.63264   0.00000  Uiso   1.00
C575   C     0.11559   0.48744   0.59794   0.00000  Uiso   1.00
H576   H     0.09422   0.85730   0.62459   0.00000  Uiso   1.00
H577   H     0.15470   0.93686   0.66679   0.00000  Uiso   1.00
H578   H     0.00993   0.91603   0.62952   0.00000  Uiso   1.00
H579   H     0.11994   0.74344   0.57137   0.00000  Uiso   1.00
H580   H     0.21869   0.98658   0.72320   0.00000  Uiso   1.00
H581   H     0.91343   0.94265   0.64459   0.00000  Uiso   1.00
H582   H     0.14542   0.57871   0.52198   0.00000  Uiso   1.00
H583   H     0.07078   0.56068   0.69867   0.00000  Uiso   1.00
H584   H     0.12998   0.62396   0.74494   0.00000  Uiso   1.00
H585   H     0.98520   0.60314   0.70766   0.00000  Uiso   1.00
H586   H     0.09522   0.43055   0.64952   0.00000  Uiso   1.00
H587   H     0.19863   0.73263   0.78662   0.00000  Uiso   1.00
H588   H     0.89336   0.68870   0.70802   0.00000  Uiso   1.00
H589   H     0.12535   0.32475   0.58540   0.00000  Uiso   1.00
O590   O     0.24801   0.90660   0.78401   0.00000  Uiso   1.00
O591   O     0.84752   0.84896   0.68088   0.00000  Uiso   1.00
O592   O     0.15188   0.37147   0.52001   0.00000  Uiso   1.00
N593   N     0.20585   0.91812   0.73177   0.00000  Uiso   1.00
N594   N     0.92045   0.87706   0.65829   0.00000  Uiso   1.00
N595   N     0.13733   0.53680   0.54365   0.00000  Uiso   1.00
N596   N     0.19506   0.78147   0.76590   0.00000  Uiso   1.00
N597   N     0.90966   0.74041   0.69242   0.00000  Uiso   1.00
N598   N     0.12653   0.40015   0.57778   0.00000  Uiso   1.00
C599   C     0.58886   0.28934   0.64157   0.00000  Uiso   1.00
C600   C     0.61847   0.29143   0.67476   0.00000  Uiso   1.00
C601   C     0.64937   0.36931   0.68367   0.00000  Uiso   1.00
C602   C     0.67317   0.35681   0.71518   0.00000  Uiso   1.00
C603   C     0.72018   0.37335   0.76342   0.00000  Uiso   1.00
C604   C     0.53981   0.28013   0.65452   0.00000  Uiso   1.00
C605   C     0.50458   0.34849   0.64639   0.00000  Uiso   1.00
C606   C     0.46216   0.32646   0.66086   0.00000  Uiso   1.00
C607   C     0.38704   0.32541   0.67764   0.00000  Uiso   1.00
C608   C     0.59959   0.18635   0.62292   0.00000  Uiso   1.00
C609   C     0.61461   0.17587   0.58823   0.00000  Uiso   1.00
C610   C     0.62251   0.07489   0.57610   0.00000  Uiso   1.00
C611   C     0.64020   0.92824   0.54383   0.00000  Uiso   1.00
C612   C     0.57616   0.12864   0.68170   0.00000  Uiso   1.00
C613   C     0.61157   0.20414   0.69656   0.00000  Uiso   1.00
C614   C     0.63532   0.19151   0.72807   0.00000  Uiso   1.00
C615   C     0.66626   0.26936   0.73702   0.00000  Uiso   1.00
C616   C     0.53291   0.19284   0.67632   0.00000  Uiso   1.00
C617   C     0.49053   0.17070   0.69080   0.00000  Uiso   1.00
C618   C     0.45525   0.23902   0.68270   0.00000  Uiso   1.00
C619   C     0.59269   0.09907   0.64472   0.00000  Uiso   1.00
C620   C     0.60056   0.99808   0.63264   0.00000  Uiso   1.00
C621   C     0.61559   0.98744   0.59794   0.00000  Uiso   1.00
H622   H     0.59422   0.35730   0.62459   0.00000  Uiso   1.00
H623   H     0.65470   0.43686   0.66679   0.00000  Uiso   1.00
H624   H     0.50993   0.41603   0.62952   0.00000  Uiso   1.00
H625   H     0.61994   0.24344   0.57137   0.00000  Uiso   1.00
H626   H     0.71869   0.48658   0.72320   0.00000  Uiso   1.00
H627   H     0.41343   0.44265   0.64459   0.00000  Uiso   1.00
H628   H     0.64542   0.07871   0.52198   0.00000  Uiso   1.00
H629   H     0.57078   0.06068   0.69867   0.00000  Uiso   1.00
H630   H     0.62998   0.12396   0.74494   0.00000  Uiso   1.00
H631   H     0.48520   0.10314   0.70766   0.00000  Uiso   1.00
H632   H     0.59522   0.93055   0.64952   0.00000  Uiso   1.00
H633   H     0.69863   0.23263   0.78662   0.00000  Uiso   1.00
H634   H     0.39336   0.18870   0.70802   0.00000  Uiso   1.00
H635   H     0.62535   0.82475   0.58540   0.00000  Uiso   1.00
O636   O     0.74801   0.40660   0.78401   0.00000  Uiso   1.00
O637   O     0.34752   0.34896   0.68088   0.00000  Uiso   1.00
O638   O     0.65188   0.87147   0.52001   0.00000  Uiso   1.00
N639   N     0.70585   0.41812   0.73177   0.00000  Uiso   1.00
N640   N     0.42045   0.37706   0.65829   0.00000  Uiso   1.00
N641   N     0.63733   0.03680   0.54365   0.00000  Uiso   1.00
N642   N     0.69506   0.28147   0.76590   0.00000  Uiso   1.00
N643   N     0.40966   0.24041   0.69242   0.00000  Uiso   1.00
N644   N     0.62653   0.90015   0.57778   0.00000  Uiso   1.00
C645   C     0.41114   0.71066   0.64157   0.00000  Uiso   1.00
C646   C     0.38153   0.70857   0.67476   0.00000  Uiso   1.00
C647   C     0.35063   0.63069   0.68367   0.00000  Uiso   1.00
C648   C     0.32683   0.64319   0.71518   0.00000  Uiso   1.00
C649   C     0.27982   0.62665   0.76342   0.00000  Uiso   1.00
C650   C     0.46019   0.71987   0.65452   0.00000  Uiso   1.00
C651   C     0.49542   0.65151   0.64639   0.00000  Uiso   1.00
C652   C     0.53784   0.67354   0.66086   0.00000  Uiso   1.00
C653   C     0.61296   0.67459   0.67764   0.00000  Uiso   1.00
C654   C     0.40041   0.81365   0.62292   0.00000  Uiso   1.00
C655   C     0.38539   0.82413   0.58823   0.00000  Uiso   1.00
C656   C     0.37749   0.92511   0.57610   0.00000  Uiso   1.00
C657   C     0.35980   0.07176   0.54383   0.00000  Uiso   1.00
C658   C     0.42384   0.87136   0.68170   0.00000  Uiso   1.00
C659   C     0.38843   0.79586   0.69656   0.00000  Uiso   1.00
C660   C     0.36468   0.80849   0.72807   0.00000  Uiso   1.00
C661   C     0.33374   0.73064   0.73702   0.00000  Uiso   1.00
C662   C     0.46709   0.80716   0.67632   0.00000  Uiso   1.00
C663   C     0.50947   0.82930   0.69080   0.00000  Uiso   1.00
C664   C     0.54475   0.76098   0.68270   0.00000  Uiso   1.00
C665   C     0.40731   0.90093   0.64472   0.00000  Uiso   1.00
C666   C     0.39944   0.00192   0.63264   0.00000  Uiso   1.00
C667   C     0.38441   0.01256   0.59794   0.00000  Uiso   1.00
H668   H     0.40578   0.64270   0.62459   0.00000  Uiso   1.00
H669   H     0.34530   0.56314   0.66679   0.00000  Uiso   1.00
H670   H     0.49007   0.58397   0.62952   0.00000  Uiso   1.00
H671   H     0.38006   0.75656   0.57137   0.00000  Uiso   1.00
H672   H     0.28131   0.51342   0.72320   0.00000  Uiso   1.00
H673   H     0.58657   0.55735   0.64459   0.00000  Uiso   1.00
H674   H     0.35458   0.92129   0.52198   0.00000  Uiso   1.00
H675   H     0.42922   0.93932   0.69867   0.00000  Uiso   1.00
H676   H     0.37002   0.87604   0.74494   0.00000  Uiso   1.00
H677   H     0.51480   0.89686   0.70766   0.00000  Uiso   1.00
H678   H     0.40478   0.06945   0.64952   0.00000  Uiso   1.00
H679   H     0.30137   0.76737   0.78662   0.00000  Uiso   1.00
H680   H     0.60664   0.81130   0.70802   0.00000  Uiso   1.00
H681   H     0.37465   0.17525   0.58540   0.00000  Uiso   1.00
O682   O     0.25199   0.59340   0.78401   0.00000  Uiso   1.00
O683   O     0.65248   0.65104   0.68088   0.00000  Uiso   1.00
O684   O     0.34812   0.12853   0.52001   0.00000  Uiso   1.00
N685   N     0.29415   0.58188   0.73177   0.00000  Uiso   1.00
N686   N     0.57955   0.62294   0.65829   0.00000  Uiso   1.00
N687   N     0.36267   0.96320   0.54365   0.00000  Uiso   1.00
N688   N     0.30494   0.71853   0.76590   0.00000  Uiso   1.00
N689   N     0.59034   0.75959   0.69242   0.00000  Uiso   1.00
N690   N     0.37347   0.09985   0.57778   0.00000  Uiso   1.00
C691   C     0.91114   0.21066   0.64157   0.00000  Uiso   1.00
C692   C     0.88153   0.20857   0.67476   0.00000  Uiso   1.00
C693   C     0.85063   0.13069   0.68367   0.00000  Uiso   1.00
C694   C     0.82683   0.14319   0.71518   0.00000  Uiso   1.00
C695   C     0.77982   0.12665   0.76342   0.00000  Uiso   1.00
C696   C     0.96019   0.21987   0.65452   0.00000  Uiso   1.00
C697   C     0.99542   0.15151   0.64639   0.00000  Uiso   1.00
C698   C     0.03784   0.17354   0.66086   0.00000  Uiso   1.00
C699   C     0.11296   0.17459   0.67764   0.00000  Uiso   1.00
C700   C     0.90041   0.31365   0.62292   0.00000  Uiso   1.00
C701   C     0.88539   0.32413   0.58823   0.00000  Uiso   1.00
C702   C     0.87749   0.42511   0.57610   0.00000  Uiso   1.00
C703   C     0.85980   0.57176   0.54383   0.00000  Uiso   1.00
C704   C     0.92384   0.37136   0.68170   0.00000  Uiso   1.00
C705   C     0.88843   0.29586   0.69656   0.00000  Uiso   1.00
C706   C     0.86468   0.30849   0.72807   0.00000  Uiso   1.00
C707   C     0.83374   0.23064   0.73702   0.00000  Uiso   1.00
C708   C     0.96709   0.30716   0.67632   0.00000  Uiso   1.00
C709   C     0.00947   0.32930   0.69080   0.00000  Uiso   1.00
C710   C     0.04475   0.26098   0.68270   0.00000  Uiso   1.00
C711   C     0.90731   0.40093   0.64472   0.00000  Uiso   1.00
C712   C     0.89944   0.50192   0.63264   0.00000  Uiso   1.00
C713   C     0.88441   0.51256   0.59794   0.00000  Uiso   1.00
H714   H     0.90578   0.14270   0.62459   0.00000  Uiso   1.00
H715   H     0.84530   0.06314   0.66679   0.00000  Uiso   1.00
H716   H     0.99007   0.08397   0.62952   0.00000  Uiso   1.00
H717   H     0.88006   0.25656   0.57137   0.00000  Uiso   1.00
H718   H     0.78131   0.01342   0.72320   0.00000  Uiso   1.00
H719   H     0.08657   0.05735   0.64459   0.00000  Uiso   1.00
H720   H     0.85458   0.42129   0.52198   0.00000  Uiso   1.00
H721   H     0.92922   0.43932   0.69867   0.00000  Uiso   1.00
H722   H     0.87002   0.37604   0.74494   0.00000  Uiso   1.00
H723   H     0.01480   0.39686   0.70766   0.00000  Uiso   1.00
H724   H     0.90478   0.56945   0.64952   0.00000  Uiso   1.00
H725   H     0.80137   0.26737   0.78662   0.00000  Uiso   1.00
H726   H     0.10664   0.31130   0.70802   0.00000  Uiso   1.00
H727   H     0.87465   0.67525   0.58540   0.00000  Uiso   1.00
O728   O     0.75199   0.09340   0.78401   0.00000  Uiso   1.00
O729   O     0.15248   0.15104   0.68088   0.00000  Uiso   1.00
O730   O     0.84812   0.62853   0.52001   0.00000  Uiso   1.00
N731   N     0.79415   0.08188   0.73177   0.00000  Uiso   1.00
N732   N     0.07955   0.12294   0.65829   0.00000  Uiso   1.00
N733   N     0.86267   0.46320   0.54365   0.00000  Uiso   1.00
N734   N     0.80494   0.21853   0.76590   0.00000  Uiso   1.00
N735   N     0.09034   0.25959   0.69242   0.00000  Uiso   1.00
N736   N     0.87347   0.59985   0.57778   0.00000  Uiso   1.00
