data_job_03092
_audit_creation_date              2018-12-19
_audit_creation_method            'Materials Studio'
_symmetry_space_group_name_H-M    'P1'
_symmetry_Int_Tables_number       1
_symmetry_cell_setting            triclinic
loop_
_symmetry_equiv_pos_as_xyz
  x,y,z
_cell_length_a                    24.6349
_cell_length_b                    24.6349
_cell_length_c                    13.9073
_cell_angle_alpha                 90.0000
_cell_angle_beta                  90.0000
_cell_angle_gamma                 90.0000
loop_
_atom_site_label
_atom_site_type_symbol
_atom_site_fract_x
_atom_site_fract_y
_atom_site_fract_z
_atom_site_U_iso_or_equiv
_atom_site_adp_type
_atom_site_occupancy
C1     C     0.09263   0.78384   0.50515   0.00000  Uiso   1.00
C2     C     0.07702   0.82617   0.58022   0.00000  Uiso   1.00
C3     C     0.04419   0.81722   0.65974   0.00000  Uiso   1.00
C4     C     0.03473   0.86121   0.71986   0.00000  Uiso   1.00
C5     C     0.00704   0.91918   0.83927   0.00000  Uiso   1.00
C6     C     0.07486   0.80695   0.40842   0.00000  Uiso   1.00
C7     C     0.04022   0.78185   0.34350   0.00000  Uiso   1.00
C8     C     0.02895   0.80966   0.25899   0.00000  Uiso   1.00
C9     C     0.99793   0.83778   0.11164   0.00000  Uiso   1.00
C10    C     0.15451   0.78283   0.50305   0.00000  Uiso   1.00
C11    C     0.18684   0.73743   0.51766   0.00000  Uiso   1.00
C12    C     0.24263   0.74493   0.51280   0.00000  Uiso   1.00
C13    C     0.33528   0.73558   0.51238   0.00000  Uiso   1.00
C14    C     0.13423   0.87786   0.47050   0.00000  Uiso   1.00
C15    C     0.09961   0.87724   0.56140   0.00000  Uiso   1.00
C16    C     0.09021   0.92125   0.62142   0.00000  Uiso   1.00
C17    C     0.05737   0.91238   0.70102   0.00000  Uiso   1.00
C18    C     0.09745   0.85802   0.38960   0.00000  Uiso   1.00
C19    C     0.08624   0.88588   0.30517   0.00000  Uiso   1.00
C20    C     0.05159   0.86083   0.24014   0.00000  Uiso   1.00
C21    C     0.17710   0.83390   0.48424   0.00000  Uiso   1.00
C22    C     0.23286   0.84146   0.47934   0.00000  Uiso   1.00
C23    C     0.26526   0.79609   0.49395   0.00000  Uiso   1.00
H24    H     0.07504   0.74408   0.51979   0.00000  Uiso   1.00
H25    H     0.02670   0.77770   0.67427   0.00000  Uiso   1.00
H26    H     0.02274   0.74233   0.35807   0.00000  Uiso   1.00
H27    H     0.16934   0.69792   0.53222   0.00000  Uiso   1.00
H28    H     0.98307   0.83750   0.83723   0.00000  Uiso   1.00
H29    H     0.97472   0.76291   0.17049   0.00000  Uiso   1.00
H30    H     0.28385   0.66926   0.53771   0.00000  Uiso   1.00
H31    H     0.15182   0.91763   0.45585   0.00000  Uiso   1.00
H32    H     0.10770   0.96077   0.60684   0.00000  Uiso   1.00
H33    H     0.10373   0.92540   0.29063   0.00000  Uiso   1.00
H34    H     0.25033   0.88099   0.46478   0.00000  Uiso   1.00
H35    H     0.04880   0.98609   0.78249   0.00000  Uiso   1.00
H36    H     0.04046   0.91150   0.11575   0.00000  Uiso   1.00
H37    H     0.34959   0.81785   0.48297   0.00000  Uiso   1.00
O38    O     0.98551   0.93705   0.91032   0.00000  Uiso   1.00
O39    O     0.97458   0.83918   0.03558   0.00000  Uiso   1.00
O40    O     0.38014   0.71632   0.51736   0.00000  Uiso   1.00
N41    N     0.00460   0.86654   0.80364   0.00000  Uiso   1.00
N42    N     0.99679   0.79681   0.18028   0.00000  Uiso   1.00
N43    N     0.28580   0.70926   0.52358   0.00000  Uiso   1.00
N44    N     0.03997   0.94650   0.77419   0.00000  Uiso   1.00
N45    N     0.03217   0.87677   0.15083   0.00000  Uiso   1.00
N46    N     0.32117   0.78921   0.49412   0.00000  Uiso   1.00
C47    C     0.59263   0.28384   0.00515   0.00000  Uiso   1.00
C48    C     0.57702   0.32617   0.08022   0.00000  Uiso   1.00
C49    C     0.54419   0.31722   0.15974   0.00000  Uiso   1.00
C50    C     0.53473   0.36121   0.21986   0.00000  Uiso   1.00
C51    C     0.50704   0.41918   0.33927   0.00000  Uiso   1.00
C52    C     0.57486   0.30695   0.90842   0.00000  Uiso   1.00
C53    C     0.54022   0.28185   0.84350   0.00000  Uiso   1.00
C54    C     0.52895   0.30966   0.75899   0.00000  Uiso   1.00
C55    C     0.49793   0.33778   0.61164   0.00000  Uiso   1.00
C56    C     0.65451   0.28283   0.00305   0.00000  Uiso   1.00
C57    C     0.68684   0.23743   0.01766   0.00000  Uiso   1.00
C58    C     0.74263   0.24493   0.01280   0.00000  Uiso   1.00
C59    C     0.83528   0.23558   0.01238   0.00000  Uiso   1.00
C60    C     0.63423   0.37786   0.97050   0.00000  Uiso   1.00
C61    C     0.59961   0.37724   0.06140   0.00000  Uiso   1.00
C62    C     0.59021   0.42125   0.12142   0.00000  Uiso   1.00
C63    C     0.55737   0.41238   0.20102   0.00000  Uiso   1.00
C64    C     0.59745   0.35802   0.88960   0.00000  Uiso   1.00
C65    C     0.58624   0.38588   0.80517   0.00000  Uiso   1.00
C66    C     0.55159   0.36083   0.74014   0.00000  Uiso   1.00
C67    C     0.67710   0.33390   0.98424   0.00000  Uiso   1.00
C68    C     0.73286   0.34146   0.97934   0.00000  Uiso   1.00
C69    C     0.76526   0.29609   0.99395   0.00000  Uiso   1.00
H70    H     0.57504   0.24408   0.01979   0.00000  Uiso   1.00
H71    H     0.52670   0.27770   0.17427   0.00000  Uiso   1.00
H72    H     0.52274   0.24233   0.85807   0.00000  Uiso   1.00
H73    H     0.66934   0.19792   0.03222   0.00000  Uiso   1.00
H74    H     0.48307   0.33750   0.33723   0.00000  Uiso   1.00
H75    H     0.47472   0.26291   0.67049   0.00000  Uiso   1.00
H76    H     0.78385   0.16926   0.03771   0.00000  Uiso   1.00
H77    H     0.65182   0.41763   0.95585   0.00000  Uiso   1.00
H78    H     0.60770   0.46077   0.10684   0.00000  Uiso   1.00
H79    H     0.60373   0.42540   0.79063   0.00000  Uiso   1.00
H80    H     0.75033   0.38099   0.96478   0.00000  Uiso   1.00
H81    H     0.54880   0.48609   0.28249   0.00000  Uiso   1.00
H82    H     0.54046   0.41150   0.61575   0.00000  Uiso   1.00
H83    H     0.84959   0.31785   0.98297   0.00000  Uiso   1.00
O84    O     0.48551   0.43705   0.41032   0.00000  Uiso   1.00
O85    O     0.47458   0.33918   0.53558   0.00000  Uiso   1.00
O86    O     0.88014   0.21632   0.01736   0.00000  Uiso   1.00
N87    N     0.50460   0.36654   0.30364   0.00000  Uiso   1.00
N88    N     0.49679   0.29681   0.68028   0.00000  Uiso   1.00
N89    N     0.78580   0.20926   0.02358   0.00000  Uiso   1.00
N90    N     0.53997   0.44650   0.27419   0.00000  Uiso   1.00
N91    N     0.53217   0.37677   0.65083   0.00000  Uiso   1.00
N92    N     0.82117   0.28921   0.99412   0.00000  Uiso   1.00
C93    C     0.40737   0.71616   0.00515   0.00000  Uiso   1.00
C94    C     0.42298   0.67383   0.08022   0.00000  Uiso   1.00
C95    C     0.45581   0.68278   0.15974   0.00000  Uiso   1.00
C96    C     0.46527   0.63879   0.21986   0.00000  Uiso   1.00
C97    C     0.49296   0.58082   0.33927   0.00000  Uiso   1.00
C98    C     0.42514   0.69305   0.90842   0.00000  Uiso   1.00
C99    C     0.45978   0.71815   0.84350   0.00000  Uiso   1.00
C100   C     0.47105   0.69034   0.75899   0.00000  Uiso   1.00
C101   C     0.50207   0.66222   0.61164   0.00000  Uiso   1.00
C102   C     0.34549   0.71717   0.00305   0.00000  Uiso   1.00
C103   C     0.31316   0.76257   0.01766   0.00000  Uiso   1.00
C104   C     0.25737   0.75507   0.01280   0.00000  Uiso   1.00
C105   C     0.16472   0.76442   0.01238   0.00000  Uiso   1.00
C106   C     0.36577   0.62214   0.97050   0.00000  Uiso   1.00
C107   C     0.40039   0.62276   0.06140   0.00000  Uiso   1.00
C108   C     0.40979   0.57875   0.12142   0.00000  Uiso   1.00
C109   C     0.44263   0.58762   0.20102   0.00000  Uiso   1.00
C110   C     0.40255   0.64198   0.88960   0.00000  Uiso   1.00
C111   C     0.41376   0.61412   0.80517   0.00000  Uiso   1.00
C112   C     0.44841   0.63917   0.74014   0.00000  Uiso   1.00
C113   C     0.32290   0.66610   0.98424   0.00000  Uiso   1.00
C114   C     0.26714   0.65854   0.97934   0.00000  Uiso   1.00
C115   C     0.23474   0.70391   0.99395   0.00000  Uiso   1.00
H116   H     0.42496   0.75592   0.01979   0.00000  Uiso   1.00
H117   H     0.47330   0.72230   0.17427   0.00000  Uiso   1.00
H118   H     0.47726   0.75767   0.85807   0.00000  Uiso   1.00
H119   H     0.33066   0.80208   0.03222   0.00000  Uiso   1.00
H120   H     0.51693   0.66250   0.33723   0.00000  Uiso   1.00
H121   H     0.52528   0.73709   0.67049   0.00000  Uiso   1.00
H122   H     0.21615   0.83074   0.03771   0.00000  Uiso   1.00
H123   H     0.34818   0.58237   0.95585   0.00000  Uiso   1.00
H124   H     0.39230   0.53923   0.10684   0.00000  Uiso   1.00
H125   H     0.39627   0.57460   0.79063   0.00000  Uiso   1.00
H126   H     0.24967   0.61901   0.96478   0.00000  Uiso   1.00
H127   H     0.45120   0.51391   0.28249   0.00000  Uiso   1.00
H128   H     0.45954   0.58850   0.61575   0.00000  Uiso   1.00
H129   H     0.15041   0.68215   0.98297   0.00000  Uiso   1.00
O130   O     0.51449   0.56295   0.41032   0.00000  Uiso   1.00
O131   O     0.52542   0.66082   0.53558   0.00000  Uiso   1.00
O132   O     0.11986   0.78368   0.01736   0.00000  Uiso   1.00
N133   N     0.49540   0.63346   0.30364   0.00000  Uiso   1.00
N134   N     0.50321   0.70319   0.68028   0.00000  Uiso   1.00
N135   N     0.21420   0.79074   0.02358   0.00000  Uiso   1.00
N136   N     0.46003   0.55350   0.27419   0.00000  Uiso   1.00
N137   N     0.46783   0.62323   0.65083   0.00000  Uiso   1.00
N138   N     0.17883   0.71079   0.99412   0.00000  Uiso   1.00
C139   C     0.90737   0.21616   0.50515   0.00000  Uiso   1.00
C140   C     0.92298   0.17383   0.58022   0.00000  Uiso   1.00
C141   C     0.95581   0.18278   0.65974   0.00000  Uiso   1.00
C142   C     0.96527   0.13879   0.71986   0.00000  Uiso   1.00
C143   C     0.99296   0.08082   0.83927   0.00000  Uiso   1.00
C144   C     0.92514   0.19305   0.40842   0.00000  Uiso   1.00
C145   C     0.95978   0.21815   0.34350   0.00000  Uiso   1.00
C146   C     0.97105   0.19034   0.25899   0.00000  Uiso   1.00
C147   C     0.00207   0.16222   0.11164   0.00000  Uiso   1.00
C148   C     0.84549   0.21717   0.50305   0.00000  Uiso   1.00
C149   C     0.81316   0.26257   0.51766   0.00000  Uiso   1.00
C150   C     0.75737   0.25507   0.51280   0.00000  Uiso   1.00
C151   C     0.66472   0.26442   0.51238   0.00000  Uiso   1.00
C152   C     0.86577   0.12214   0.47050   0.00000  Uiso   1.00
C153   C     0.90039   0.12276   0.56140   0.00000  Uiso   1.00
C154   C     0.90979   0.07875   0.62142   0.00000  Uiso   1.00
C155   C     0.94263   0.08762   0.70102   0.00000  Uiso   1.00
C156   C     0.90255   0.14198   0.38960   0.00000  Uiso   1.00
C157   C     0.91376   0.11412   0.30517   0.00000  Uiso   1.00
C158   C     0.94841   0.13917   0.24014   0.00000  Uiso   1.00
C159   C     0.82290   0.16610   0.48424   0.00000  Uiso   1.00
C160   C     0.76714   0.15854   0.47934   0.00000  Uiso   1.00
C161   C     0.73474   0.20391   0.49395   0.00000  Uiso   1.00
H162   H     0.92496   0.25592   0.51979   0.00000  Uiso   1.00
H163   H     0.97330   0.22230   0.67427   0.00000  Uiso   1.00
H164   H     0.97726   0.25767   0.35807   0.00000  Uiso   1.00
H165   H     0.83066   0.30208   0.53222   0.00000  Uiso   1.00
H166   H     0.01693   0.16250   0.83723   0.00000  Uiso   1.00
H167   H     0.02528   0.23709   0.17049   0.00000  Uiso   1.00
H168   H     0.71615   0.33074   0.53771   0.00000  Uiso   1.00
H169   H     0.84818   0.08237   0.45585   0.00000  Uiso   1.00
H170   H     0.89230   0.03923   0.60684   0.00000  Uiso   1.00
H171   H     0.89627   0.07460   0.29063   0.00000  Uiso   1.00
H172   H     0.74967   0.11901   0.46478   0.00000  Uiso   1.00
H173   H     0.95120   0.01391   0.78249   0.00000  Uiso   1.00
H174   H     0.95954   0.08850   0.11575   0.00000  Uiso   1.00
H175   H     0.65041   0.18215   0.48297   0.00000  Uiso   1.00
O176   O     0.01449   0.06295   0.91032   0.00000  Uiso   1.00
O177   O     0.02542   0.16082   0.03558   0.00000  Uiso   1.00
O178   O     0.61986   0.28368   0.51736   0.00000  Uiso   1.00
N179   N     0.99540   0.13346   0.80364   0.00000  Uiso   1.00
N180   N     0.00321   0.20319   0.18028   0.00000  Uiso   1.00
N181   N     0.71420   0.29074   0.52358   0.00000  Uiso   1.00
N182   N     0.96003   0.05350   0.77419   0.00000  Uiso   1.00
N183   N     0.96783   0.12323   0.15083   0.00000  Uiso   1.00
N184   N     0.67883   0.21079   0.49412   0.00000  Uiso   1.00
C185   C     0.21616   0.59263   0.75515   0.00000  Uiso   1.00
C186   C     0.17383   0.57702   0.83022   0.00000  Uiso   1.00
C187   C     0.18278   0.54419   0.90974   0.00000  Uiso   1.00
C188   C     0.13879   0.53473   0.96986   0.00000  Uiso   1.00
C189   C     0.08082   0.50704   0.08927   0.00000  Uiso   1.00
C190   C     0.19305   0.57486   0.65842   0.00000  Uiso   1.00
C191   C     0.21815   0.54022   0.59350   0.00000  Uiso   1.00
C192   C     0.19034   0.52895   0.50899   0.00000  Uiso   1.00
C193   C     0.16222   0.49793   0.36164   0.00000  Uiso   1.00
C194   C     0.21717   0.65451   0.75305   0.00000  Uiso   1.00
C195   C     0.26257   0.68684   0.76766   0.00000  Uiso   1.00
C196   C     0.25507   0.74263   0.76280   0.00000  Uiso   1.00
C197   C     0.26442   0.83528   0.76238   0.00000  Uiso   1.00
C198   C     0.12214   0.63423   0.72050   0.00000  Uiso   1.00
C199   C     0.12276   0.59961   0.81140   0.00000  Uiso   1.00
C200   C     0.07875   0.59021   0.87142   0.00000  Uiso   1.00
C201   C     0.08762   0.55737   0.95102   0.00000  Uiso   1.00
C202   C     0.14198   0.59745   0.63960   0.00000  Uiso   1.00
C203   C     0.11412   0.58624   0.55517   0.00000  Uiso   1.00
C204   C     0.13917   0.55159   0.49014   0.00000  Uiso   1.00
C205   C     0.16610   0.67710   0.73424   0.00000  Uiso   1.00
C206   C     0.15854   0.73286   0.72934   0.00000  Uiso   1.00
C207   C     0.20391   0.76526   0.74395   0.00000  Uiso   1.00
H208   H     0.25592   0.57504   0.76979   0.00000  Uiso   1.00
H209   H     0.22230   0.52670   0.92427   0.00000  Uiso   1.00
H210   H     0.25767   0.52274   0.60807   0.00000  Uiso   1.00
H211   H     0.30208   0.66934   0.78222   0.00000  Uiso   1.00
H212   H     0.16250   0.48307   0.08723   0.00000  Uiso   1.00
H213   H     0.23709   0.47472   0.42049   0.00000  Uiso   1.00
H214   H     0.33074   0.78385   0.78771   0.00000  Uiso   1.00
H215   H     0.08237   0.65182   0.70585   0.00000  Uiso   1.00
H216   H     0.03923   0.60770   0.85684   0.00000  Uiso   1.00
H217   H     0.07460   0.60373   0.54063   0.00000  Uiso   1.00
H218   H     0.11901   0.75033   0.71478   0.00000  Uiso   1.00
H219   H     0.01391   0.54880   0.03249   0.00000  Uiso   1.00
H220   H     0.08850   0.54046   0.36575   0.00000  Uiso   1.00
H221   H     0.18215   0.84959   0.73297   0.00000  Uiso   1.00
O222   O     0.06295   0.48551   0.16032   0.00000  Uiso   1.00
O223   O     0.16082   0.47458   0.28558   0.00000  Uiso   1.00
O224   O     0.28368   0.88014   0.76736   0.00000  Uiso   1.00
N225   N     0.13346   0.50460   0.05364   0.00000  Uiso   1.00
N226   N     0.20319   0.49679   0.43028   0.00000  Uiso   1.00
N227   N     0.29074   0.78580   0.77358   0.00000  Uiso   1.00
N228   N     0.05350   0.53997   0.02419   0.00000  Uiso   1.00
N229   N     0.12323   0.53217   0.40083   0.00000  Uiso   1.00
N230   N     0.21079   0.82117   0.74412   0.00000  Uiso   1.00
C231   C     0.71616   0.09263   0.25515   0.00000  Uiso   1.00
C232   C     0.67383   0.07702   0.33022   0.00000  Uiso   1.00
C233   C     0.68278   0.04419   0.40974   0.00000  Uiso   1.00
C234   C     0.63879   0.03473   0.46986   0.00000  Uiso   1.00
C235   C     0.58082   0.00704   0.58927   0.00000  Uiso   1.00
C236   C     0.69305   0.07486   0.15842   0.00000  Uiso   1.00
C237   C     0.71815   0.04022   0.09350   0.00000  Uiso   1.00
C238   C     0.69034   0.02895   0.00899   0.00000  Uiso   1.00
C239   C     0.66222   0.99793   0.86164   0.00000  Uiso   1.00
C240   C     0.71717   0.15451   0.25305   0.00000  Uiso   1.00
C241   C     0.76257   0.18684   0.26766   0.00000  Uiso   1.00
C242   C     0.75507   0.24263   0.26280   0.00000  Uiso   1.00
C243   C     0.76442   0.33528   0.26238   0.00000  Uiso   1.00
C244   C     0.62214   0.13423   0.22050   0.00000  Uiso   1.00
C245   C     0.62276   0.09961   0.31140   0.00000  Uiso   1.00
C246   C     0.57875   0.09021   0.37142   0.00000  Uiso   1.00
C247   C     0.58762   0.05737   0.45102   0.00000  Uiso   1.00
C248   C     0.64198   0.09745   0.13960   0.00000  Uiso   1.00
C249   C     0.61412   0.08624   0.05517   0.00000  Uiso   1.00
C250   C     0.63917   0.05159   0.99014   0.00000  Uiso   1.00
C251   C     0.66610   0.17710   0.23424   0.00000  Uiso   1.00
C252   C     0.65854   0.23286   0.22934   0.00000  Uiso   1.00
C253   C     0.70391   0.26526   0.24395   0.00000  Uiso   1.00
H254   H     0.75592   0.07504   0.26979   0.00000  Uiso   1.00
H255   H     0.72230   0.02670   0.42427   0.00000  Uiso   1.00
H256   H     0.75767   0.02274   0.10807   0.00000  Uiso   1.00
H257   H     0.80208   0.16934   0.28222   0.00000  Uiso   1.00
H258   H     0.66250   0.98307   0.58723   0.00000  Uiso   1.00
H259   H     0.73709   0.97472   0.92049   0.00000  Uiso   1.00
H260   H     0.83074   0.28385   0.28771   0.00000  Uiso   1.00
H261   H     0.58237   0.15182   0.20585   0.00000  Uiso   1.00
H262   H     0.53923   0.10770   0.35684   0.00000  Uiso   1.00
H263   H     0.57460   0.10373   0.04063   0.00000  Uiso   1.00
H264   H     0.61901   0.25033   0.21478   0.00000  Uiso   1.00
H265   H     0.51391   0.04880   0.53249   0.00000  Uiso   1.00
H266   H     0.58850   0.04046   0.86575   0.00000  Uiso   1.00
H267   H     0.68215   0.34959   0.23297   0.00000  Uiso   1.00
O268   O     0.56295   0.98551   0.66032   0.00000  Uiso   1.00
O269   O     0.66082   0.97458   0.78558   0.00000  Uiso   1.00
O270   O     0.78368   0.38014   0.26736   0.00000  Uiso   1.00
N271   N     0.63346   0.00460   0.55364   0.00000  Uiso   1.00
N272   N     0.70319   0.99679   0.93028   0.00000  Uiso   1.00
N273   N     0.79074   0.28580   0.27358   0.00000  Uiso   1.00
N274   N     0.55350   0.03997   0.52419   0.00000  Uiso   1.00
N275   N     0.62323   0.03217   0.90083   0.00000  Uiso   1.00
N276   N     0.71079   0.32117   0.24412   0.00000  Uiso   1.00
C277   C     0.28384   0.90737   0.25515   0.00000  Uiso   1.00
C278   C     0.32617   0.92298   0.33022   0.00000  Uiso   1.00
C279   C     0.31722   0.95581   0.40974   0.00000  Uiso   1.00
C280   C     0.36121   0.96527   0.46986   0.00000  Uiso   1.00
C281   C     0.41918   0.99296   0.58927   0.00000  Uiso   1.00
C282   C     0.30695   0.92514   0.15842   0.00000  Uiso   1.00
C283   C     0.28185   0.95978   0.09350   0.00000  Uiso   1.00
C284   C     0.30966   0.97105   0.00899   0.00000  Uiso   1.00
C285   C     0.33778   0.00207   0.86164   0.00000  Uiso   1.00
C286   C     0.28283   0.84549   0.25305   0.00000  Uiso   1.00
C287   C     0.23743   0.81316   0.26766   0.00000  Uiso   1.00
C288   C     0.24493   0.75737   0.26280   0.00000  Uiso   1.00
C289   C     0.23558   0.66472   0.26238   0.00000  Uiso   1.00
C290   C     0.37786   0.86577   0.22050   0.00000  Uiso   1.00
C291   C     0.37724   0.90039   0.31140   0.00000  Uiso   1.00
C292   C     0.42125   0.90979   0.37142   0.00000  Uiso   1.00
C293   C     0.41238   0.94263   0.45102   0.00000  Uiso   1.00
C294   C     0.35802   0.90255   0.13960   0.00000  Uiso   1.00
C295   C     0.38588   0.91376   0.05517   0.00000  Uiso   1.00
C296   C     0.36083   0.94841   0.99014   0.00000  Uiso   1.00
C297   C     0.33390   0.82290   0.23424   0.00000  Uiso   1.00
C298   C     0.34146   0.76714   0.22934   0.00000  Uiso   1.00
C299   C     0.29609   0.73474   0.24395   0.00000  Uiso   1.00
H300   H     0.24408   0.92496   0.26979   0.00000  Uiso   1.00
H301   H     0.27770   0.97330   0.42427   0.00000  Uiso   1.00
H302   H     0.24233   0.97726   0.10807   0.00000  Uiso   1.00
H303   H     0.19792   0.83066   0.28222   0.00000  Uiso   1.00
H304   H     0.33750   0.01693   0.58723   0.00000  Uiso   1.00
H305   H     0.26291   0.02528   0.92049   0.00000  Uiso   1.00
H306   H     0.16926   0.71615   0.28771   0.00000  Uiso   1.00
H307   H     0.41763   0.84818   0.20585   0.00000  Uiso   1.00
H308   H     0.46077   0.89230   0.35684   0.00000  Uiso   1.00
H309   H     0.42540   0.89627   0.04063   0.00000  Uiso   1.00
H310   H     0.38099   0.74967   0.21478   0.00000  Uiso   1.00
H311   H     0.48609   0.95120   0.53249   0.00000  Uiso   1.00
H312   H     0.41150   0.95954   0.86575   0.00000  Uiso   1.00
H313   H     0.31785   0.65041   0.23297   0.00000  Uiso   1.00
O314   O     0.43705   0.01449   0.66032   0.00000  Uiso   1.00
O315   O     0.33918   0.02542   0.78558   0.00000  Uiso   1.00
O316   O     0.21632   0.61986   0.26736   0.00000  Uiso   1.00
N317   N     0.36654   0.99540   0.55364   0.00000  Uiso   1.00
N318   N     0.29681   0.00321   0.93028   0.00000  Uiso   1.00
N319   N     0.20926   0.71420   0.27358   0.00000  Uiso   1.00
N320   N     0.44650   0.96003   0.52419   0.00000  Uiso   1.00
N321   N     0.37677   0.96783   0.90083   0.00000  Uiso   1.00
N322   N     0.28921   0.67883   0.24412   0.00000  Uiso   1.00
C323   C     0.78384   0.40737   0.75515   0.00000  Uiso   1.00
C324   C     0.82617   0.42298   0.83022   0.00000  Uiso   1.00
C325   C     0.81722   0.45581   0.90974   0.00000  Uiso   1.00
C326   C     0.86121   0.46527   0.96986   0.00000  Uiso   1.00
C327   C     0.91918   0.49296   0.08927   0.00000  Uiso   1.00
C328   C     0.80695   0.42514   0.65842   0.00000  Uiso   1.00
C329   C     0.78185   0.45978   0.59350   0.00000  Uiso   1.00
C330   C     0.80966   0.47105   0.50899   0.00000  Uiso   1.00
C331   C     0.83778   0.50207   0.36164   0.00000  Uiso   1.00
C332   C     0.78283   0.34549   0.75305   0.00000  Uiso   1.00
C333   C     0.73743   0.31316   0.76766   0.00000  Uiso   1.00
C334   C     0.74493   0.25737   0.76280   0.00000  Uiso   1.00
C335   C     0.73558   0.16472   0.76238   0.00000  Uiso   1.00
C336   C     0.87786   0.36577   0.72050   0.00000  Uiso   1.00
C337   C     0.87724   0.40039   0.81140   0.00000  Uiso   1.00
C338   C     0.92125   0.40979   0.87142   0.00000  Uiso   1.00
C339   C     0.91238   0.44263   0.95102   0.00000  Uiso   1.00
C340   C     0.85802   0.40255   0.63960   0.00000  Uiso   1.00
C341   C     0.88588   0.41376   0.55517   0.00000  Uiso   1.00
C342   C     0.86083   0.44841   0.49014   0.00000  Uiso   1.00
C343   C     0.83390   0.32290   0.73424   0.00000  Uiso   1.00
C344   C     0.84146   0.26714   0.72934   0.00000  Uiso   1.00
C345   C     0.79609   0.23474   0.74395   0.00000  Uiso   1.00
H346   H     0.74408   0.42496   0.76979   0.00000  Uiso   1.00
H347   H     0.77770   0.47330   0.92427   0.00000  Uiso   1.00
H348   H     0.74233   0.47726   0.60807   0.00000  Uiso   1.00
H349   H     0.69792   0.33066   0.78222   0.00000  Uiso   1.00
H350   H     0.83750   0.51693   0.08723   0.00000  Uiso   1.00
H351   H     0.76291   0.52528   0.42049   0.00000  Uiso   1.00
H352   H     0.66926   0.21615   0.78771   0.00000  Uiso   1.00
H353   H     0.91763   0.34818   0.70585   0.00000  Uiso   1.00
H354   H     0.96077   0.39230   0.85684   0.00000  Uiso   1.00
H355   H     0.92540   0.39627   0.54063   0.00000  Uiso   1.00
H356   H     0.88099   0.24967   0.71478   0.00000  Uiso   1.00
H357   H     0.98609   0.45120   0.03249   0.00000  Uiso   1.00
H358   H     0.91150   0.45954   0.36575   0.00000  Uiso   1.00
H359   H     0.81785   0.15041   0.73297   0.00000  Uiso   1.00
O360   O     0.93705   0.51449   0.16032   0.00000  Uiso   1.00
O361   O     0.83918   0.52542   0.28558   0.00000  Uiso   1.00
O362   O     0.71632   0.11986   0.76736   0.00000  Uiso   1.00
N363   N     0.86654   0.49540   0.05364   0.00000  Uiso   1.00
N364   N     0.79681   0.50321   0.43028   0.00000  Uiso   1.00
N365   N     0.70926   0.21420   0.77358   0.00000  Uiso   1.00
N366   N     0.94650   0.46003   0.02419   0.00000  Uiso   1.00
N367   N     0.87677   0.46783   0.40083   0.00000  Uiso   1.00
N368   N     0.78921   0.17883   0.74412   0.00000  Uiso   1.00
C369   C     0.90737   0.71616   0.74485   0.00000  Uiso   1.00
C370   C     0.92298   0.67383   0.66978   0.00000  Uiso   1.00
C371   C     0.95581   0.68278   0.59026   0.00000  Uiso   1.00
C372   C     0.96527   0.63879   0.53014   0.00000  Uiso   1.00
C373   C     0.99296   0.58082   0.41073   0.00000  Uiso   1.00
C374   C     0.92514   0.69305   0.84158   0.00000  Uiso   1.00
C375   C     0.95978   0.71815   0.90650   0.00000  Uiso   1.00
C376   C     0.97105   0.69034   0.99101   0.00000  Uiso   1.00
C377   C     0.00207   0.66222   0.13836   0.00000  Uiso   1.00
C378   C     0.84549   0.71717   0.74695   0.00000  Uiso   1.00
C379   C     0.81316   0.76257   0.73234   0.00000  Uiso   1.00
C380   C     0.75737   0.75507   0.73720   0.00000  Uiso   1.00
C381   C     0.66472   0.76442   0.73762   0.00000  Uiso   1.00
C382   C     0.86577   0.62214   0.77950   0.00000  Uiso   1.00
C383   C     0.90039   0.62276   0.68860   0.00000  Uiso   1.00
C384   C     0.90979   0.57875   0.62858   0.00000  Uiso   1.00
C385   C     0.94263   0.58762   0.54898   0.00000  Uiso   1.00
C386   C     0.90255   0.64198   0.86040   0.00000  Uiso   1.00
C387   C     0.91376   0.61412   0.94483   0.00000  Uiso   1.00
C388   C     0.94841   0.63917   0.00986   0.00000  Uiso   1.00
C389   C     0.82290   0.66610   0.76576   0.00000  Uiso   1.00
C390   C     0.76714   0.65854   0.77066   0.00000  Uiso   1.00
C391   C     0.73474   0.70391   0.75605   0.00000  Uiso   1.00
H392   H     0.92496   0.75592   0.73021   0.00000  Uiso   1.00
H393   H     0.97330   0.72230   0.57573   0.00000  Uiso   1.00
H394   H     0.97726   0.75767   0.89193   0.00000  Uiso   1.00
H395   H     0.83066   0.80208   0.71778   0.00000  Uiso   1.00
H396   H     0.01693   0.66250   0.41277   0.00000  Uiso   1.00
H397   H     0.02528   0.73709   0.07951   0.00000  Uiso   1.00
H398   H     0.71615   0.83074   0.71229   0.00000  Uiso   1.00
H399   H     0.84818   0.58237   0.79415   0.00000  Uiso   1.00
H400   H     0.89230   0.53923   0.64316   0.00000  Uiso   1.00
H401   H     0.89627   0.57460   0.95937   0.00000  Uiso   1.00
H402   H     0.74967   0.61901   0.78522   0.00000  Uiso   1.00
H403   H     0.95120   0.51391   0.46751   0.00000  Uiso   1.00
H404   H     0.95954   0.58850   0.13425   0.00000  Uiso   1.00
H405   H     0.65041   0.68215   0.76703   0.00000  Uiso   1.00
O406   O     0.01449   0.56295   0.33968   0.00000  Uiso   1.00
O407   O     0.02542   0.66082   0.21442   0.00000  Uiso   1.00
O408   O     0.61986   0.78368   0.73264   0.00000  Uiso   1.00
N409   N     0.99540   0.63346   0.44636   0.00000  Uiso   1.00
N410   N     0.00321   0.70319   0.06972   0.00000  Uiso   1.00
N411   N     0.71420   0.79074   0.72642   0.00000  Uiso   1.00
N412   N     0.96003   0.55350   0.47581   0.00000  Uiso   1.00
N413   N     0.96783   0.62323   0.09917   0.00000  Uiso   1.00
N414   N     0.67883   0.71079   0.75588   0.00000  Uiso   1.00
C415   C     0.40737   0.21616   0.24485   0.00000  Uiso   1.00
C416   C     0.42298   0.17383   0.16978   0.00000  Uiso   1.00
C417   C     0.45581   0.18278   0.09026   0.00000  Uiso   1.00
C418   C     0.46527   0.13879   0.03014   0.00000  Uiso   1.00
C419   C     0.49296   0.08082   0.91073   0.00000  Uiso   1.00
C420   C     0.42514   0.19305   0.34158   0.00000  Uiso   1.00
C421   C     0.45978   0.21815   0.40650   0.00000  Uiso   1.00
C422   C     0.47105   0.19034   0.49101   0.00000  Uiso   1.00
C423   C     0.50207   0.16222   0.63836   0.00000  Uiso   1.00
C424   C     0.34549   0.21717   0.24695   0.00000  Uiso   1.00
C425   C     0.31316   0.26257   0.23234   0.00000  Uiso   1.00
C426   C     0.25737   0.25507   0.23720   0.00000  Uiso   1.00
C427   C     0.16472   0.26442   0.23762   0.00000  Uiso   1.00
C428   C     0.36577   0.12214   0.27950   0.00000  Uiso   1.00
C429   C     0.40039   0.12276   0.18860   0.00000  Uiso   1.00
C430   C     0.40979   0.07875   0.12858   0.00000  Uiso   1.00
C431   C     0.44263   0.08762   0.04898   0.00000  Uiso   1.00
C432   C     0.40255   0.14198   0.36040   0.00000  Uiso   1.00
C433   C     0.41376   0.11412   0.44483   0.00000  Uiso   1.00
C434   C     0.44841   0.13917   0.50986   0.00000  Uiso   1.00
C435   C     0.32290   0.16610   0.26576   0.00000  Uiso   1.00
C436   C     0.26714   0.15854   0.27066   0.00000  Uiso   1.00
C437   C     0.23474   0.20391   0.25605   0.00000  Uiso   1.00
H438   H     0.42496   0.25592   0.23021   0.00000  Uiso   1.00
H439   H     0.47330   0.22230   0.07573   0.00000  Uiso   1.00
H440   H     0.47726   0.25767   0.39193   0.00000  Uiso   1.00
H441   H     0.33066   0.30208   0.21778   0.00000  Uiso   1.00
H442   H     0.51693   0.16250   0.91277   0.00000  Uiso   1.00
H443   H     0.52528   0.23709   0.57951   0.00000  Uiso   1.00
H444   H     0.21615   0.33074   0.21229   0.00000  Uiso   1.00
H445   H     0.34818   0.08237   0.29415   0.00000  Uiso   1.00
H446   H     0.39230   0.03923   0.14316   0.00000  Uiso   1.00
H447   H     0.39627   0.07460   0.45937   0.00000  Uiso   1.00
H448   H     0.24967   0.11901   0.28522   0.00000  Uiso   1.00
H449   H     0.45120   0.01391   0.96751   0.00000  Uiso   1.00
H450   H     0.45954   0.08850   0.63425   0.00000  Uiso   1.00
H451   H     0.15041   0.18215   0.26703   0.00000  Uiso   1.00
O452   O     0.51449   0.06295   0.83968   0.00000  Uiso   1.00
O453   O     0.52542   0.16082   0.71442   0.00000  Uiso   1.00
O454   O     0.11986   0.28368   0.23264   0.00000  Uiso   1.00
N455   N     0.49540   0.13346   0.94636   0.00000  Uiso   1.00
N456   N     0.50321   0.20319   0.56972   0.00000  Uiso   1.00
N457   N     0.21420   0.29074   0.22642   0.00000  Uiso   1.00
N458   N     0.46003   0.05350   0.97581   0.00000  Uiso   1.00
N459   N     0.46783   0.12323   0.59917   0.00000  Uiso   1.00
N460   N     0.17883   0.21079   0.25588   0.00000  Uiso   1.00
C461   C     0.59263   0.78384   0.24485   0.00000  Uiso   1.00
C462   C     0.57702   0.82617   0.16978   0.00000  Uiso   1.00
C463   C     0.54419   0.81722   0.09026   0.00000  Uiso   1.00
C464   C     0.53473   0.86121   0.03014   0.00000  Uiso   1.00
C465   C     0.50704   0.91918   0.91073   0.00000  Uiso   1.00
C466   C     0.57486   0.80695   0.34158   0.00000  Uiso   1.00
C467   C     0.54022   0.78185   0.40650   0.00000  Uiso   1.00
C468   C     0.52895   0.80966   0.49101   0.00000  Uiso   1.00
C469   C     0.49793   0.83778   0.63836   0.00000  Uiso   1.00
C470   C     0.65451   0.78283   0.24695   0.00000  Uiso   1.00
C471   C     0.68684   0.73743   0.23234   0.00000  Uiso   1.00
C472   C     0.74263   0.74493   0.23720   0.00000  Uiso   1.00
C473   C     0.83528   0.73558   0.23762   0.00000  Uiso   1.00
C474   C     0.63423   0.87786   0.27950   0.00000  Uiso   1.00
C475   C     0.59961   0.87724   0.18860   0.00000  Uiso   1.00
C476   C     0.59021   0.92125   0.12858   0.00000  Uiso   1.00
C477   C     0.55737   0.91238   0.04898   0.00000  Uiso   1.00
C478   C     0.59745   0.85802   0.36040   0.00000  Uiso   1.00
C479   C     0.58624   0.88588   0.44483   0.00000  Uiso   1.00
C480   C     0.55159   0.86083   0.50986   0.00000  Uiso   1.00
C481   C     0.67710   0.83390   0.26576   0.00000  Uiso   1.00
C482   C     0.73286   0.84146   0.27066   0.00000  Uiso   1.00
C483   C     0.76526   0.79609   0.25605   0.00000  Uiso   1.00
H484   H     0.57504   0.74408   0.23021   0.00000  Uiso   1.00
H485   H     0.52670   0.77770   0.07573   0.00000  Uiso   1.00
H486   H     0.52274   0.74233   0.39193   0.00000  Uiso   1.00
H487   H     0.66934   0.69792   0.21778   0.00000  Uiso   1.00
H488   H     0.48307   0.83750   0.91277   0.00000  Uiso   1.00
H489   H     0.47472   0.76291   0.57951   0.00000  Uiso   1.00
H490   H     0.78385   0.66926   0.21229   0.00000  Uiso   1.00
H491   H     0.65182   0.91763   0.29415   0.00000  Uiso   1.00
H492   H     0.60770   0.96077   0.14316   0.00000  Uiso   1.00
H493   H     0.60373   0.92540   0.45937   0.00000  Uiso   1.00
H494   H     0.75033   0.88099   0.28522   0.00000  Uiso   1.00
H495   H     0.54880   0.98609   0.96751   0.00000  Uiso   1.00
H496   H     0.54046   0.91150   0.63425   0.00000  Uiso   1.00
H497   H     0.84959   0.81785   0.26703   0.00000  Uiso   1.00
O498   O     0.48551   0.93705   0.83968   0.00000  Uiso   1.00
O499   O     0.47458   0.83918   0.71442   0.00000  Uiso   1.00
O500   O     0.88014   0.71632   0.23264   0.00000  Uiso   1.00
N501   N     0.50460   0.86654   0.94636   0.00000  Uiso   1.00
N502   N     0.49679   0.79681   0.56972   0.00000  Uiso   1.00
N503   N     0.78580   0.70926   0.22642   0.00000  Uiso   1.00
N504   N     0.53997   0.94650   0.97581   0.00000  Uiso   1.00
N505   N     0.53217   0.87677   0.59917   0.00000  Uiso   1.00
N506   N     0.82117   0.78921   0.25588   0.00000  Uiso   1.00
C507   C     0.09263   0.28384   0.74485   0.00000  Uiso   1.00
C508   C     0.07702   0.32617   0.66978   0.00000  Uiso   1.00
C509   C     0.04419   0.31722   0.59026   0.00000  Uiso   1.00
C510   C     0.03473   0.36121   0.53014   0.00000  Uiso   1.00
C511   C     0.00704   0.41918   0.41073   0.00000  Uiso   1.00
C512   C     0.07486   0.30695   0.84158   0.00000  Uiso   1.00
C513   C     0.04022   0.28185   0.90650   0.00000  Uiso   1.00
C514   C     0.02895   0.30966   0.99101   0.00000  Uiso   1.00
C515   C     0.99793   0.33778   0.13836   0.00000  Uiso   1.00
C516   C     0.15451   0.28283   0.74695   0.00000  Uiso   1.00
C517   C     0.18684   0.23743   0.73234   0.00000  Uiso   1.00
C518   C     0.24263   0.24493   0.73720   0.00000  Uiso   1.00
C519   C     0.33528   0.23558   0.73762   0.00000  Uiso   1.00
C520   C     0.13423   0.37786   0.77950   0.00000  Uiso   1.00
C521   C     0.09961   0.37724   0.68860   0.00000  Uiso   1.00
C522   C     0.09021   0.42125   0.62858   0.00000  Uiso   1.00
C523   C     0.05737   0.41238   0.54898   0.00000  Uiso   1.00
C524   C     0.09745   0.35802   0.86040   0.00000  Uiso   1.00
C525   C     0.08624   0.38588   0.94483   0.00000  Uiso   1.00
C526   C     0.05159   0.36083   0.00986   0.00000  Uiso   1.00
C527   C     0.17710   0.33390   0.76576   0.00000  Uiso   1.00
C528   C     0.23286   0.34146   0.77066   0.00000  Uiso   1.00
C529   C     0.26526   0.29609   0.75605   0.00000  Uiso   1.00
H530   H     0.07504   0.24408   0.73021   0.00000  Uiso   1.00
H531   H     0.02670   0.27770   0.57573   0.00000  Uiso   1.00
H532   H     0.02274   0.24233   0.89193   0.00000  Uiso   1.00
H533   H     0.16934   0.19792   0.71778   0.00000  Uiso   1.00
H534   H     0.98307   0.33750   0.41277   0.00000  Uiso   1.00
H535   H     0.97472   0.26291   0.07951   0.00000  Uiso   1.00
H536   H     0.28385   0.16926   0.71229   0.00000  Uiso   1.00
H537   H     0.15182   0.41763   0.79415   0.00000  Uiso   1.00
H538   H     0.10770   0.46077   0.64316   0.00000  Uiso   1.00
H539   H     0.10373   0.42540   0.95937   0.00000  Uiso   1.00
H540   H     0.25033   0.38099   0.78522   0.00000  Uiso   1.00
H541   H     0.04880   0.48609   0.46751   0.00000  Uiso   1.00
H542   H     0.04046   0.41150   0.13425   0.00000  Uiso   1.00
H543   H     0.34959   0.31785   0.76703   0.00000  Uiso   1.00
O544   O     0.98551   0.43705   0.33968   0.00000  Uiso   1.00
O545   O     0.97458   0.33918   0.21442   0.00000  Uiso   1.00
O546   O     0.38014   0.21632   0.73264   0.00000  Uiso   1.00
N547   N     0.00460   0.36654   0.44636   0.00000  Uiso   1.00
N548   N     0.99679   0.29681   0.06972   0.00000  Uiso   1.00
N549   N     0.28580   0.20926   0.72642   0.00000  Uiso   1.00
N550   N     0.03997   0.44650   0.47581   0.00000  Uiso   1.00
N551   N     0.03217   0.37677   0.09917   0.00000  Uiso   1.00
N552   N     0.32117   0.28921   0.75588   0.00000  Uiso   1.00
C553   C     0.78384   0.90737   0.49485   0.00000  Uiso   1.00
C554   C     0.82617   0.92298   0.41978   0.00000  Uiso   1.00
C555   C     0.81722   0.95581   0.34026   0.00000  Uiso   1.00
C556   C     0.86121   0.96527   0.28014   0.00000  Uiso   1.00
C557   C     0.91918   0.99296   0.16073   0.00000  Uiso   1.00
C558   C     0.80695   0.92514   0.59158   0.00000  Uiso   1.00
C559   C     0.78185   0.95978   0.65650   0.00000  Uiso   1.00
C560   C     0.80966   0.97105   0.74101   0.00000  Uiso   1.00
C561   C     0.83778   0.00207   0.88836   0.00000  Uiso   1.00
C562   C     0.78283   0.84549   0.49695   0.00000  Uiso   1.00
C563   C     0.73743   0.81316   0.48234   0.00000  Uiso   1.00
C564   C     0.74493   0.75737   0.48720   0.00000  Uiso   1.00
C565   C     0.73558   0.66472   0.48762   0.00000  Uiso   1.00
C566   C     0.87786   0.86577   0.52950   0.00000  Uiso   1.00
C567   C     0.87724   0.90039   0.43860   0.00000  Uiso   1.00
C568   C     0.92125   0.90979   0.37858   0.00000  Uiso   1.00
C569   C     0.91238   0.94263   0.29898   0.00000  Uiso   1.00
C570   C     0.85802   0.90255   0.61040   0.00000  Uiso   1.00
C571   C     0.88588   0.91376   0.69483   0.00000  Uiso   1.00
C572   C     0.86083   0.94841   0.75986   0.00000  Uiso   1.00
C573   C     0.83390   0.82290   0.51576   0.00000  Uiso   1.00
C574   C     0.84146   0.76714   0.52066   0.00000  Uiso   1.00
C575   C     0.79609   0.73474   0.50605   0.00000  Uiso   1.00
H576   H     0.74408   0.92496   0.48021   0.00000  Uiso   1.00
H577   H     0.77770   0.97330   0.32573   0.00000  Uiso   1.00
H578   H     0.74233   0.97726   0.64193   0.00000  Uiso   1.00
H579   H     0.69792   0.83066   0.46778   0.00000  Uiso   1.00
H580   H     0.83750   0.01693   0.16277   0.00000  Uiso   1.00
H581   H     0.76291   0.02528   0.82951   0.00000  Uiso   1.00
H582   H     0.66926   0.71615   0.46229   0.00000  Uiso   1.00
H583   H     0.91763   0.84818   0.54415   0.00000  Uiso   1.00
H584   H     0.96077   0.89230   0.39316   0.00000  Uiso   1.00
H585   H     0.92540   0.89627   0.70937   0.00000  Uiso   1.00
H586   H     0.88099   0.74967   0.53522   0.00000  Uiso   1.00
H587   H     0.98609   0.95120   0.21751   0.00000  Uiso   1.00
H588   H     0.91150   0.95954   0.88425   0.00000  Uiso   1.00
H589   H     0.81785   0.65041   0.51703   0.00000  Uiso   1.00
O590   O     0.93705   0.01449   0.08968   0.00000  Uiso   1.00
O591   O     0.83918   0.02542   0.96442   0.00000  Uiso   1.00
O592   O     0.71632   0.61986   0.48264   0.00000  Uiso   1.00
N593   N     0.86654   0.99540   0.19636   0.00000  Uiso   1.00
N594   N     0.79681   0.00321   0.81972   0.00000  Uiso   1.00
N595   N     0.70926   0.71420   0.47642   0.00000  Uiso   1.00
N596   N     0.94650   0.96003   0.22581   0.00000  Uiso   1.00
N597   N     0.87677   0.96783   0.84917   0.00000  Uiso   1.00
N598   N     0.78921   0.67883   0.50588   0.00000  Uiso   1.00
C599   C     0.28384   0.40737   0.99485   0.00000  Uiso   1.00
C600   C     0.32617   0.42298   0.91978   0.00000  Uiso   1.00
C601   C     0.31722   0.45581   0.84026   0.00000  Uiso   1.00
C602   C     0.36121   0.46527   0.78014   0.00000  Uiso   1.00
C603   C     0.41918   0.49296   0.66073   0.00000  Uiso   1.00
C604   C     0.30695   0.42514   0.09158   0.00000  Uiso   1.00
C605   C     0.28185   0.45978   0.15650   0.00000  Uiso   1.00
C606   C     0.30966   0.47105   0.24101   0.00000  Uiso   1.00
C607   C     0.33778   0.50207   0.38836   0.00000  Uiso   1.00
C608   C     0.28283   0.34549   0.99695   0.00000  Uiso   1.00
C609   C     0.23743   0.31316   0.98234   0.00000  Uiso   1.00
C610   C     0.24493   0.25737   0.98720   0.00000  Uiso   1.00
C611   C     0.23558   0.16472   0.98762   0.00000  Uiso   1.00
C612   C     0.37786   0.36577   0.02950   0.00000  Uiso   1.00
C613   C     0.37724   0.40039   0.93860   0.00000  Uiso   1.00
C614   C     0.42125   0.40979   0.87858   0.00000  Uiso   1.00
C615   C     0.41238   0.44263   0.79898   0.00000  Uiso   1.00
C616   C     0.35802   0.40255   0.11040   0.00000  Uiso   1.00
C617   C     0.38588   0.41376   0.19483   0.00000  Uiso   1.00
C618   C     0.36083   0.44841   0.25986   0.00000  Uiso   1.00
C619   C     0.33390   0.32290   0.01576   0.00000  Uiso   1.00
C620   C     0.34146   0.26714   0.02066   0.00000  Uiso   1.00
C621   C     0.29609   0.23474   0.00605   0.00000  Uiso   1.00
H622   H     0.24408   0.42496   0.98021   0.00000  Uiso   1.00
H623   H     0.27770   0.47330   0.82573   0.00000  Uiso   1.00
H624   H     0.24233   0.47726   0.14193   0.00000  Uiso   1.00
H625   H     0.19792   0.33066   0.96778   0.00000  Uiso   1.00
H626   H     0.33750   0.51693   0.66277   0.00000  Uiso   1.00
H627   H     0.26291   0.52528   0.32951   0.00000  Uiso   1.00
H628   H     0.16926   0.21615   0.96229   0.00000  Uiso   1.00
H629   H     0.41763   0.34818   0.04415   0.00000  Uiso   1.00
H630   H     0.46077   0.39230   0.89316   0.00000  Uiso   1.00
H631   H     0.42540   0.39627   0.20937   0.00000  Uiso   1.00
H632   H     0.38099   0.24967   0.03522   0.00000  Uiso   1.00
H633   H     0.48609   0.45120   0.71751   0.00000  Uiso   1.00
H634   H     0.41150   0.45954   0.38425   0.00000  Uiso   1.00
H635   H     0.31785   0.15041   0.01703   0.00000  Uiso   1.00
O636   O     0.43705   0.51449   0.58968   0.00000  Uiso   1.00
O637   O     0.33918   0.52542   0.46442   0.00000  Uiso   1.00
O638   O     0.21632   0.11986   0.98264   0.00000  Uiso   1.00
N639   N     0.36654   0.49540   0.69636   0.00000  Uiso   1.00
N640   N     0.29681   0.50321   0.31972   0.00000  Uiso   1.00
N641   N     0.20926   0.21420   0.97642   0.00000  Uiso   1.00
N642   N     0.44650   0.46003   0.72581   0.00000  Uiso   1.00
N643   N     0.37677   0.46783   0.34917   0.00000  Uiso   1.00
N644   N     0.28921   0.17883   0.00588   0.00000  Uiso   1.00
C645   C     0.71616   0.59263   0.99485   0.00000  Uiso   1.00
C646   C     0.67383   0.57702   0.91978   0.00000  Uiso   1.00
C647   C     0.68278   0.54419   0.84026   0.00000  Uiso   1.00
C648   C     0.63879   0.53473   0.78014   0.00000  Uiso   1.00
C649   C     0.58082   0.50704   0.66073   0.00000  Uiso   1.00
C650   C     0.69305   0.57486   0.09158   0.00000  Uiso   1.00
C651   C     0.71815   0.54022   0.15650   0.00000  Uiso   1.00
C652   C     0.69034   0.52895   0.24101   0.00000  Uiso   1.00
C653   C     0.66222   0.49793   0.38836   0.00000  Uiso   1.00
C654   C     0.71717   0.65451   0.99695   0.00000  Uiso   1.00
C655   C     0.76257   0.68684   0.98234   0.00000  Uiso   1.00
C656   C     0.75507   0.74263   0.98720   0.00000  Uiso   1.00
C657   C     0.76442   0.83528   0.98762   0.00000  Uiso   1.00
C658   C     0.62214   0.63423   0.02950   0.00000  Uiso   1.00
C659   C     0.62276   0.59961   0.93860   0.00000  Uiso   1.00
C660   C     0.57875   0.59021   0.87858   0.00000  Uiso   1.00
C661   C     0.58762   0.55737   0.79898   0.00000  Uiso   1.00
C662   C     0.64198   0.59745   0.11040   0.00000  Uiso   1.00
C663   C     0.61412   0.58624   0.19483   0.00000  Uiso   1.00
C664   C     0.63917   0.55159   0.25986   0.00000  Uiso   1.00
C665   C     0.66610   0.67710   0.01576   0.00000  Uiso   1.00
C666   C     0.65854   0.73286   0.02066   0.00000  Uiso   1.00
C667   C     0.70391   0.76526   0.00605   0.00000  Uiso   1.00
H668   H     0.75592   0.57504   0.98021   0.00000  Uiso   1.00
H669   H     0.72230   0.52670   0.82573   0.00000  Uiso   1.00
H670   H     0.75767   0.52274   0.14193   0.00000  Uiso   1.00
H671   H     0.80208   0.66934   0.96778   0.00000  Uiso   1.00
H672   H     0.66250   0.48307   0.66277   0.00000  Uiso   1.00
H673   H     0.73709   0.47472   0.32951   0.00000  Uiso   1.00
H674   H     0.83074   0.78385   0.96229   0.00000  Uiso   1.00
H675   H     0.58237   0.65182   0.04415   0.00000  Uiso   1.00
H676   H     0.53923   0.60770   0.89316   0.00000  Uiso   1.00
H677   H     0.57460   0.60373   0.20937   0.00000  Uiso   1.00
H678   H     0.61901   0.75033   0.03522   0.00000  Uiso   1.00
H679   H     0.51391   0.54880   0.71751   0.00000  Uiso   1.00
H680   H     0.58850   0.54046   0.38425   0.00000  Uiso   1.00
H681   H     0.68215   0.84959   0.01703   0.00000  Uiso   1.00
O682   O     0.56295   0.48551   0.58968   0.00000  Uiso   1.00
O683   O     0.66082   0.47458   0.46442   0.00000  Uiso   1.00
O684   O     0.78368   0.88014   0.98264   0.00000  Uiso   1.00
N685   N     0.63346   0.50460   0.69636   0.00000  Uiso   1.00
N686   N     0.70319   0.49679   0.31972   0.00000  Uiso   1.00
N687   N     0.79074   0.78580   0.97642   0.00000  Uiso   1.00
N688   N     0.55350   0.53997   0.72581   0.00000  Uiso   1.00
N689   N     0.62323   0.53217   0.34917   0.00000  Uiso   1.00
N690   N     0.71079   0.82117   0.00588   0.00000  Uiso   1.00
C691   C     0.21616   0.09263   0.49485   0.00000  Uiso   1.00
C692   C     0.17383   0.07702   0.41978   0.00000  Uiso   1.00
C693   C     0.18278   0.04419   0.34026   0.00000  Uiso   1.00
C694   C     0.13879   0.03473   0.28014   0.00000  Uiso   1.00
C695   C     0.08082   0.00704   0.16073   0.00000  Uiso   1.00
C696   C     0.19305   0.07486   0.59158   0.00000  Uiso   1.00
C697   C     0.21815   0.04022   0.65650   0.00000  Uiso   1.00
C698   C     0.19034   0.02895   0.74101   0.00000  Uiso   1.00
C699   C     0.16222   0.99793   0.88836   0.00000  Uiso   1.00
C700   C     0.21717   0.15451   0.49695   0.00000  Uiso   1.00
C701   C     0.26257   0.18684   0.48234   0.00000  Uiso   1.00
C702   C     0.25507   0.24263   0.48720   0.00000  Uiso   1.00
C703   C     0.26442   0.33528   0.48762   0.00000  Uiso   1.00
C704   C     0.12214   0.13423   0.52950   0.00000  Uiso   1.00
C705   C     0.12276   0.09961   0.43860   0.00000  Uiso   1.00
C706   C     0.07875   0.09021   0.37858   0.00000  Uiso   1.00
C707   C     0.08762   0.05737   0.29898   0.00000  Uiso   1.00
C708   C     0.14198   0.09745   0.61040   0.00000  Uiso   1.00
C709   C     0.11412   0.08624   0.69483   0.00000  Uiso   1.00
C710   C     0.13917   0.05159   0.75986   0.00000  Uiso   1.00
C711   C     0.16610   0.17710   0.51576   0.00000  Uiso   1.00
C712   C     0.15854   0.23286   0.52066   0.00000  Uiso   1.00
C713   C     0.20391   0.26526   0.50605   0.00000  Uiso   1.00
H714   H     0.25592   0.07504   0.48021   0.00000  Uiso   1.00
H715   H     0.22230   0.02670   0.32573   0.00000  Uiso   1.00
H716   H     0.25767   0.02274   0.64193   0.00000  Uiso   1.00
H717   H     0.30208   0.16934   0.46778   0.00000  Uiso   1.00
H718   H     0.16250   0.98307   0.16277   0.00000  Uiso   1.00
H719   H     0.23709   0.97472   0.82951   0.00000  Uiso   1.00
H720   H     0.33074   0.28385   0.46229   0.00000  Uiso   1.00
H721   H     0.08237   0.15182   0.54415   0.00000  Uiso   1.00
H722   H     0.03923   0.10770   0.39316   0.00000  Uiso   1.00
H723   H     0.07460   0.10373   0.70937   0.00000  Uiso   1.00
H724   H     0.11901   0.25033   0.53522   0.00000  Uiso   1.00
H725   H     0.01391   0.04880   0.21751   0.00000  Uiso   1.00
H726   H     0.08850   0.04046   0.88425   0.00000  Uiso   1.00
H727   H     0.18215   0.34959   0.51703   0.00000  Uiso   1.00
O728   O     0.06295   0.98551   0.08968   0.00000  Uiso   1.00
O729   O     0.16082   0.97458   0.96442   0.00000  Uiso   1.00
O730   O     0.28368   0.38014   0.48264   0.00000  Uiso   1.00
N731   N     0.13346   0.00460   0.19636   0.00000  Uiso   1.00
N732   N     0.20319   0.99679   0.81972   0.00000  Uiso   1.00
N733   N     0.29074   0.28580   0.47642   0.00000  Uiso   1.00
N734   N     0.05350   0.03997   0.22581   0.00000  Uiso   1.00
N735   N     0.12323   0.03217   0.84917   0.00000  Uiso   1.00
N736   N     0.21079   0.32117   0.50588   0.00000  Uiso   1.00
