data_job_05508
_audit_creation_date              2018-12-19
_audit_creation_method            'Materials Studio'
_symmetry_space_group_name_H-M    'P1'
_symmetry_Int_Tables_number       1
_symmetry_cell_setting            triclinic
loop_
_symmetry_equiv_pos_as_xyz
  x,y,z
_cell_length_a                    21.0766
_cell_length_b                    19.1140
_cell_length_c                    27.8905
_cell_angle_alpha                 90.0000
_cell_angle_beta                  90.0000
_cell_angle_gamma                 90.0000
loop_
_atom_site_label
_atom_site_type_symbol
_atom_site_fract_x
_atom_site_fract_y
_atom_site_fract_z
_atom_site_U_iso_or_equiv
_atom_site_adp_type
_atom_site_occupancy
C1     C     0.28610   0.36805   0.89519   0.00000  Uiso   1.00
C2     C     0.30405   0.44531   0.89656   0.00000  Uiso   1.00
C3     C     0.28256   0.49392   0.92976   0.00000  Uiso   1.00
C4     C     0.30452   0.56203   0.92491   0.00000  Uiso   1.00
C5     C     0.32599   0.67915   0.93261   0.00000  Uiso   1.00
C6     C     0.25877   0.35490   0.84538   0.00000  Uiso   1.00
C7     C     0.19920   0.32748   0.83554   0.00000  Uiso   1.00
C8     C     0.18305   0.31948   0.78759   0.00000  Uiso   1.00
C9     C     0.13423   0.29619   0.71583   0.00000  Uiso   1.00
C10    C     0.34840   0.32761   0.89726   0.00000  Uiso   1.00
C11    C     0.36420   0.27722   0.93104   0.00000  Uiso   1.00
C12    C     0.42350   0.24622   0.92677   0.00000  Uiso   1.00
C13    C     0.51386   0.18055   0.93556   0.00000  Uiso   1.00
C14    C     0.36334   0.40258   0.82752   0.00000  Uiso   1.00
C15    C     0.34600   0.46407   0.85981   0.00000  Uiso   1.00
C16    C     0.36801   0.53212   0.85490   0.00000  Uiso   1.00
C17    C     0.34655   0.58082   0.88809   0.00000  Uiso   1.00
C18    C     0.30072   0.37366   0.80862   0.00000  Uiso   1.00
C19    C     0.28465   0.36569   0.76067   0.00000  Uiso   1.00
C20    C     0.22507   0.33827   0.75077   0.00000  Uiso   1.00
C21    C     0.39035   0.34636   0.86050   0.00000  Uiso   1.00
C22    C     0.44965   0.31543   0.85617   0.00000  Uiso   1.00
C23    C     0.46553   0.26501   0.88994   0.00000  Uiso   1.00
H24    H     0.25344   0.35345   0.92380   0.00000  Uiso   1.00
H25    H     0.25009   0.47938   0.95820   0.00000  Uiso   1.00
H26    H     0.16675   0.31297   0.86399   0.00000  Uiso   1.00
H27    H     0.33172   0.26272   0.95948   0.00000  Uiso   1.00
H28    H     0.26486   0.62728   0.98012   0.00000  Uiso   1.00
H29    H     0.08914   0.27637   0.78147   0.00000  Uiso   1.00
H30    H     0.43701   0.17040   0.98282   0.00000  Uiso   1.00
H31    H     0.39600   0.41718   0.79890   0.00000  Uiso   1.00
H32    H     0.40047   0.54662   0.82645   0.00000  Uiso   1.00
H33    H     0.31713   0.38021   0.73224   0.00000  Uiso   1.00
H34    H     0.48210   0.32996   0.82772   0.00000  Uiso   1.00
H35    H     0.38691   0.68185   0.87318   0.00000  Uiso   1.00
H36    H     0.21119   0.33094   0.67454   0.00000  Uiso   1.00
H37    H     0.55907   0.22497   0.87589   0.00000  Uiso   1.00
O38    O     0.32624   0.73857   0.94701   0.00000  Uiso   1.00
O39    O     0.09571   0.27817   0.68640   0.00000  Uiso   1.00
O40    O     0.55211   0.13915   0.95057   0.00000  Uiso   1.00
N41    N     0.29298   0.62236   0.95118   0.00000  Uiso   1.00
N42    N     0.12869   0.29429   0.76546   0.00000  Uiso   1.00
N43    N     0.45391   0.19520   0.95369   0.00000  Uiso   1.00
N44    N     0.35866   0.65172   0.89363   0.00000  Uiso   1.00
N45    N     0.19437   0.32365   0.70791   0.00000  Uiso   1.00
N46    N     0.51959   0.22457   0.89615   0.00000  Uiso   1.00
C47    C     0.78610   0.86805   0.89519   0.00000  Uiso   1.00
C48    C     0.80405   0.94531   0.89656   0.00000  Uiso   1.00
C49    C     0.78256   0.99392   0.92976   0.00000  Uiso   1.00
C50    C     0.80452   0.06203   0.92491   0.00000  Uiso   1.00
C51    C     0.82599   0.17915   0.93261   0.00000  Uiso   1.00
C52    C     0.75877   0.85490   0.84538   0.00000  Uiso   1.00
C53    C     0.69920   0.82748   0.83554   0.00000  Uiso   1.00
C54    C     0.68305   0.81948   0.78759   0.00000  Uiso   1.00
C55    C     0.63423   0.79619   0.71583   0.00000  Uiso   1.00
C56    C     0.84840   0.82761   0.89726   0.00000  Uiso   1.00
C57    C     0.86420   0.77722   0.93104   0.00000  Uiso   1.00
C58    C     0.92350   0.74622   0.92677   0.00000  Uiso   1.00
C59    C     0.01386   0.68055   0.93556   0.00000  Uiso   1.00
C60    C     0.86334   0.90258   0.82752   0.00000  Uiso   1.00
C61    C     0.84600   0.96407   0.85981   0.00000  Uiso   1.00
C62    C     0.86801   0.03212   0.85490   0.00000  Uiso   1.00
C63    C     0.84655   0.08082   0.88809   0.00000  Uiso   1.00
C64    C     0.80072   0.87366   0.80862   0.00000  Uiso   1.00
C65    C     0.78465   0.86569   0.76067   0.00000  Uiso   1.00
C66    C     0.72507   0.83827   0.75077   0.00000  Uiso   1.00
C67    C     0.89035   0.84636   0.86050   0.00000  Uiso   1.00
C68    C     0.94965   0.81543   0.85617   0.00000  Uiso   1.00
C69    C     0.96553   0.76501   0.88994   0.00000  Uiso   1.00
H70    H     0.75344   0.85345   0.92380   0.00000  Uiso   1.00
H71    H     0.75009   0.97938   0.95820   0.00000  Uiso   1.00
H72    H     0.66675   0.81297   0.86399   0.00000  Uiso   1.00
H73    H     0.83172   0.76272   0.95948   0.00000  Uiso   1.00
H74    H     0.76486   0.12728   0.98012   0.00000  Uiso   1.00
H75    H     0.58914   0.77637   0.78147   0.00000  Uiso   1.00
H76    H     0.93701   0.67040   0.98282   0.00000  Uiso   1.00
H77    H     0.89600   0.91718   0.79890   0.00000  Uiso   1.00
H78    H     0.90047   0.04662   0.82645   0.00000  Uiso   1.00
H79    H     0.81713   0.88021   0.73224   0.00000  Uiso   1.00
H80    H     0.98210   0.82996   0.82772   0.00000  Uiso   1.00
H81    H     0.88691   0.18185   0.87318   0.00000  Uiso   1.00
H82    H     0.71119   0.83094   0.67454   0.00000  Uiso   1.00
H83    H     0.05907   0.72497   0.87589   0.00000  Uiso   1.00
O84    O     0.82624   0.23857   0.94701   0.00000  Uiso   1.00
O85    O     0.59571   0.77817   0.68640   0.00000  Uiso   1.00
O86    O     0.05211   0.63915   0.95057   0.00000  Uiso   1.00
N87    N     0.79298   0.12236   0.95118   0.00000  Uiso   1.00
N88    N     0.62869   0.79429   0.76546   0.00000  Uiso   1.00
N89    N     0.95391   0.69520   0.95369   0.00000  Uiso   1.00
N90    N     0.85866   0.15172   0.89363   0.00000  Uiso   1.00
N91    N     0.69437   0.82365   0.70791   0.00000  Uiso   1.00
N92    N     0.01959   0.72457   0.89615   0.00000  Uiso   1.00
C93    C     0.21390   0.13195   0.89519   0.00000  Uiso   1.00
C94    C     0.19595   0.05469   0.89656   0.00000  Uiso   1.00
C95    C     0.21744   0.00608   0.92976   0.00000  Uiso   1.00
C96    C     0.19548   0.93797   0.92491   0.00000  Uiso   1.00
C97    C     0.17401   0.82085   0.93261   0.00000  Uiso   1.00
C98    C     0.24123   0.14510   0.84538   0.00000  Uiso   1.00
C99    C     0.30080   0.17252   0.83554   0.00000  Uiso   1.00
C100   C     0.31695   0.18052   0.78759   0.00000  Uiso   1.00
C101   C     0.36577   0.20381   0.71583   0.00000  Uiso   1.00
C102   C     0.15160   0.17239   0.89726   0.00000  Uiso   1.00
C103   C     0.13580   0.22278   0.93104   0.00000  Uiso   1.00
C104   C     0.07650   0.25378   0.92677   0.00000  Uiso   1.00
C105   C     0.98614   0.31945   0.93556   0.00000  Uiso   1.00
C106   C     0.13666   0.09742   0.82752   0.00000  Uiso   1.00
C107   C     0.15400   0.03593   0.85981   0.00000  Uiso   1.00
C108   C     0.13199   0.96788   0.85490   0.00000  Uiso   1.00
C109   C     0.15345   0.91918   0.88809   0.00000  Uiso   1.00
C110   C     0.19928   0.12634   0.80862   0.00000  Uiso   1.00
C111   C     0.21535   0.13431   0.76067   0.00000  Uiso   1.00
C112   C     0.27493   0.16173   0.75077   0.00000  Uiso   1.00
C113   C     0.10965   0.15364   0.86050   0.00000  Uiso   1.00
C114   C     0.05035   0.18457   0.85617   0.00000  Uiso   1.00
C115   C     0.03447   0.23499   0.88994   0.00000  Uiso   1.00
H116   H     0.24656   0.14655   0.92380   0.00000  Uiso   1.00
H117   H     0.24991   0.02062   0.95820   0.00000  Uiso   1.00
H118   H     0.33325   0.18703   0.86399   0.00000  Uiso   1.00
H119   H     0.16828   0.23728   0.95948   0.00000  Uiso   1.00
H120   H     0.23514   0.87272   0.98012   0.00000  Uiso   1.00
H121   H     0.41086   0.22363   0.78147   0.00000  Uiso   1.00
H122   H     0.06299   0.32960   0.98282   0.00000  Uiso   1.00
H123   H     0.10400   0.08282   0.79890   0.00000  Uiso   1.00
H124   H     0.09953   0.95338   0.82645   0.00000  Uiso   1.00
H125   H     0.18287   0.11979   0.73224   0.00000  Uiso   1.00
H126   H     0.01790   0.17004   0.82772   0.00000  Uiso   1.00
H127   H     0.11309   0.81815   0.87318   0.00000  Uiso   1.00
H128   H     0.28881   0.16906   0.67454   0.00000  Uiso   1.00
H129   H     0.94093   0.27503   0.87589   0.00000  Uiso   1.00
O130   O     0.17376   0.76143   0.94701   0.00000  Uiso   1.00
O131   O     0.40429   0.22183   0.68640   0.00000  Uiso   1.00
O132   O     0.94789   0.36085   0.95057   0.00000  Uiso   1.00
N133   N     0.20702   0.87764   0.95118   0.00000  Uiso   1.00
N134   N     0.37131   0.20571   0.76546   0.00000  Uiso   1.00
N135   N     0.04609   0.30480   0.95369   0.00000  Uiso   1.00
N136   N     0.14134   0.84828   0.89363   0.00000  Uiso   1.00
N137   N     0.30563   0.17635   0.70791   0.00000  Uiso   1.00
N138   N     0.98041   0.27543   0.89615   0.00000  Uiso   1.00
C139   C     0.71390   0.63195   0.89519   0.00000  Uiso   1.00
C140   C     0.69595   0.55469   0.89656   0.00000  Uiso   1.00
C141   C     0.71744   0.50608   0.92976   0.00000  Uiso   1.00
C142   C     0.69548   0.43797   0.92491   0.00000  Uiso   1.00
C143   C     0.67401   0.32085   0.93261   0.00000  Uiso   1.00
C144   C     0.74123   0.64510   0.84538   0.00000  Uiso   1.00
C145   C     0.80080   0.67252   0.83554   0.00000  Uiso   1.00
C146   C     0.81695   0.68052   0.78759   0.00000  Uiso   1.00
C147   C     0.86577   0.70381   0.71583   0.00000  Uiso   1.00
C148   C     0.65160   0.67239   0.89726   0.00000  Uiso   1.00
C149   C     0.63580   0.72278   0.93104   0.00000  Uiso   1.00
C150   C     0.57650   0.75378   0.92677   0.00000  Uiso   1.00
C151   C     0.48614   0.81945   0.93556   0.00000  Uiso   1.00
C152   C     0.63666   0.59742   0.82752   0.00000  Uiso   1.00
C153   C     0.65400   0.53593   0.85981   0.00000  Uiso   1.00
C154   C     0.63199   0.46788   0.85490   0.00000  Uiso   1.00
C155   C     0.65345   0.41918   0.88809   0.00000  Uiso   1.00
C156   C     0.69928   0.62634   0.80862   0.00000  Uiso   1.00
C157   C     0.71535   0.63431   0.76067   0.00000  Uiso   1.00
C158   C     0.77493   0.66173   0.75077   0.00000  Uiso   1.00
C159   C     0.60965   0.65364   0.86050   0.00000  Uiso   1.00
C160   C     0.55035   0.68457   0.85617   0.00000  Uiso   1.00
C161   C     0.53447   0.73499   0.88994   0.00000  Uiso   1.00
H162   H     0.74656   0.64655   0.92380   0.00000  Uiso   1.00
H163   H     0.74991   0.52062   0.95820   0.00000  Uiso   1.00
H164   H     0.83325   0.68703   0.86399   0.00000  Uiso   1.00
H165   H     0.66828   0.73728   0.95948   0.00000  Uiso   1.00
H166   H     0.73514   0.37272   0.98012   0.00000  Uiso   1.00
H167   H     0.91086   0.72363   0.78147   0.00000  Uiso   1.00
H168   H     0.56299   0.82960   0.98282   0.00000  Uiso   1.00
H169   H     0.60400   0.58282   0.79890   0.00000  Uiso   1.00
H170   H     0.59953   0.45338   0.82645   0.00000  Uiso   1.00
H171   H     0.68287   0.61979   0.73224   0.00000  Uiso   1.00
H172   H     0.51790   0.67004   0.82772   0.00000  Uiso   1.00
H173   H     0.61309   0.31815   0.87318   0.00000  Uiso   1.00
H174   H     0.78881   0.66906   0.67454   0.00000  Uiso   1.00
H175   H     0.44093   0.77503   0.87589   0.00000  Uiso   1.00
O176   O     0.67376   0.26143   0.94701   0.00000  Uiso   1.00
O177   O     0.90429   0.72183   0.68640   0.00000  Uiso   1.00
O178   O     0.44789   0.86085   0.95057   0.00000  Uiso   1.00
N179   N     0.70702   0.37764   0.95118   0.00000  Uiso   1.00
N180   N     0.87131   0.70571   0.76546   0.00000  Uiso   1.00
N181   N     0.54609   0.80480   0.95369   0.00000  Uiso   1.00
N182   N     0.64134   0.34828   0.89363   0.00000  Uiso   1.00
N183   N     0.80563   0.67635   0.70791   0.00000  Uiso   1.00
N184   N     0.48041   0.77543   0.89615   0.00000  Uiso   1.00
C185   C     0.71390   0.36805   0.10481   0.00000  Uiso   1.00
C186   C     0.69595   0.44531   0.10344   0.00000  Uiso   1.00
C187   C     0.71744   0.49392   0.07024   0.00000  Uiso   1.00
C188   C     0.69548   0.56203   0.07509   0.00000  Uiso   1.00
C189   C     0.67401   0.67915   0.06739   0.00000  Uiso   1.00
C190   C     0.74123   0.35490   0.15462   0.00000  Uiso   1.00
C191   C     0.80080   0.32748   0.16446   0.00000  Uiso   1.00
C192   C     0.81695   0.31948   0.21241   0.00000  Uiso   1.00
C193   C     0.86577   0.29619   0.28417   0.00000  Uiso   1.00
C194   C     0.65160   0.32761   0.10274   0.00000  Uiso   1.00
C195   C     0.63580   0.27722   0.06896   0.00000  Uiso   1.00
C196   C     0.57650   0.24622   0.07323   0.00000  Uiso   1.00
C197   C     0.48614   0.18055   0.06444   0.00000  Uiso   1.00
C198   C     0.63666   0.40258   0.17248   0.00000  Uiso   1.00
C199   C     0.65400   0.46407   0.14019   0.00000  Uiso   1.00
C200   C     0.63199   0.53212   0.14510   0.00000  Uiso   1.00
C201   C     0.65345   0.58082   0.11191   0.00000  Uiso   1.00
C202   C     0.69928   0.37366   0.19138   0.00000  Uiso   1.00
C203   C     0.71535   0.36569   0.23933   0.00000  Uiso   1.00
C204   C     0.77493   0.33827   0.24923   0.00000  Uiso   1.00
C205   C     0.60965   0.34636   0.13950   0.00000  Uiso   1.00
C206   C     0.55035   0.31543   0.14383   0.00000  Uiso   1.00
C207   C     0.53447   0.26501   0.11006   0.00000  Uiso   1.00
H208   H     0.74656   0.35345   0.07620   0.00000  Uiso   1.00
H209   H     0.74991   0.47938   0.04180   0.00000  Uiso   1.00
H210   H     0.83325   0.31297   0.13601   0.00000  Uiso   1.00
H211   H     0.66828   0.26272   0.04052   0.00000  Uiso   1.00
H212   H     0.73514   0.62728   0.01988   0.00000  Uiso   1.00
H213   H     0.91086   0.27637   0.21853   0.00000  Uiso   1.00
H214   H     0.56299   0.17040   0.01718   0.00000  Uiso   1.00
H215   H     0.60400   0.41718   0.20110   0.00000  Uiso   1.00
H216   H     0.59953   0.54662   0.17355   0.00000  Uiso   1.00
H217   H     0.68287   0.38021   0.26776   0.00000  Uiso   1.00
H218   H     0.51790   0.32996   0.17228   0.00000  Uiso   1.00
H219   H     0.61309   0.68185   0.12682   0.00000  Uiso   1.00
H220   H     0.78881   0.33094   0.32546   0.00000  Uiso   1.00
H221   H     0.44093   0.22497   0.12411   0.00000  Uiso   1.00
O222   O     0.67376   0.73857   0.05299   0.00000  Uiso   1.00
O223   O     0.90429   0.27817   0.31360   0.00000  Uiso   1.00
O224   O     0.44789   0.13915   0.04943   0.00000  Uiso   1.00
N225   N     0.70702   0.62236   0.04882   0.00000  Uiso   1.00
N226   N     0.87131   0.29429   0.23454   0.00000  Uiso   1.00
N227   N     0.54609   0.19520   0.04631   0.00000  Uiso   1.00
N228   N     0.64134   0.65172   0.10637   0.00000  Uiso   1.00
N229   N     0.80563   0.32365   0.29209   0.00000  Uiso   1.00
N230   N     0.48041   0.22457   0.10385   0.00000  Uiso   1.00
C231   C     0.21390   0.86805   0.10481   0.00000  Uiso   1.00
C232   C     0.19595   0.94531   0.10344   0.00000  Uiso   1.00
C233   C     0.21744   0.99392   0.07024   0.00000  Uiso   1.00
C234   C     0.19548   0.06203   0.07509   0.00000  Uiso   1.00
C235   C     0.17401   0.17915   0.06739   0.00000  Uiso   1.00
C236   C     0.24123   0.85490   0.15462   0.00000  Uiso   1.00
C237   C     0.30080   0.82748   0.16446   0.00000  Uiso   1.00
C238   C     0.31695   0.81948   0.21241   0.00000  Uiso   1.00
C239   C     0.36577   0.79619   0.28417   0.00000  Uiso   1.00
C240   C     0.15160   0.82761   0.10274   0.00000  Uiso   1.00
C241   C     0.13580   0.77722   0.06896   0.00000  Uiso   1.00
C242   C     0.07650   0.74622   0.07323   0.00000  Uiso   1.00
C243   C     0.98614   0.68055   0.06444   0.00000  Uiso   1.00
C244   C     0.13666   0.90258   0.17248   0.00000  Uiso   1.00
C245   C     0.15400   0.96407   0.14019   0.00000  Uiso   1.00
C246   C     0.13199   0.03212   0.14510   0.00000  Uiso   1.00
C247   C     0.15345   0.08082   0.11191   0.00000  Uiso   1.00
C248   C     0.19928   0.87366   0.19138   0.00000  Uiso   1.00
C249   C     0.21535   0.86569   0.23933   0.00000  Uiso   1.00
C250   C     0.27493   0.83827   0.24923   0.00000  Uiso   1.00
C251   C     0.10965   0.84636   0.13950   0.00000  Uiso   1.00
C252   C     0.05035   0.81543   0.14383   0.00000  Uiso   1.00
C253   C     0.03447   0.76501   0.11006   0.00000  Uiso   1.00
H254   H     0.24656   0.85345   0.07620   0.00000  Uiso   1.00
H255   H     0.24991   0.97938   0.04180   0.00000  Uiso   1.00
H256   H     0.33325   0.81297   0.13601   0.00000  Uiso   1.00
H257   H     0.16828   0.76272   0.04052   0.00000  Uiso   1.00
H258   H     0.23514   0.12728   0.01988   0.00000  Uiso   1.00
H259   H     0.41086   0.77637   0.21853   0.00000  Uiso   1.00
H260   H     0.06299   0.67040   0.01718   0.00000  Uiso   1.00
H261   H     0.10400   0.91718   0.20110   0.00000  Uiso   1.00
H262   H     0.09953   0.04662   0.17355   0.00000  Uiso   1.00
H263   H     0.18287   0.88021   0.26776   0.00000  Uiso   1.00
H264   H     0.01790   0.82996   0.17228   0.00000  Uiso   1.00
H265   H     0.11309   0.18185   0.12682   0.00000  Uiso   1.00
H266   H     0.28881   0.83094   0.32546   0.00000  Uiso   1.00
H267   H     0.94093   0.72497   0.12411   0.00000  Uiso   1.00
O268   O     0.17376   0.23857   0.05299   0.00000  Uiso   1.00
O269   O     0.40429   0.77817   0.31360   0.00000  Uiso   1.00
O270   O     0.94789   0.63915   0.04943   0.00000  Uiso   1.00
N271   N     0.20702   0.12236   0.04882   0.00000  Uiso   1.00
N272   N     0.37131   0.79429   0.23454   0.00000  Uiso   1.00
N273   N     0.04609   0.69520   0.04631   0.00000  Uiso   1.00
N274   N     0.14134   0.15172   0.10637   0.00000  Uiso   1.00
N275   N     0.30563   0.82365   0.29209   0.00000  Uiso   1.00
N276   N     0.98041   0.72457   0.10385   0.00000  Uiso   1.00
C277   C     0.78610   0.13195   0.10481   0.00000  Uiso   1.00
C278   C     0.80405   0.05469   0.10344   0.00000  Uiso   1.00
C279   C     0.78256   0.00608   0.07024   0.00000  Uiso   1.00
C280   C     0.80452   0.93797   0.07509   0.00000  Uiso   1.00
C281   C     0.82599   0.82085   0.06739   0.00000  Uiso   1.00
C282   C     0.75877   0.14510   0.15462   0.00000  Uiso   1.00
C283   C     0.69920   0.17252   0.16446   0.00000  Uiso   1.00
C284   C     0.68305   0.18052   0.21241   0.00000  Uiso   1.00
C285   C     0.63423   0.20381   0.28417   0.00000  Uiso   1.00
C286   C     0.84840   0.17239   0.10274   0.00000  Uiso   1.00
C287   C     0.86420   0.22278   0.06896   0.00000  Uiso   1.00
C288   C     0.92350   0.25378   0.07323   0.00000  Uiso   1.00
C289   C     0.01386   0.31945   0.06444   0.00000  Uiso   1.00
C290   C     0.86334   0.09742   0.17248   0.00000  Uiso   1.00
C291   C     0.84600   0.03593   0.14019   0.00000  Uiso   1.00
C292   C     0.86801   0.96788   0.14510   0.00000  Uiso   1.00
C293   C     0.84655   0.91918   0.11191   0.00000  Uiso   1.00
C294   C     0.80072   0.12634   0.19138   0.00000  Uiso   1.00
C295   C     0.78465   0.13431   0.23933   0.00000  Uiso   1.00
C296   C     0.72507   0.16173   0.24923   0.00000  Uiso   1.00
C297   C     0.89035   0.15364   0.13950   0.00000  Uiso   1.00
C298   C     0.94965   0.18457   0.14383   0.00000  Uiso   1.00
C299   C     0.96553   0.23499   0.11006   0.00000  Uiso   1.00
H300   H     0.75344   0.14655   0.07620   0.00000  Uiso   1.00
H301   H     0.75009   0.02062   0.04180   0.00000  Uiso   1.00
H302   H     0.66675   0.18703   0.13601   0.00000  Uiso   1.00
H303   H     0.83172   0.23728   0.04052   0.00000  Uiso   1.00
H304   H     0.76486   0.87272   0.01988   0.00000  Uiso   1.00
H305   H     0.58914   0.22363   0.21853   0.00000  Uiso   1.00
H306   H     0.93701   0.32960   0.01718   0.00000  Uiso   1.00
H307   H     0.89600   0.08282   0.20110   0.00000  Uiso   1.00
H308   H     0.90047   0.95338   0.17355   0.00000  Uiso   1.00
H309   H     0.81713   0.11979   0.26776   0.00000  Uiso   1.00
H310   H     0.98210   0.17004   0.17228   0.00000  Uiso   1.00
H311   H     0.88691   0.81815   0.12682   0.00000  Uiso   1.00
H312   H     0.71119   0.16906   0.32546   0.00000  Uiso   1.00
H313   H     0.05907   0.27503   0.12411   0.00000  Uiso   1.00
O314   O     0.82624   0.76143   0.05299   0.00000  Uiso   1.00
O315   O     0.59571   0.22183   0.31360   0.00000  Uiso   1.00
O316   O     0.05211   0.36085   0.04943   0.00000  Uiso   1.00
N317   N     0.79298   0.87764   0.04882   0.00000  Uiso   1.00
N318   N     0.62869   0.20571   0.23454   0.00000  Uiso   1.00
N319   N     0.95391   0.30480   0.04631   0.00000  Uiso   1.00
N320   N     0.85866   0.84828   0.10637   0.00000  Uiso   1.00
N321   N     0.69437   0.17635   0.29209   0.00000  Uiso   1.00
N322   N     0.01959   0.27543   0.10385   0.00000  Uiso   1.00
C323   C     0.28610   0.63195   0.10481   0.00000  Uiso   1.00
C324   C     0.30405   0.55469   0.10344   0.00000  Uiso   1.00
C325   C     0.28256   0.50608   0.07024   0.00000  Uiso   1.00
C326   C     0.30452   0.43797   0.07509   0.00000  Uiso   1.00
C327   C     0.32599   0.32085   0.06739   0.00000  Uiso   1.00
C328   C     0.25877   0.64510   0.15462   0.00000  Uiso   1.00
C329   C     0.19920   0.67252   0.16446   0.00000  Uiso   1.00
C330   C     0.18305   0.68052   0.21241   0.00000  Uiso   1.00
C331   C     0.13423   0.70381   0.28417   0.00000  Uiso   1.00
C332   C     0.34840   0.67239   0.10274   0.00000  Uiso   1.00
C333   C     0.36420   0.72278   0.06896   0.00000  Uiso   1.00
C334   C     0.42350   0.75378   0.07323   0.00000  Uiso   1.00
C335   C     0.51386   0.81945   0.06444   0.00000  Uiso   1.00
C336   C     0.36334   0.59742   0.17248   0.00000  Uiso   1.00
C337   C     0.34600   0.53593   0.14019   0.00000  Uiso   1.00
C338   C     0.36801   0.46788   0.14510   0.00000  Uiso   1.00
C339   C     0.34655   0.41918   0.11191   0.00000  Uiso   1.00
C340   C     0.30072   0.62634   0.19138   0.00000  Uiso   1.00
C341   C     0.28465   0.63431   0.23933   0.00000  Uiso   1.00
C342   C     0.22507   0.66173   0.24923   0.00000  Uiso   1.00
C343   C     0.39035   0.65364   0.13950   0.00000  Uiso   1.00
C344   C     0.44965   0.68457   0.14383   0.00000  Uiso   1.00
C345   C     0.46553   0.73499   0.11006   0.00000  Uiso   1.00
H346   H     0.25344   0.64655   0.07620   0.00000  Uiso   1.00
H347   H     0.25009   0.52062   0.04180   0.00000  Uiso   1.00
H348   H     0.16675   0.68703   0.13601   0.00000  Uiso   1.00
H349   H     0.33172   0.73728   0.04052   0.00000  Uiso   1.00
H350   H     0.26486   0.37272   0.01988   0.00000  Uiso   1.00
H351   H     0.08914   0.72363   0.21853   0.00000  Uiso   1.00
H352   H     0.43701   0.82960   0.01718   0.00000  Uiso   1.00
H353   H     0.39600   0.58282   0.20110   0.00000  Uiso   1.00
H354   H     0.40047   0.45338   0.17355   0.00000  Uiso   1.00
H355   H     0.31713   0.61979   0.26776   0.00000  Uiso   1.00
H356   H     0.48210   0.67004   0.17228   0.00000  Uiso   1.00
H357   H     0.38691   0.31815   0.12682   0.00000  Uiso   1.00
H358   H     0.21119   0.66906   0.32546   0.00000  Uiso   1.00
H359   H     0.55907   0.77503   0.12411   0.00000  Uiso   1.00
O360   O     0.32624   0.26143   0.05299   0.00000  Uiso   1.00
O361   O     0.09571   0.72183   0.31360   0.00000  Uiso   1.00
O362   O     0.55211   0.86085   0.04943   0.00000  Uiso   1.00
N363   N     0.29298   0.37764   0.04882   0.00000  Uiso   1.00
N364   N     0.12869   0.70571   0.23454   0.00000  Uiso   1.00
N365   N     0.45391   0.80480   0.04631   0.00000  Uiso   1.00
N366   N     0.35866   0.34828   0.10637   0.00000  Uiso   1.00
N367   N     0.19437   0.67635   0.29209   0.00000  Uiso   1.00
N368   N     0.51959   0.77543   0.10385   0.00000  Uiso   1.00
C369   C     0.71390   0.13195   0.60481   0.00000  Uiso   1.00
C370   C     0.69595   0.05469   0.60344   0.00000  Uiso   1.00
C371   C     0.71744   0.00608   0.57024   0.00000  Uiso   1.00
C372   C     0.69548   0.93797   0.57509   0.00000  Uiso   1.00
C373   C     0.67401   0.82085   0.56739   0.00000  Uiso   1.00
C374   C     0.74123   0.14510   0.65462   0.00000  Uiso   1.00
C375   C     0.80080   0.17252   0.66446   0.00000  Uiso   1.00
C376   C     0.81695   0.18052   0.71241   0.00000  Uiso   1.00
C377   C     0.86577   0.20381   0.78417   0.00000  Uiso   1.00
C378   C     0.65160   0.17239   0.60274   0.00000  Uiso   1.00
C379   C     0.63580   0.22278   0.56896   0.00000  Uiso   1.00
C380   C     0.57650   0.25378   0.57323   0.00000  Uiso   1.00
C381   C     0.48614   0.31945   0.56444   0.00000  Uiso   1.00
C382   C     0.63666   0.09742   0.67248   0.00000  Uiso   1.00
C383   C     0.65400   0.03593   0.64019   0.00000  Uiso   1.00
C384   C     0.63199   0.96788   0.64510   0.00000  Uiso   1.00
C385   C     0.65345   0.91918   0.61191   0.00000  Uiso   1.00
C386   C     0.69928   0.12634   0.69138   0.00000  Uiso   1.00
C387   C     0.71535   0.13431   0.73933   0.00000  Uiso   1.00
C388   C     0.77493   0.16173   0.74923   0.00000  Uiso   1.00
C389   C     0.60965   0.15364   0.63950   0.00000  Uiso   1.00
C390   C     0.55035   0.18457   0.64383   0.00000  Uiso   1.00
C391   C     0.53447   0.23499   0.61006   0.00000  Uiso   1.00
H392   H     0.74656   0.14655   0.57620   0.00000  Uiso   1.00
H393   H     0.74991   0.02062   0.54180   0.00000  Uiso   1.00
H394   H     0.83325   0.18703   0.63601   0.00000  Uiso   1.00
H395   H     0.66828   0.23728   0.54052   0.00000  Uiso   1.00
H396   H     0.73514   0.87272   0.51988   0.00000  Uiso   1.00
H397   H     0.91086   0.22363   0.71853   0.00000  Uiso   1.00
H398   H     0.56299   0.32960   0.51718   0.00000  Uiso   1.00
H399   H     0.60400   0.08282   0.70110   0.00000  Uiso   1.00
H400   H     0.59953   0.95338   0.67355   0.00000  Uiso   1.00
H401   H     0.68287   0.11979   0.76776   0.00000  Uiso   1.00
H402   H     0.51790   0.17004   0.67228   0.00000  Uiso   1.00
H403   H     0.61309   0.81815   0.62682   0.00000  Uiso   1.00
H404   H     0.78881   0.16906   0.82546   0.00000  Uiso   1.00
H405   H     0.44093   0.27503   0.62411   0.00000  Uiso   1.00
O406   O     0.67376   0.76143   0.55299   0.00000  Uiso   1.00
O407   O     0.90429   0.22183   0.81360   0.00000  Uiso   1.00
O408   O     0.44789   0.36085   0.54943   0.00000  Uiso   1.00
N409   N     0.70702   0.87764   0.54882   0.00000  Uiso   1.00
N410   N     0.87131   0.20571   0.73454   0.00000  Uiso   1.00
N411   N     0.54609   0.30480   0.54631   0.00000  Uiso   1.00
N412   N     0.64134   0.84828   0.60637   0.00000  Uiso   1.00
N413   N     0.80563   0.17635   0.79209   0.00000  Uiso   1.00
N414   N     0.48041   0.27543   0.60385   0.00000  Uiso   1.00
C415   C     0.21390   0.63195   0.60481   0.00000  Uiso   1.00
C416   C     0.19595   0.55469   0.60344   0.00000  Uiso   1.00
C417   C     0.21744   0.50608   0.57024   0.00000  Uiso   1.00
C418   C     0.19548   0.43797   0.57509   0.00000  Uiso   1.00
C419   C     0.17401   0.32085   0.56739   0.00000  Uiso   1.00
C420   C     0.24123   0.64510   0.65462   0.00000  Uiso   1.00
C421   C     0.30080   0.67252   0.66446   0.00000  Uiso   1.00
C422   C     0.31695   0.68052   0.71241   0.00000  Uiso   1.00
C423   C     0.36577   0.70381   0.78417   0.00000  Uiso   1.00
C424   C     0.15160   0.67239   0.60274   0.00000  Uiso   1.00
C425   C     0.13580   0.72278   0.56896   0.00000  Uiso   1.00
C426   C     0.07650   0.75378   0.57323   0.00000  Uiso   1.00
C427   C     0.98614   0.81945   0.56444   0.00000  Uiso   1.00
C428   C     0.13666   0.59742   0.67248   0.00000  Uiso   1.00
C429   C     0.15400   0.53593   0.64019   0.00000  Uiso   1.00
C430   C     0.13199   0.46788   0.64510   0.00000  Uiso   1.00
C431   C     0.15345   0.41918   0.61191   0.00000  Uiso   1.00
C432   C     0.19928   0.62634   0.69138   0.00000  Uiso   1.00
C433   C     0.21535   0.63431   0.73933   0.00000  Uiso   1.00
C434   C     0.27493   0.66173   0.74923   0.00000  Uiso   1.00
C435   C     0.10965   0.65364   0.63950   0.00000  Uiso   1.00
C436   C     0.05035   0.68457   0.64383   0.00000  Uiso   1.00
C437   C     0.03447   0.73499   0.61006   0.00000  Uiso   1.00
H438   H     0.24656   0.64655   0.57620   0.00000  Uiso   1.00
H439   H     0.24991   0.52062   0.54180   0.00000  Uiso   1.00
H440   H     0.33325   0.68703   0.63601   0.00000  Uiso   1.00
H441   H     0.16828   0.73728   0.54052   0.00000  Uiso   1.00
H442   H     0.23514   0.37272   0.51988   0.00000  Uiso   1.00
H443   H     0.41086   0.72363   0.71853   0.00000  Uiso   1.00
H444   H     0.06299   0.82960   0.51718   0.00000  Uiso   1.00
H445   H     0.10400   0.58282   0.70110   0.00000  Uiso   1.00
H446   H     0.09953   0.45338   0.67355   0.00000  Uiso   1.00
H447   H     0.18287   0.61979   0.76776   0.00000  Uiso   1.00
H448   H     0.01790   0.67004   0.67228   0.00000  Uiso   1.00
H449   H     0.11309   0.31815   0.62682   0.00000  Uiso   1.00
H450   H     0.28881   0.66906   0.82546   0.00000  Uiso   1.00
H451   H     0.94093   0.77503   0.62411   0.00000  Uiso   1.00
O452   O     0.17376   0.26143   0.55299   0.00000  Uiso   1.00
O453   O     0.40429   0.72183   0.81360   0.00000  Uiso   1.00
O454   O     0.94789   0.86085   0.54943   0.00000  Uiso   1.00
N455   N     0.20702   0.37764   0.54882   0.00000  Uiso   1.00
N456   N     0.37131   0.70571   0.73454   0.00000  Uiso   1.00
N457   N     0.04609   0.80480   0.54631   0.00000  Uiso   1.00
N458   N     0.14134   0.34828   0.60637   0.00000  Uiso   1.00
N459   N     0.30563   0.67635   0.79209   0.00000  Uiso   1.00
N460   N     0.98041   0.77543   0.60385   0.00000  Uiso   1.00
C461   C     0.78610   0.36805   0.60481   0.00000  Uiso   1.00
C462   C     0.80405   0.44531   0.60344   0.00000  Uiso   1.00
C463   C     0.78256   0.49392   0.57024   0.00000  Uiso   1.00
C464   C     0.80452   0.56203   0.57509   0.00000  Uiso   1.00
C465   C     0.82599   0.67915   0.56739   0.00000  Uiso   1.00
C466   C     0.75877   0.35490   0.65462   0.00000  Uiso   1.00
C467   C     0.69920   0.32748   0.66446   0.00000  Uiso   1.00
C468   C     0.68305   0.31948   0.71241   0.00000  Uiso   1.00
C469   C     0.63423   0.29619   0.78417   0.00000  Uiso   1.00
C470   C     0.84840   0.32761   0.60274   0.00000  Uiso   1.00
C471   C     0.86420   0.27722   0.56896   0.00000  Uiso   1.00
C472   C     0.92350   0.24622   0.57323   0.00000  Uiso   1.00
C473   C     0.01386   0.18055   0.56444   0.00000  Uiso   1.00
C474   C     0.86334   0.40258   0.67248   0.00000  Uiso   1.00
C475   C     0.84600   0.46407   0.64019   0.00000  Uiso   1.00
C476   C     0.86801   0.53212   0.64510   0.00000  Uiso   1.00
C477   C     0.84655   0.58082   0.61191   0.00000  Uiso   1.00
C478   C     0.80072   0.37366   0.69138   0.00000  Uiso   1.00
C479   C     0.78465   0.36569   0.73933   0.00000  Uiso   1.00
C480   C     0.72507   0.33827   0.74923   0.00000  Uiso   1.00
C481   C     0.89035   0.34636   0.63950   0.00000  Uiso   1.00
C482   C     0.94965   0.31543   0.64383   0.00000  Uiso   1.00
C483   C     0.96553   0.26501   0.61006   0.00000  Uiso   1.00
H484   H     0.75344   0.35345   0.57620   0.00000  Uiso   1.00
H485   H     0.75009   0.47938   0.54180   0.00000  Uiso   1.00
H486   H     0.66675   0.31297   0.63601   0.00000  Uiso   1.00
H487   H     0.83172   0.26272   0.54052   0.00000  Uiso   1.00
H488   H     0.76486   0.62728   0.51988   0.00000  Uiso   1.00
H489   H     0.58914   0.27637   0.71853   0.00000  Uiso   1.00
H490   H     0.93701   0.17040   0.51718   0.00000  Uiso   1.00
H491   H     0.89600   0.41718   0.70110   0.00000  Uiso   1.00
H492   H     0.90047   0.54662   0.67355   0.00000  Uiso   1.00
H493   H     0.81713   0.38021   0.76776   0.00000  Uiso   1.00
H494   H     0.98210   0.32996   0.67228   0.00000  Uiso   1.00
H495   H     0.88691   0.68185   0.62682   0.00000  Uiso   1.00
H496   H     0.71119   0.33094   0.82546   0.00000  Uiso   1.00
H497   H     0.05907   0.22497   0.62411   0.00000  Uiso   1.00
O498   O     0.82624   0.73857   0.55299   0.00000  Uiso   1.00
O499   O     0.59571   0.27817   0.81360   0.00000  Uiso   1.00
O500   O     0.05211   0.13915   0.54943   0.00000  Uiso   1.00
N501   N     0.79298   0.62236   0.54882   0.00000  Uiso   1.00
N502   N     0.62869   0.29429   0.73454   0.00000  Uiso   1.00
N503   N     0.95391   0.19520   0.54631   0.00000  Uiso   1.00
N504   N     0.85866   0.65172   0.60637   0.00000  Uiso   1.00
N505   N     0.69437   0.32365   0.79209   0.00000  Uiso   1.00
N506   N     0.01959   0.22457   0.60385   0.00000  Uiso   1.00
C507   C     0.28610   0.86805   0.60481   0.00000  Uiso   1.00
C508   C     0.30405   0.94531   0.60344   0.00000  Uiso   1.00
C509   C     0.28256   0.99392   0.57024   0.00000  Uiso   1.00
C510   C     0.30452   0.06203   0.57509   0.00000  Uiso   1.00
C511   C     0.32599   0.17915   0.56739   0.00000  Uiso   1.00
C512   C     0.25877   0.85490   0.65462   0.00000  Uiso   1.00
C513   C     0.19920   0.82748   0.66446   0.00000  Uiso   1.00
C514   C     0.18305   0.81948   0.71241   0.00000  Uiso   1.00
C515   C     0.13423   0.79619   0.78417   0.00000  Uiso   1.00
C516   C     0.34840   0.82761   0.60274   0.00000  Uiso   1.00
C517   C     0.36420   0.77722   0.56896   0.00000  Uiso   1.00
C518   C     0.42350   0.74622   0.57323   0.00000  Uiso   1.00
C519   C     0.51386   0.68055   0.56444   0.00000  Uiso   1.00
C520   C     0.36334   0.90258   0.67248   0.00000  Uiso   1.00
C521   C     0.34600   0.96407   0.64019   0.00000  Uiso   1.00
C522   C     0.36801   0.03212   0.64510   0.00000  Uiso   1.00
C523   C     0.34655   0.08082   0.61191   0.00000  Uiso   1.00
C524   C     0.30072   0.87366   0.69138   0.00000  Uiso   1.00
C525   C     0.28465   0.86569   0.73933   0.00000  Uiso   1.00
C526   C     0.22507   0.83827   0.74923   0.00000  Uiso   1.00
C527   C     0.39035   0.84636   0.63950   0.00000  Uiso   1.00
C528   C     0.44965   0.81543   0.64383   0.00000  Uiso   1.00
C529   C     0.46553   0.76501   0.61006   0.00000  Uiso   1.00
H530   H     0.25344   0.85345   0.57620   0.00000  Uiso   1.00
H531   H     0.25009   0.97938   0.54180   0.00000  Uiso   1.00
H532   H     0.16675   0.81297   0.63601   0.00000  Uiso   1.00
H533   H     0.33172   0.76272   0.54052   0.00000  Uiso   1.00
H534   H     0.26486   0.12728   0.51988   0.00000  Uiso   1.00
H535   H     0.08914   0.77637   0.71853   0.00000  Uiso   1.00
H536   H     0.43701   0.67040   0.51718   0.00000  Uiso   1.00
H537   H     0.39600   0.91718   0.70110   0.00000  Uiso   1.00
H538   H     0.40047   0.04662   0.67355   0.00000  Uiso   1.00
H539   H     0.31713   0.88021   0.76776   0.00000  Uiso   1.00
H540   H     0.48210   0.82996   0.67228   0.00000  Uiso   1.00
H541   H     0.38691   0.18185   0.62682   0.00000  Uiso   1.00
H542   H     0.21119   0.83094   0.82546   0.00000  Uiso   1.00
H543   H     0.55907   0.72497   0.62411   0.00000  Uiso   1.00
O544   O     0.32624   0.23857   0.55299   0.00000  Uiso   1.00
O545   O     0.09571   0.77817   0.81360   0.00000  Uiso   1.00
O546   O     0.55211   0.63915   0.54943   0.00000  Uiso   1.00
N547   N     0.29298   0.12236   0.54882   0.00000  Uiso   1.00
N548   N     0.12869   0.79429   0.73454   0.00000  Uiso   1.00
N549   N     0.45391   0.69520   0.54631   0.00000  Uiso   1.00
N550   N     0.35866   0.15172   0.60637   0.00000  Uiso   1.00
N551   N     0.19437   0.82365   0.79209   0.00000  Uiso   1.00
N552   N     0.51959   0.72457   0.60385   0.00000  Uiso   1.00
C553   C     0.28610   0.13195   0.39519   0.00000  Uiso   1.00
C554   C     0.30405   0.05469   0.39656   0.00000  Uiso   1.00
C555   C     0.28256   0.00608   0.42976   0.00000  Uiso   1.00
C556   C     0.30452   0.93797   0.42491   0.00000  Uiso   1.00
C557   C     0.32599   0.82085   0.43261   0.00000  Uiso   1.00
C558   C     0.25877   0.14510   0.34538   0.00000  Uiso   1.00
C559   C     0.19920   0.17252   0.33554   0.00000  Uiso   1.00
C560   C     0.18305   0.18052   0.28759   0.00000  Uiso   1.00
C561   C     0.13423   0.20381   0.21583   0.00000  Uiso   1.00
C562   C     0.34840   0.17239   0.39726   0.00000  Uiso   1.00
C563   C     0.36420   0.22278   0.43104   0.00000  Uiso   1.00
C564   C     0.42350   0.25378   0.42677   0.00000  Uiso   1.00
C565   C     0.51386   0.31945   0.43556   0.00000  Uiso   1.00
C566   C     0.36334   0.09742   0.32752   0.00000  Uiso   1.00
C567   C     0.34600   0.03593   0.35981   0.00000  Uiso   1.00
C568   C     0.36801   0.96788   0.35490   0.00000  Uiso   1.00
C569   C     0.34655   0.91918   0.38809   0.00000  Uiso   1.00
C570   C     0.30072   0.12634   0.30862   0.00000  Uiso   1.00
C571   C     0.28465   0.13431   0.26067   0.00000  Uiso   1.00
C572   C     0.22507   0.16173   0.25077   0.00000  Uiso   1.00
C573   C     0.39035   0.15364   0.36050   0.00000  Uiso   1.00
C574   C     0.44965   0.18457   0.35617   0.00000  Uiso   1.00
C575   C     0.46553   0.23499   0.38994   0.00000  Uiso   1.00
H576   H     0.25344   0.14655   0.42380   0.00000  Uiso   1.00
H577   H     0.25009   0.02062   0.45820   0.00000  Uiso   1.00
H578   H     0.16675   0.18703   0.36399   0.00000  Uiso   1.00
H579   H     0.33172   0.23728   0.45948   0.00000  Uiso   1.00
H580   H     0.26486   0.87272   0.48012   0.00000  Uiso   1.00
H581   H     0.08914   0.22363   0.28147   0.00000  Uiso   1.00
H582   H     0.43701   0.32960   0.48282   0.00000  Uiso   1.00
H583   H     0.39600   0.08282   0.29890   0.00000  Uiso   1.00
H584   H     0.40047   0.95338   0.32645   0.00000  Uiso   1.00
H585   H     0.31713   0.11979   0.23224   0.00000  Uiso   1.00
H586   H     0.48210   0.17004   0.32772   0.00000  Uiso   1.00
H587   H     0.38691   0.81815   0.37318   0.00000  Uiso   1.00
H588   H     0.21119   0.16906   0.17454   0.00000  Uiso   1.00
H589   H     0.55907   0.27503   0.37589   0.00000  Uiso   1.00
O590   O     0.32624   0.76143   0.44701   0.00000  Uiso   1.00
O591   O     0.09571   0.22183   0.18640   0.00000  Uiso   1.00
O592   O     0.55211   0.36085   0.45057   0.00000  Uiso   1.00
N593   N     0.29298   0.87764   0.45118   0.00000  Uiso   1.00
N594   N     0.12869   0.20571   0.26546   0.00000  Uiso   1.00
N595   N     0.45391   0.30480   0.45369   0.00000  Uiso   1.00
N596   N     0.35866   0.84828   0.39363   0.00000  Uiso   1.00
N597   N     0.19437   0.17635   0.20791   0.00000  Uiso   1.00
N598   N     0.51959   0.27543   0.39615   0.00000  Uiso   1.00
C599   C     0.78610   0.63195   0.39519   0.00000  Uiso   1.00
C600   C     0.80405   0.55469   0.39656   0.00000  Uiso   1.00
C601   C     0.78256   0.50608   0.42976   0.00000  Uiso   1.00
C602   C     0.80452   0.43797   0.42491   0.00000  Uiso   1.00
C603   C     0.82599   0.32085   0.43261   0.00000  Uiso   1.00
C604   C     0.75877   0.64510   0.34538   0.00000  Uiso   1.00
C605   C     0.69920   0.67252   0.33554   0.00000  Uiso   1.00
C606   C     0.68305   0.68052   0.28759   0.00000  Uiso   1.00
C607   C     0.63423   0.70381   0.21583   0.00000  Uiso   1.00
C608   C     0.84840   0.67239   0.39726   0.00000  Uiso   1.00
C609   C     0.86420   0.72278   0.43104   0.00000  Uiso   1.00
C610   C     0.92350   0.75378   0.42677   0.00000  Uiso   1.00
C611   C     0.01386   0.81945   0.43556   0.00000  Uiso   1.00
C612   C     0.86334   0.59742   0.32752   0.00000  Uiso   1.00
C613   C     0.84600   0.53593   0.35981   0.00000  Uiso   1.00
C614   C     0.86801   0.46788   0.35490   0.00000  Uiso   1.00
C615   C     0.84655   0.41918   0.38809   0.00000  Uiso   1.00
C616   C     0.80072   0.62634   0.30862   0.00000  Uiso   1.00
C617   C     0.78465   0.63431   0.26067   0.00000  Uiso   1.00
C618   C     0.72507   0.66173   0.25077   0.00000  Uiso   1.00
C619   C     0.89035   0.65364   0.36050   0.00000  Uiso   1.00
C620   C     0.94965   0.68457   0.35617   0.00000  Uiso   1.00
C621   C     0.96553   0.73499   0.38994   0.00000  Uiso   1.00
H622   H     0.75344   0.64655   0.42380   0.00000  Uiso   1.00
H623   H     0.75009   0.52062   0.45820   0.00000  Uiso   1.00
H624   H     0.66675   0.68703   0.36399   0.00000  Uiso   1.00
H625   H     0.83172   0.73728   0.45948   0.00000  Uiso   1.00
H626   H     0.76486   0.37272   0.48012   0.00000  Uiso   1.00
H627   H     0.58914   0.72363   0.28147   0.00000  Uiso   1.00
H628   H     0.93701   0.82960   0.48282   0.00000  Uiso   1.00
H629   H     0.89600   0.58282   0.29890   0.00000  Uiso   1.00
H630   H     0.90047   0.45338   0.32645   0.00000  Uiso   1.00
H631   H     0.81713   0.61979   0.23224   0.00000  Uiso   1.00
H632   H     0.98210   0.67004   0.32772   0.00000  Uiso   1.00
H633   H     0.88691   0.31815   0.37318   0.00000  Uiso   1.00
H634   H     0.71119   0.66906   0.17454   0.00000  Uiso   1.00
H635   H     0.05907   0.77503   0.37589   0.00000  Uiso   1.00
O636   O     0.82624   0.26143   0.44701   0.00000  Uiso   1.00
O637   O     0.59571   0.72183   0.18640   0.00000  Uiso   1.00
O638   O     0.05211   0.86085   0.45057   0.00000  Uiso   1.00
N639   N     0.79298   0.37764   0.45118   0.00000  Uiso   1.00
N640   N     0.62869   0.70571   0.26546   0.00000  Uiso   1.00
N641   N     0.95391   0.80480   0.45369   0.00000  Uiso   1.00
N642   N     0.85866   0.34828   0.39363   0.00000  Uiso   1.00
N643   N     0.69437   0.67635   0.20791   0.00000  Uiso   1.00
N644   N     0.01959   0.77543   0.39615   0.00000  Uiso   1.00
C645   C     0.21390   0.36805   0.39519   0.00000  Uiso   1.00
C646   C     0.19595   0.44531   0.39656   0.00000  Uiso   1.00
C647   C     0.21744   0.49392   0.42976   0.00000  Uiso   1.00
C648   C     0.19548   0.56203   0.42491   0.00000  Uiso   1.00
C649   C     0.17401   0.67915   0.43261   0.00000  Uiso   1.00
C650   C     0.24123   0.35490   0.34538   0.00000  Uiso   1.00
C651   C     0.30080   0.32748   0.33554   0.00000  Uiso   1.00
C652   C     0.31695   0.31948   0.28759   0.00000  Uiso   1.00
C653   C     0.36577   0.29619   0.21583   0.00000  Uiso   1.00
C654   C     0.15160   0.32761   0.39726   0.00000  Uiso   1.00
C655   C     0.13580   0.27722   0.43104   0.00000  Uiso   1.00
C656   C     0.07650   0.24622   0.42677   0.00000  Uiso   1.00
C657   C     0.98614   0.18055   0.43556   0.00000  Uiso   1.00
C658   C     0.13666   0.40258   0.32752   0.00000  Uiso   1.00
C659   C     0.15400   0.46407   0.35981   0.00000  Uiso   1.00
C660   C     0.13199   0.53212   0.35490   0.00000  Uiso   1.00
C661   C     0.15345   0.58082   0.38809   0.00000  Uiso   1.00
C662   C     0.19928   0.37366   0.30862   0.00000  Uiso   1.00
C663   C     0.21535   0.36569   0.26067   0.00000  Uiso   1.00
C664   C     0.27493   0.33827   0.25077   0.00000  Uiso   1.00
C665   C     0.10965   0.34636   0.36050   0.00000  Uiso   1.00
C666   C     0.05035   0.31543   0.35617   0.00000  Uiso   1.00
C667   C     0.03447   0.26501   0.38994   0.00000  Uiso   1.00
H668   H     0.24656   0.35345   0.42380   0.00000  Uiso   1.00
H669   H     0.24991   0.47938   0.45820   0.00000  Uiso   1.00
H670   H     0.33325   0.31297   0.36399   0.00000  Uiso   1.00
H671   H     0.16828   0.26272   0.45948   0.00000  Uiso   1.00
H672   H     0.23514   0.62728   0.48012   0.00000  Uiso   1.00
H673   H     0.41086   0.27637   0.28147   0.00000  Uiso   1.00
H674   H     0.06299   0.17040   0.48282   0.00000  Uiso   1.00
H675   H     0.10400   0.41718   0.29890   0.00000  Uiso   1.00
H676   H     0.09953   0.54662   0.32645   0.00000  Uiso   1.00
H677   H     0.18287   0.38021   0.23224   0.00000  Uiso   1.00
H678   H     0.01790   0.32996   0.32772   0.00000  Uiso   1.00
H679   H     0.11309   0.68185   0.37318   0.00000  Uiso   1.00
H680   H     0.28881   0.33094   0.17454   0.00000  Uiso   1.00
H681   H     0.94093   0.22497   0.37589   0.00000  Uiso   1.00
O682   O     0.17376   0.73857   0.44701   0.00000  Uiso   1.00
O683   O     0.40429   0.27817   0.18640   0.00000  Uiso   1.00
O684   O     0.94789   0.13915   0.45057   0.00000  Uiso   1.00
N685   N     0.20702   0.62236   0.45118   0.00000  Uiso   1.00
N686   N     0.37131   0.29429   0.26546   0.00000  Uiso   1.00
N687   N     0.04609   0.19520   0.45369   0.00000  Uiso   1.00
N688   N     0.14134   0.65172   0.39363   0.00000  Uiso   1.00
N689   N     0.30563   0.32365   0.20791   0.00000  Uiso   1.00
N690   N     0.98041   0.22457   0.39615   0.00000  Uiso   1.00
C691   C     0.71390   0.86805   0.39519   0.00000  Uiso   1.00
C692   C     0.69595   0.94531   0.39656   0.00000  Uiso   1.00
C693   C     0.71744   0.99392   0.42976   0.00000  Uiso   1.00
C694   C     0.69548   0.06203   0.42491   0.00000  Uiso   1.00
C695   C     0.67401   0.17915   0.43261   0.00000  Uiso   1.00
C696   C     0.74123   0.85490   0.34538   0.00000  Uiso   1.00
C697   C     0.80080   0.82748   0.33554   0.00000  Uiso   1.00
C698   C     0.81695   0.81948   0.28759   0.00000  Uiso   1.00
C699   C     0.86577   0.79619   0.21583   0.00000  Uiso   1.00
C700   C     0.65160   0.82761   0.39726   0.00000  Uiso   1.00
C701   C     0.63580   0.77722   0.43104   0.00000  Uiso   1.00
C702   C     0.57650   0.74622   0.42677   0.00000  Uiso   1.00
C703   C     0.48614   0.68055   0.43556   0.00000  Uiso   1.00
C704   C     0.63666   0.90258   0.32752   0.00000  Uiso   1.00
C705   C     0.65400   0.96407   0.35981   0.00000  Uiso   1.00
C706   C     0.63199   0.03212   0.35490   0.00000  Uiso   1.00
C707   C     0.65345   0.08082   0.38809   0.00000  Uiso   1.00
C708   C     0.69928   0.87366   0.30862   0.00000  Uiso   1.00
C709   C     0.71535   0.86569   0.26067   0.00000  Uiso   1.00
C710   C     0.77493   0.83827   0.25077   0.00000  Uiso   1.00
C711   C     0.60965   0.84636   0.36050   0.00000  Uiso   1.00
C712   C     0.55035   0.81543   0.35617   0.00000  Uiso   1.00
C713   C     0.53447   0.76501   0.38994   0.00000  Uiso   1.00
H714   H     0.74656   0.85345   0.42380   0.00000  Uiso   1.00
H715   H     0.74991   0.97938   0.45820   0.00000  Uiso   1.00
H716   H     0.83325   0.81297   0.36399   0.00000  Uiso   1.00
H717   H     0.66828   0.76272   0.45948   0.00000  Uiso   1.00
H718   H     0.73514   0.12728   0.48012   0.00000  Uiso   1.00
H719   H     0.91086   0.77637   0.28147   0.00000  Uiso   1.00
H720   H     0.56299   0.67040   0.48282   0.00000  Uiso   1.00
H721   H     0.60400   0.91718   0.29890   0.00000  Uiso   1.00
H722   H     0.59953   0.04662   0.32645   0.00000  Uiso   1.00
H723   H     0.68287   0.88021   0.23224   0.00000  Uiso   1.00
H724   H     0.51790   0.82996   0.32772   0.00000  Uiso   1.00
H725   H     0.61309   0.18185   0.37318   0.00000  Uiso   1.00
H726   H     0.78881   0.83094   0.17454   0.00000  Uiso   1.00
H727   H     0.44093   0.72497   0.37589   0.00000  Uiso   1.00
O728   O     0.67376   0.23857   0.44701   0.00000  Uiso   1.00
O729   O     0.90429   0.77817   0.18640   0.00000  Uiso   1.00
O730   O     0.44789   0.63915   0.45057   0.00000  Uiso   1.00
N731   N     0.70702   0.12236   0.45118   0.00000  Uiso   1.00
N732   N     0.87131   0.79429   0.26546   0.00000  Uiso   1.00
N733   N     0.54609   0.69520   0.45369   0.00000  Uiso   1.00
N734   N     0.64134   0.15172   0.39363   0.00000  Uiso   1.00
N735   N     0.80563   0.82365   0.20791   0.00000  Uiso   1.00
N736   N     0.48041   0.72457   0.39615   0.00000  Uiso   1.00
