data_job_03250
_audit_creation_date              2018-12-19
_audit_creation_method            'Materials Studio'
_symmetry_space_group_name_H-M    'P1'
_symmetry_Int_Tables_number       1
_symmetry_cell_setting            triclinic
loop_
_symmetry_equiv_pos_as_xyz
  x,y,z
_cell_length_a                    36.8568
_cell_length_b                    38.5437
_cell_length_c                    19.7552
_cell_angle_alpha                 90.0000
_cell_angle_beta                  90.0000
_cell_angle_gamma                 90.0000
loop_
_atom_site_label
_atom_site_type_symbol
_atom_site_fract_x
_atom_site_fract_y
_atom_site_fract_z
_atom_site_U_iso_or_equiv
_atom_site_adp_type
_atom_site_occupancy
C1     C     0.66781   0.16453   0.81398   0.00000  Uiso   1.00
C2     C     0.65408   0.18859   0.75830   0.00000  Uiso   1.00
C3     C     0.66583   0.22228   0.74674   0.00000  Uiso   1.00
C4     C     0.64990   0.24000   0.69326   0.00000  Uiso   1.00
C5     C     0.63263   0.27971   0.61297   0.00000  Uiso   1.00
C6     C     0.63442   0.15366   0.85432   0.00000  Uiso   1.00
C7     C     0.62964   0.15798   0.92349   0.00000  Uiso   1.00
C8     C     0.09716   0.64630   0.95084   0.00000  Uiso   1.00
C9     C     0.04937   0.63176   0.01963   0.00000  Uiso   1.00
C10    C     0.68123   0.13187   0.77833   0.00000  Uiso   1.00
C11    C     0.71581   0.11787   0.78363   0.00000  Uiso   1.00
C12    C     0.72273   0.08784   0.74701   0.00000  Uiso   1.00
C13    C     0.74763   0.03947   0.69782   0.00000  Uiso   1.00
C14    C     0.11864   0.63610   0.73956   0.00000  Uiso   1.00
C15    C     0.62737   0.17314   0.71788   0.00000  Uiso   1.00
C16    C     0.61142   0.19082   0.66440   0.00000  Uiso   1.00
C17    C     0.62314   0.22453   0.65276   0.00000  Uiso   1.00
C18    C     0.10771   0.63822   0.81390   0.00000  Uiso   1.00
C19    C     0.07523   0.62653   0.84115   0.00000  Uiso   1.00
C20    C     0.07040   0.63083   0.91034   0.00000  Uiso   1.00
C21    C     0.65452   0.11643   0.73791   0.00000  Uiso   1.00
C22    C     0.16140   0.58642   0.70128   0.00000  Uiso   1.00
C23    C     0.69597   0.07237   0.70652   0.00000  Uiso   1.00
H24    H     0.68861   0.17656   0.84545   0.00000  Uiso   1.00
H25    H     0.68650   0.23422   0.77804   0.00000  Uiso   1.00
H26    H     0.65032   0.16993   0.95476   0.00000  Uiso   1.00
H27    H     0.73647   0.12983   0.81491   0.00000  Uiso   1.00
H28    H     0.67238   0.29135   0.68548   0.00000  Uiso   1.00
H29    H     0.09608   0.65578   0.05811   0.00000  Uiso   1.00
H30    H     0.77775   0.07121   0.76322   0.00000  Uiso   1.00
H31    H     0.09784   0.62408   0.70809   0.00000  Uiso   1.00
H32    H     0.59075   0.17886   0.63313   0.00000  Uiso   1.00
H33    H     0.05456   0.61458   0.80986   0.00000  Uiso   1.00
H34    H     0.14072   0.57447   0.67001   0.00000  Uiso   1.00
H35    H     0.59466   0.24642   0.56787   0.00000  Uiso   1.00
H36    H     0.01837   0.61085   0.94051   0.00000  Uiso   1.00
H37    H     0.20004   0.52629   0.64561   0.00000  Uiso   1.00
O38    O     0.63049   0.30587   0.57986   0.00000  Uiso   1.00
O39    O     0.03039   0.62801   0.06874   0.00000  Uiso   1.00
O40    O     0.26874   0.51706   0.68185   0.00000  Uiso   1.00
N41    N     0.65506   0.27325   0.66808   0.00000  Uiso   1.00
N42    N     0.08373   0.64651   0.01647   0.00000  Uiso   1.00
N43    N     0.75358   0.06744   0.74078   0.00000  Uiso   1.00
N44    N     0.61325   0.24908   0.60480   0.00000  Uiso   1.00
N45    N     0.04191   0.62233   0.95318   0.00000  Uiso   1.00
N46    N     0.21176   0.54327   0.67750   0.00000  Uiso   1.00
C47    C     0.84083   0.16605   0.81076   0.00000  Uiso   1.00
C48    C     0.81428   0.15954   0.75295   0.00000  Uiso   1.00
C49    C     0.78361   0.17913   0.73880   0.00000  Uiso   1.00
C50    C     0.76281   0.16894   0.68368   0.00000  Uiso   1.00
C51    C     0.72011   0.16319   0.59995   0.00000  Uiso   1.00
C52    C     0.84219   0.13246   0.85147   0.00000  Uiso   1.00
C53    C     0.83500   0.12930   0.92015   0.00000  Uiso   1.00
C54    C     0.83770   0.09632   0.94797   0.00000  Uiso   1.00
C55    C     0.33837   0.54854   0.01721   0.00000  Uiso   1.00
C56    C     0.87809   0.16987   0.77802   0.00000  Uiso   1.00
C57    C     0.90109   0.19816   0.78496   0.00000  Uiso   1.00
C58    C     0.93402   0.19667   0.75096   0.00000  Uiso   1.00
C59    C     0.49042   0.70698   0.70615   0.00000  Uiso   1.00
C60    C     0.85842   0.11311   0.73804   0.00000  Uiso   1.00
C61    C     0.82383   0.13078   0.71345   0.00000  Uiso   1.00
C62    C     0.80307   0.12056   0.65834   0.00000  Uiso   1.00
C63    C     0.77238   0.14014   0.64411   0.00000  Uiso   1.00
C64    C     0.85174   0.10371   0.81197   0.00000  Uiso   1.00
C65    C     0.35446   0.57073   0.83970   0.00000  Uiso   1.00
C66    C     0.34727   0.56751   0.90840   0.00000  Uiso   1.00
C67    C     0.88764   0.14112   0.73852   0.00000  Uiso   1.00
C68    C     0.42055   0.63959   0.70450   0.00000  Uiso   1.00
C69    C     0.44359   0.66787   0.71139   0.00000  Uiso   1.00
H70    H     0.83340   0.18844   0.84151   0.00000  Uiso   1.00
H71    H     0.77622   0.20138   0.76938   0.00000  Uiso   1.00
H72    H     0.82761   0.15156   0.95071   0.00000  Uiso   1.00
H73    H     0.89369   0.22041   0.81553   0.00000  Uiso   1.00
H74    H     0.71705   0.20304   0.67200   0.00000  Uiso   1.00
H75    H     0.82541   0.09799   0.05435   0.00000  Uiso   1.00
H76    H     0.96474   0.24317   0.76931   0.00000  Uiso   1.00
H77    H     0.36586   0.59072   0.70729   0.00000  Uiso   1.00
H78    H     0.81047   0.09831   0.62778   0.00000  Uiso   1.00
H79    H     0.36186   0.54848   0.80912   0.00000  Uiso   1.00
H80    H     0.42793   0.61733   0.67394   0.00000  Uiso   1.00
H81    H     0.74484   0.11938   0.55708   0.00000  Uiso   1.00
H82    H     0.35320   0.51433   0.93943   0.00000  Uiso   1.00
H83    H     0.49254   0.65951   0.65439   0.00000  Uiso   1.00
O84    O     0.69391   0.16796   0.56468   0.00000  Uiso   1.00
O85    O     0.33609   0.53013   0.06631   0.00000  Uiso   1.00
O86    O     0.51889   0.72061   0.69234   0.00000  Uiso   1.00
N87    N     0.73119   0.18232   0.65586   0.00000  Uiso   1.00
N88    N     0.83250   0.08409   0.01333   0.00000  Uiso   1.00
N89    N     0.96277   0.21983   0.74686   0.00000  Uiso   1.00
N90    N     0.74615   0.13730   0.59402   0.00000  Uiso   1.00
N91    N     0.34745   0.53908   0.95149   0.00000  Uiso   1.00
N92    N     0.47773   0.67481   0.68502   0.00000  Uiso   1.00
C93    C     0.16781   0.66453   0.81398   0.00000  Uiso   1.00
C94    C     0.15408   0.68859   0.75830   0.00000  Uiso   1.00
C95    C     0.16583   0.72228   0.74674   0.00000  Uiso   1.00
C96    C     0.14990   0.74000   0.69326   0.00000  Uiso   1.00
C97    C     0.13263   0.77971   0.61297   0.00000  Uiso   1.00
C98    C     0.13442   0.65366   0.85432   0.00000  Uiso   1.00
C99    C     0.12964   0.65798   0.92349   0.00000  Uiso   1.00
C100   C     0.59716   0.14630   0.95084   0.00000  Uiso   1.00
C101   C     0.54937   0.13176   0.01963   0.00000  Uiso   1.00
C102   C     0.18123   0.63187   0.77833   0.00000  Uiso   1.00
C103   C     0.21581   0.61787   0.78363   0.00000  Uiso   1.00
C104   C     0.22273   0.58784   0.74701   0.00000  Uiso   1.00
C105   C     0.24763   0.53947   0.69782   0.00000  Uiso   1.00
C106   C     0.61864   0.13610   0.73956   0.00000  Uiso   1.00
C107   C     0.12737   0.67314   0.71788   0.00000  Uiso   1.00
C108   C     0.11142   0.69082   0.66440   0.00000  Uiso   1.00
C109   C     0.12314   0.72453   0.65276   0.00000  Uiso   1.00
C110   C     0.60771   0.13822   0.81390   0.00000  Uiso   1.00
C111   C     0.57523   0.12653   0.84115   0.00000  Uiso   1.00
C112   C     0.57040   0.13083   0.91034   0.00000  Uiso   1.00
C113   C     0.15452   0.61643   0.73791   0.00000  Uiso   1.00
C114   C     0.66140   0.08642   0.70128   0.00000  Uiso   1.00
C115   C     0.19597   0.57237   0.70652   0.00000  Uiso   1.00
H116   H     0.18861   0.67656   0.84545   0.00000  Uiso   1.00
H117   H     0.18650   0.73422   0.77804   0.00000  Uiso   1.00
H118   H     0.15032   0.66993   0.95476   0.00000  Uiso   1.00
H119   H     0.23647   0.62983   0.81491   0.00000  Uiso   1.00
H120   H     0.17238   0.79135   0.68548   0.00000  Uiso   1.00
H121   H     0.59608   0.15578   0.05811   0.00000  Uiso   1.00
H122   H     0.27775   0.57121   0.76322   0.00000  Uiso   1.00
H123   H     0.59784   0.12408   0.70809   0.00000  Uiso   1.00
H124   H     0.09075   0.67886   0.63313   0.00000  Uiso   1.00
H125   H     0.55456   0.11458   0.80986   0.00000  Uiso   1.00
H126   H     0.64072   0.07447   0.67001   0.00000  Uiso   1.00
H127   H     0.09466   0.74642   0.56787   0.00000  Uiso   1.00
H128   H     0.51837   0.11085   0.94051   0.00000  Uiso   1.00
H129   H     0.70004   0.02629   0.64561   0.00000  Uiso   1.00
O130   O     0.13049   0.80587   0.57986   0.00000  Uiso   1.00
O131   O     0.53039   0.12801   0.06874   0.00000  Uiso   1.00
O132   O     0.76874   0.01706   0.68185   0.00000  Uiso   1.00
N133   N     0.15506   0.77325   0.66808   0.00000  Uiso   1.00
N134   N     0.58373   0.14651   0.01647   0.00000  Uiso   1.00
N135   N     0.25358   0.56744   0.74078   0.00000  Uiso   1.00
N136   N     0.11325   0.74908   0.60480   0.00000  Uiso   1.00
N137   N     0.54191   0.12233   0.95318   0.00000  Uiso   1.00
N138   N     0.71176   0.04327   0.67750   0.00000  Uiso   1.00
C139   C     0.34083   0.66605   0.81076   0.00000  Uiso   1.00
C140   C     0.31428   0.65954   0.75295   0.00000  Uiso   1.00
C141   C     0.28361   0.67913   0.73880   0.00000  Uiso   1.00
C142   C     0.26281   0.66894   0.68368   0.00000  Uiso   1.00
C143   C     0.22011   0.66319   0.59995   0.00000  Uiso   1.00
C144   C     0.34219   0.63246   0.85147   0.00000  Uiso   1.00
C145   C     0.33500   0.62930   0.92015   0.00000  Uiso   1.00
C146   C     0.33770   0.59632   0.94797   0.00000  Uiso   1.00
C147   C     0.83837   0.04854   0.01721   0.00000  Uiso   1.00
C148   C     0.37809   0.66987   0.77802   0.00000  Uiso   1.00
C149   C     0.40109   0.69816   0.78496   0.00000  Uiso   1.00
C150   C     0.43402   0.69667   0.75096   0.00000  Uiso   1.00
C151   C     0.99042   0.20698   0.70615   0.00000  Uiso   1.00
C152   C     0.35842   0.61311   0.73804   0.00000  Uiso   1.00
C153   C     0.32383   0.63078   0.71345   0.00000  Uiso   1.00
C154   C     0.30307   0.62056   0.65834   0.00000  Uiso   1.00
C155   C     0.27238   0.64014   0.64411   0.00000  Uiso   1.00
C156   C     0.35174   0.60371   0.81197   0.00000  Uiso   1.00
C157   C     0.85446   0.07073   0.83970   0.00000  Uiso   1.00
C158   C     0.84727   0.06751   0.90840   0.00000  Uiso   1.00
C159   C     0.38764   0.64112   0.73852   0.00000  Uiso   1.00
C160   C     0.92055   0.13959   0.70450   0.00000  Uiso   1.00
C161   C     0.94359   0.16787   0.71139   0.00000  Uiso   1.00
H162   H     0.33340   0.68844   0.84151   0.00000  Uiso   1.00
H163   H     0.27622   0.70138   0.76938   0.00000  Uiso   1.00
H164   H     0.32761   0.65156   0.95071   0.00000  Uiso   1.00
H165   H     0.39369   0.72041   0.81553   0.00000  Uiso   1.00
H166   H     0.21705   0.70304   0.67200   0.00000  Uiso   1.00
H167   H     0.32541   0.59799   0.05435   0.00000  Uiso   1.00
H168   H     0.46474   0.74317   0.76931   0.00000  Uiso   1.00
H169   H     0.86586   0.09072   0.70729   0.00000  Uiso   1.00
H170   H     0.31047   0.59831   0.62778   0.00000  Uiso   1.00
H171   H     0.86186   0.04848   0.80912   0.00000  Uiso   1.00
H172   H     0.92793   0.11733   0.67394   0.00000  Uiso   1.00
H173   H     0.24484   0.61938   0.55708   0.00000  Uiso   1.00
H174   H     0.85320   0.01433   0.93943   0.00000  Uiso   1.00
H175   H     0.99254   0.15951   0.65439   0.00000  Uiso   1.00
O176   O     0.19391   0.66796   0.56468   0.00000  Uiso   1.00
O177   O     0.83609   0.03013   0.06631   0.00000  Uiso   1.00
O178   O     0.01889   0.22061   0.69234   0.00000  Uiso   1.00
N179   N     0.23119   0.68232   0.65586   0.00000  Uiso   1.00
N180   N     0.33250   0.58409   0.01333   0.00000  Uiso   1.00
N181   N     0.46277   0.71983   0.74686   0.00000  Uiso   1.00
N182   N     0.24615   0.63730   0.59402   0.00000  Uiso   1.00
N183   N     0.84745   0.03908   0.95149   0.00000  Uiso   1.00
N184   N     0.97773   0.17481   0.68502   0.00000  Uiso   1.00
C185   C     0.83219   0.33547   0.81398   0.00000  Uiso   1.00
C186   C     0.84592   0.31141   0.75830   0.00000  Uiso   1.00
C187   C     0.83417   0.27772   0.74674   0.00000  Uiso   1.00
C188   C     0.85010   0.26000   0.69326   0.00000  Uiso   1.00
C189   C     0.86737   0.22029   0.61297   0.00000  Uiso   1.00
C190   C     0.86558   0.34634   0.85432   0.00000  Uiso   1.00
C191   C     0.87036   0.34202   0.92349   0.00000  Uiso   1.00
C192   C     0.40284   0.85370   0.95084   0.00000  Uiso   1.00
C193   C     0.45063   0.86824   0.01963   0.00000  Uiso   1.00
C194   C     0.81877   0.36813   0.77833   0.00000  Uiso   1.00
C195   C     0.78419   0.38213   0.78363   0.00000  Uiso   1.00
C196   C     0.77727   0.41216   0.74701   0.00000  Uiso   1.00
C197   C     0.75237   0.46053   0.69782   0.00000  Uiso   1.00
C198   C     0.38136   0.86390   0.73956   0.00000  Uiso   1.00
C199   C     0.87263   0.32686   0.71788   0.00000  Uiso   1.00
C200   C     0.88858   0.30918   0.66440   0.00000  Uiso   1.00
C201   C     0.87686   0.27547   0.65276   0.00000  Uiso   1.00
C202   C     0.39229   0.86178   0.81390   0.00000  Uiso   1.00
C203   C     0.42477   0.87347   0.84115   0.00000  Uiso   1.00
C204   C     0.42960   0.86917   0.91034   0.00000  Uiso   1.00
C205   C     0.84548   0.38357   0.73791   0.00000  Uiso   1.00
C206   C     0.33860   0.91358   0.70128   0.00000  Uiso   1.00
C207   C     0.80403   0.42763   0.70652   0.00000  Uiso   1.00
H208   H     0.81139   0.32344   0.84545   0.00000  Uiso   1.00
H209   H     0.81350   0.26578   0.77804   0.00000  Uiso   1.00
H210   H     0.84968   0.33007   0.95476   0.00000  Uiso   1.00
H211   H     0.76353   0.37017   0.81491   0.00000  Uiso   1.00
H212   H     0.82762   0.20865   0.68548   0.00000  Uiso   1.00
H213   H     0.40392   0.84422   0.05811   0.00000  Uiso   1.00
H214   H     0.72225   0.42879   0.76322   0.00000  Uiso   1.00
H215   H     0.40216   0.87592   0.70809   0.00000  Uiso   1.00
H216   H     0.90925   0.32114   0.63313   0.00000  Uiso   1.00
H217   H     0.44544   0.88542   0.80986   0.00000  Uiso   1.00
H218   H     0.35928   0.92553   0.67001   0.00000  Uiso   1.00
H219   H     0.90534   0.25358   0.56787   0.00000  Uiso   1.00
H220   H     0.48163   0.88915   0.94051   0.00000  Uiso   1.00
H221   H     0.29996   0.97371   0.64561   0.00000  Uiso   1.00
O222   O     0.86951   0.19413   0.57986   0.00000  Uiso   1.00
O223   O     0.46961   0.87199   0.06874   0.00000  Uiso   1.00
O224   O     0.23126   0.98294   0.68185   0.00000  Uiso   1.00
N225   N     0.84494   0.22675   0.66808   0.00000  Uiso   1.00
N226   N     0.41627   0.85349   0.01647   0.00000  Uiso   1.00
N227   N     0.74642   0.43256   0.74078   0.00000  Uiso   1.00
N228   N     0.88675   0.25092   0.60480   0.00000  Uiso   1.00
N229   N     0.45809   0.87767   0.95318   0.00000  Uiso   1.00
N230   N     0.28824   0.95673   0.67750   0.00000  Uiso   1.00
C231   C     0.65917   0.33395   0.81076   0.00000  Uiso   1.00
C232   C     0.68572   0.34046   0.75295   0.00000  Uiso   1.00
C233   C     0.71639   0.32087   0.73880   0.00000  Uiso   1.00
C234   C     0.73719   0.33106   0.68368   0.00000  Uiso   1.00
C235   C     0.77989   0.33681   0.59995   0.00000  Uiso   1.00
C236   C     0.65781   0.36754   0.85147   0.00000  Uiso   1.00
C237   C     0.66500   0.37070   0.92015   0.00000  Uiso   1.00
C238   C     0.66230   0.40368   0.94797   0.00000  Uiso   1.00
C239   C     0.16163   0.95146   0.01721   0.00000  Uiso   1.00
C240   C     0.62191   0.33013   0.77802   0.00000  Uiso   1.00
C241   C     0.59891   0.30184   0.78496   0.00000  Uiso   1.00
C242   C     0.56598   0.30333   0.75096   0.00000  Uiso   1.00
C243   C     0.00958   0.79302   0.70615   0.00000  Uiso   1.00
C244   C     0.64158   0.38689   0.73804   0.00000  Uiso   1.00
C245   C     0.67617   0.36922   0.71345   0.00000  Uiso   1.00
C246   C     0.69693   0.37944   0.65834   0.00000  Uiso   1.00
C247   C     0.72762   0.35986   0.64411   0.00000  Uiso   1.00
C248   C     0.64826   0.39629   0.81197   0.00000  Uiso   1.00
C249   C     0.14554   0.92927   0.83970   0.00000  Uiso   1.00
C250   C     0.15273   0.93249   0.90840   0.00000  Uiso   1.00
C251   C     0.61236   0.35888   0.73852   0.00000  Uiso   1.00
C252   C     0.07945   0.86041   0.70450   0.00000  Uiso   1.00
C253   C     0.05641   0.83213   0.71139   0.00000  Uiso   1.00
H254   H     0.66660   0.31156   0.84151   0.00000  Uiso   1.00
H255   H     0.72378   0.29862   0.76938   0.00000  Uiso   1.00
H256   H     0.67239   0.34844   0.95071   0.00000  Uiso   1.00
H257   H     0.60631   0.27959   0.81553   0.00000  Uiso   1.00
H258   H     0.78295   0.29696   0.67200   0.00000  Uiso   1.00
H259   H     0.67459   0.40201   0.05435   0.00000  Uiso   1.00
H260   H     0.53526   0.25683   0.76931   0.00000  Uiso   1.00
H261   H     0.13414   0.90928   0.70729   0.00000  Uiso   1.00
H262   H     0.68953   0.40169   0.62778   0.00000  Uiso   1.00
H263   H     0.13814   0.95152   0.80912   0.00000  Uiso   1.00
H264   H     0.07207   0.88267   0.67394   0.00000  Uiso   1.00
H265   H     0.75516   0.38062   0.55708   0.00000  Uiso   1.00
H266   H     0.14680   0.98567   0.93943   0.00000  Uiso   1.00
H267   H     0.00746   0.84049   0.65439   0.00000  Uiso   1.00
O268   O     0.80609   0.33204   0.56468   0.00000  Uiso   1.00
O269   O     0.16391   0.96987   0.06631   0.00000  Uiso   1.00
O270   O     0.98111   0.77939   0.69234   0.00000  Uiso   1.00
N271   N     0.76881   0.31768   0.65586   0.00000  Uiso   1.00
N272   N     0.66750   0.41591   0.01333   0.00000  Uiso   1.00
N273   N     0.53723   0.28017   0.74686   0.00000  Uiso   1.00
N274   N     0.75385   0.36270   0.59402   0.00000  Uiso   1.00
N275   N     0.15255   0.96092   0.95149   0.00000  Uiso   1.00
N276   N     0.02227   0.82519   0.68502   0.00000  Uiso   1.00
C277   C     0.33219   0.83547   0.81398   0.00000  Uiso   1.00
C278   C     0.34592   0.81141   0.75830   0.00000  Uiso   1.00
C279   C     0.33417   0.77772   0.74674   0.00000  Uiso   1.00
C280   C     0.35010   0.76000   0.69326   0.00000  Uiso   1.00
C281   C     0.36737   0.72029   0.61297   0.00000  Uiso   1.00
C282   C     0.36558   0.84634   0.85432   0.00000  Uiso   1.00
C283   C     0.37036   0.84202   0.92349   0.00000  Uiso   1.00
C284   C     0.90284   0.35370   0.95084   0.00000  Uiso   1.00
C285   C     0.95063   0.36824   0.01963   0.00000  Uiso   1.00
C286   C     0.31877   0.86813   0.77833   0.00000  Uiso   1.00
C287   C     0.28419   0.88213   0.78363   0.00000  Uiso   1.00
C288   C     0.27727   0.91216   0.74701   0.00000  Uiso   1.00
C289   C     0.25237   0.96053   0.69782   0.00000  Uiso   1.00
C290   C     0.88136   0.36390   0.73956   0.00000  Uiso   1.00
C291   C     0.37263   0.82686   0.71788   0.00000  Uiso   1.00
C292   C     0.38858   0.80918   0.66440   0.00000  Uiso   1.00
C293   C     0.37686   0.77547   0.65276   0.00000  Uiso   1.00
C294   C     0.89229   0.36178   0.81390   0.00000  Uiso   1.00
C295   C     0.92477   0.37347   0.84115   0.00000  Uiso   1.00
C296   C     0.92960   0.36917   0.91034   0.00000  Uiso   1.00
C297   C     0.34548   0.88357   0.73791   0.00000  Uiso   1.00
C298   C     0.83860   0.41358   0.70128   0.00000  Uiso   1.00
C299   C     0.30403   0.92763   0.70652   0.00000  Uiso   1.00
H300   H     0.31139   0.82344   0.84545   0.00000  Uiso   1.00
H301   H     0.31350   0.76578   0.77804   0.00000  Uiso   1.00
H302   H     0.34968   0.83007   0.95476   0.00000  Uiso   1.00
H303   H     0.26353   0.87017   0.81491   0.00000  Uiso   1.00
H304   H     0.32762   0.70865   0.68548   0.00000  Uiso   1.00
H305   H     0.90392   0.34422   0.05811   0.00000  Uiso   1.00
H306   H     0.22225   0.92879   0.76322   0.00000  Uiso   1.00
H307   H     0.90216   0.37592   0.70809   0.00000  Uiso   1.00
H308   H     0.40925   0.82114   0.63313   0.00000  Uiso   1.00
H309   H     0.94544   0.38542   0.80986   0.00000  Uiso   1.00
H310   H     0.85928   0.42553   0.67001   0.00000  Uiso   1.00
H311   H     0.40534   0.75358   0.56787   0.00000  Uiso   1.00
H312   H     0.98163   0.38915   0.94051   0.00000  Uiso   1.00
H313   H     0.79996   0.47371   0.64561   0.00000  Uiso   1.00
O314   O     0.36951   0.69413   0.57986   0.00000  Uiso   1.00
O315   O     0.96961   0.37199   0.06874   0.00000  Uiso   1.00
O316   O     0.73126   0.48294   0.68185   0.00000  Uiso   1.00
N317   N     0.34494   0.72675   0.66808   0.00000  Uiso   1.00
N318   N     0.91627   0.35349   0.01647   0.00000  Uiso   1.00
N319   N     0.24642   0.93256   0.74078   0.00000  Uiso   1.00
N320   N     0.38675   0.75092   0.60480   0.00000  Uiso   1.00
N321   N     0.95809   0.37767   0.95318   0.00000  Uiso   1.00
N322   N     0.78824   0.45673   0.67750   0.00000  Uiso   1.00
C323   C     0.15917   0.83395   0.81076   0.00000  Uiso   1.00
C324   C     0.18572   0.84046   0.75295   0.00000  Uiso   1.00
C325   C     0.21639   0.82087   0.73880   0.00000  Uiso   1.00
C326   C     0.23719   0.83106   0.68368   0.00000  Uiso   1.00
C327   C     0.27989   0.83681   0.59995   0.00000  Uiso   1.00
C328   C     0.15781   0.86754   0.85147   0.00000  Uiso   1.00
C329   C     0.16500   0.87070   0.92015   0.00000  Uiso   1.00
C330   C     0.16230   0.90368   0.94797   0.00000  Uiso   1.00
C331   C     0.66163   0.45146   0.01721   0.00000  Uiso   1.00
C332   C     0.12191   0.83013   0.77802   0.00000  Uiso   1.00
C333   C     0.09891   0.80184   0.78496   0.00000  Uiso   1.00
C334   C     0.06598   0.80333   0.75096   0.00000  Uiso   1.00
C335   C     0.50958   0.29302   0.70615   0.00000  Uiso   1.00
C336   C     0.14158   0.88689   0.73804   0.00000  Uiso   1.00
C337   C     0.17617   0.86922   0.71345   0.00000  Uiso   1.00
C338   C     0.19693   0.87944   0.65834   0.00000  Uiso   1.00
C339   C     0.22762   0.85986   0.64411   0.00000  Uiso   1.00
C340   C     0.14826   0.89629   0.81197   0.00000  Uiso   1.00
C341   C     0.64554   0.42927   0.83970   0.00000  Uiso   1.00
C342   C     0.65273   0.43249   0.90840   0.00000  Uiso   1.00
C343   C     0.11236   0.85888   0.73852   0.00000  Uiso   1.00
C344   C     0.57945   0.36041   0.70450   0.00000  Uiso   1.00
C345   C     0.55641   0.33213   0.71139   0.00000  Uiso   1.00
H346   H     0.16660   0.81156   0.84151   0.00000  Uiso   1.00
H347   H     0.22378   0.79862   0.76938   0.00000  Uiso   1.00
H348   H     0.17239   0.84844   0.95071   0.00000  Uiso   1.00
H349   H     0.10631   0.77959   0.81553   0.00000  Uiso   1.00
H350   H     0.28295   0.79696   0.67200   0.00000  Uiso   1.00
H351   H     0.17459   0.90201   0.05435   0.00000  Uiso   1.00
H352   H     0.03526   0.75683   0.76931   0.00000  Uiso   1.00
H353   H     0.63414   0.40928   0.70729   0.00000  Uiso   1.00
H354   H     0.18953   0.90169   0.62778   0.00000  Uiso   1.00
H355   H     0.63814   0.45152   0.80912   0.00000  Uiso   1.00
H356   H     0.57207   0.38267   0.67394   0.00000  Uiso   1.00
H357   H     0.25516   0.88062   0.55708   0.00000  Uiso   1.00
H358   H     0.64680   0.48567   0.93943   0.00000  Uiso   1.00
H359   H     0.50746   0.34049   0.65439   0.00000  Uiso   1.00
O360   O     0.30609   0.83204   0.56468   0.00000  Uiso   1.00
O361   O     0.66391   0.46987   0.06631   0.00000  Uiso   1.00
O362   O     0.48111   0.27939   0.69234   0.00000  Uiso   1.00
N363   N     0.26881   0.81768   0.65586   0.00000  Uiso   1.00
N364   N     0.16750   0.91591   0.01333   0.00000  Uiso   1.00
N365   N     0.03723   0.78017   0.74686   0.00000  Uiso   1.00
N366   N     0.25385   0.86270   0.59402   0.00000  Uiso   1.00
N367   N     0.65255   0.46092   0.95149   0.00000  Uiso   1.00
N368   N     0.52227   0.32519   0.68502   0.00000  Uiso   1.00
C369   C     0.33219   0.16453   0.18602   0.00000  Uiso   1.00
C370   C     0.34592   0.18859   0.24170   0.00000  Uiso   1.00
C371   C     0.33417   0.22228   0.25326   0.00000  Uiso   1.00
C372   C     0.35010   0.24000   0.30674   0.00000  Uiso   1.00
C373   C     0.36737   0.27971   0.38703   0.00000  Uiso   1.00
C374   C     0.36558   0.15366   0.14568   0.00000  Uiso   1.00
C375   C     0.37036   0.15798   0.07651   0.00000  Uiso   1.00
C376   C     0.90284   0.64630   0.04916   0.00000  Uiso   1.00
C377   C     0.95063   0.63176   0.98037   0.00000  Uiso   1.00
C378   C     0.31877   0.13187   0.22167   0.00000  Uiso   1.00
C379   C     0.28419   0.11787   0.21637   0.00000  Uiso   1.00
C380   C     0.27727   0.08784   0.25299   0.00000  Uiso   1.00
C381   C     0.25237   0.03947   0.30218   0.00000  Uiso   1.00
C382   C     0.88136   0.63610   0.26044   0.00000  Uiso   1.00
C383   C     0.37263   0.17314   0.28212   0.00000  Uiso   1.00
C384   C     0.38858   0.19082   0.33560   0.00000  Uiso   1.00
C385   C     0.37686   0.22453   0.34724   0.00000  Uiso   1.00
C386   C     0.89229   0.63822   0.18610   0.00000  Uiso   1.00
C387   C     0.92477   0.62653   0.15885   0.00000  Uiso   1.00
C388   C     0.92960   0.63083   0.08966   0.00000  Uiso   1.00
C389   C     0.34548   0.11643   0.26209   0.00000  Uiso   1.00
C390   C     0.83860   0.58642   0.29872   0.00000  Uiso   1.00
C391   C     0.30403   0.07237   0.29348   0.00000  Uiso   1.00
H392   H     0.31139   0.17656   0.15455   0.00000  Uiso   1.00
H393   H     0.31350   0.23422   0.22196   0.00000  Uiso   1.00
H394   H     0.34968   0.16993   0.04524   0.00000  Uiso   1.00
H395   H     0.26353   0.12983   0.18509   0.00000  Uiso   1.00
H396   H     0.32762   0.29135   0.31452   0.00000  Uiso   1.00
H397   H     0.90392   0.65578   0.94189   0.00000  Uiso   1.00
H398   H     0.22225   0.07121   0.23678   0.00000  Uiso   1.00
H399   H     0.90216   0.62408   0.29191   0.00000  Uiso   1.00
H400   H     0.40925   0.17886   0.36687   0.00000  Uiso   1.00
H401   H     0.94544   0.61458   0.19014   0.00000  Uiso   1.00
H402   H     0.85928   0.57447   0.32999   0.00000  Uiso   1.00
H403   H     0.40534   0.24642   0.43213   0.00000  Uiso   1.00
H404   H     0.98163   0.61085   0.05949   0.00000  Uiso   1.00
H405   H     0.79996   0.52629   0.35439   0.00000  Uiso   1.00
O406   O     0.36951   0.30587   0.42014   0.00000  Uiso   1.00
O407   O     0.96961   0.62801   0.93126   0.00000  Uiso   1.00
O408   O     0.73126   0.51706   0.31815   0.00000  Uiso   1.00
N409   N     0.34494   0.27325   0.33192   0.00000  Uiso   1.00
N410   N     0.91627   0.64651   0.98353   0.00000  Uiso   1.00
N411   N     0.24642   0.06744   0.25922   0.00000  Uiso   1.00
N412   N     0.38675   0.24908   0.39520   0.00000  Uiso   1.00
N413   N     0.95809   0.62233   0.04682   0.00000  Uiso   1.00
N414   N     0.78824   0.54327   0.32250   0.00000  Uiso   1.00
C415   C     0.15917   0.16605   0.18924   0.00000  Uiso   1.00
C416   C     0.18572   0.15954   0.24705   0.00000  Uiso   1.00
C417   C     0.21639   0.17913   0.26120   0.00000  Uiso   1.00
C418   C     0.23719   0.16894   0.31632   0.00000  Uiso   1.00
C419   C     0.27989   0.16319   0.40005   0.00000  Uiso   1.00
C420   C     0.15781   0.13246   0.14853   0.00000  Uiso   1.00
C421   C     0.16500   0.12930   0.07985   0.00000  Uiso   1.00
C422   C     0.16230   0.09632   0.05203   0.00000  Uiso   1.00
C423   C     0.66163   0.54854   0.98279   0.00000  Uiso   1.00
C424   C     0.12191   0.16987   0.22198   0.00000  Uiso   1.00
C425   C     0.09891   0.19816   0.21504   0.00000  Uiso   1.00
C426   C     0.06598   0.19667   0.24904   0.00000  Uiso   1.00
C427   C     0.50958   0.70698   0.29385   0.00000  Uiso   1.00
C428   C     0.14158   0.11311   0.26196   0.00000  Uiso   1.00
C429   C     0.17617   0.13078   0.28655   0.00000  Uiso   1.00
C430   C     0.19693   0.12056   0.34166   0.00000  Uiso   1.00
C431   C     0.22762   0.14014   0.35589   0.00000  Uiso   1.00
C432   C     0.14826   0.10371   0.18803   0.00000  Uiso   1.00
C433   C     0.64554   0.57073   0.16030   0.00000  Uiso   1.00
C434   C     0.65273   0.56751   0.09160   0.00000  Uiso   1.00
C435   C     0.11236   0.14112   0.26148   0.00000  Uiso   1.00
C436   C     0.57945   0.63959   0.29550   0.00000  Uiso   1.00
C437   C     0.55641   0.66787   0.28861   0.00000  Uiso   1.00
H438   H     0.16660   0.18844   0.15849   0.00000  Uiso   1.00
H439   H     0.22378   0.20138   0.23062   0.00000  Uiso   1.00
H440   H     0.17239   0.15156   0.04929   0.00000  Uiso   1.00
H441   H     0.10631   0.22041   0.18447   0.00000  Uiso   1.00
H442   H     0.28295   0.20304   0.32800   0.00000  Uiso   1.00
H443   H     0.17459   0.09799   0.94565   0.00000  Uiso   1.00
H444   H     0.03526   0.24317   0.23069   0.00000  Uiso   1.00
H445   H     0.63414   0.59072   0.29271   0.00000  Uiso   1.00
H446   H     0.18953   0.09831   0.37222   0.00000  Uiso   1.00
H447   H     0.63814   0.54848   0.19088   0.00000  Uiso   1.00
H448   H     0.57207   0.61733   0.32606   0.00000  Uiso   1.00
H449   H     0.25516   0.11938   0.44292   0.00000  Uiso   1.00
H450   H     0.64680   0.51433   0.06057   0.00000  Uiso   1.00
H451   H     0.50746   0.65951   0.34561   0.00000  Uiso   1.00
O452   O     0.30609   0.16796   0.43532   0.00000  Uiso   1.00
O453   O     0.66391   0.53013   0.93369   0.00000  Uiso   1.00
O454   O     0.48111   0.72061   0.30766   0.00000  Uiso   1.00
N455   N     0.26881   0.18232   0.34414   0.00000  Uiso   1.00
N456   N     0.16750   0.08409   0.98667   0.00000  Uiso   1.00
N457   N     0.03723   0.21983   0.25314   0.00000  Uiso   1.00
N458   N     0.25385   0.13730   0.40598   0.00000  Uiso   1.00
N459   N     0.65255   0.53908   0.04851   0.00000  Uiso   1.00
N460   N     0.52227   0.67481   0.31498   0.00000  Uiso   1.00
C461   C     0.83219   0.66453   0.18602   0.00000  Uiso   1.00
C462   C     0.84592   0.68859   0.24170   0.00000  Uiso   1.00
C463   C     0.83417   0.72228   0.25326   0.00000  Uiso   1.00
C464   C     0.85010   0.74000   0.30674   0.00000  Uiso   1.00
C465   C     0.86737   0.77971   0.38703   0.00000  Uiso   1.00
C466   C     0.86558   0.65366   0.14568   0.00000  Uiso   1.00
C467   C     0.87036   0.65798   0.07651   0.00000  Uiso   1.00
C468   C     0.40284   0.14630   0.04916   0.00000  Uiso   1.00
C469   C     0.45063   0.13176   0.98037   0.00000  Uiso   1.00
C470   C     0.81877   0.63187   0.22167   0.00000  Uiso   1.00
C471   C     0.78419   0.61787   0.21637   0.00000  Uiso   1.00
C472   C     0.77727   0.58784   0.25299   0.00000  Uiso   1.00
C473   C     0.75237   0.53947   0.30218   0.00000  Uiso   1.00
C474   C     0.38136   0.13610   0.26044   0.00000  Uiso   1.00
C475   C     0.87263   0.67314   0.28212   0.00000  Uiso   1.00
C476   C     0.88858   0.69082   0.33560   0.00000  Uiso   1.00
C477   C     0.87686   0.72453   0.34724   0.00000  Uiso   1.00
C478   C     0.39229   0.13822   0.18610   0.00000  Uiso   1.00
C479   C     0.42477   0.12653   0.15885   0.00000  Uiso   1.00
C480   C     0.42960   0.13083   0.08966   0.00000  Uiso   1.00
C481   C     0.84548   0.61643   0.26209   0.00000  Uiso   1.00
C482   C     0.33860   0.08642   0.29872   0.00000  Uiso   1.00
C483   C     0.80403   0.57237   0.29348   0.00000  Uiso   1.00
H484   H     0.81139   0.67656   0.15455   0.00000  Uiso   1.00
H485   H     0.81350   0.73422   0.22196   0.00000  Uiso   1.00
H486   H     0.84968   0.66993   0.04524   0.00000  Uiso   1.00
H487   H     0.76353   0.62983   0.18509   0.00000  Uiso   1.00
H488   H     0.82762   0.79135   0.31452   0.00000  Uiso   1.00
H489   H     0.40392   0.15578   0.94189   0.00000  Uiso   1.00
H490   H     0.72225   0.57121   0.23678   0.00000  Uiso   1.00
H491   H     0.40216   0.12408   0.29191   0.00000  Uiso   1.00
H492   H     0.90925   0.67886   0.36687   0.00000  Uiso   1.00
H493   H     0.44544   0.11458   0.19014   0.00000  Uiso   1.00
H494   H     0.35928   0.07447   0.32999   0.00000  Uiso   1.00
H495   H     0.90534   0.74642   0.43213   0.00000  Uiso   1.00
H496   H     0.48163   0.11085   0.05949   0.00000  Uiso   1.00
H497   H     0.29996   0.02629   0.35439   0.00000  Uiso   1.00
O498   O     0.86951   0.80587   0.42014   0.00000  Uiso   1.00
O499   O     0.46961   0.12801   0.93126   0.00000  Uiso   1.00
O500   O     0.23126   0.01706   0.31815   0.00000  Uiso   1.00
N501   N     0.84494   0.77325   0.33192   0.00000  Uiso   1.00
N502   N     0.41627   0.14651   0.98353   0.00000  Uiso   1.00
N503   N     0.74642   0.56744   0.25922   0.00000  Uiso   1.00
N504   N     0.88675   0.74908   0.39520   0.00000  Uiso   1.00
N505   N     0.45809   0.12233   0.04682   0.00000  Uiso   1.00
N506   N     0.28824   0.04327   0.32250   0.00000  Uiso   1.00
C507   C     0.65917   0.66605   0.18924   0.00000  Uiso   1.00
C508   C     0.68572   0.65954   0.24705   0.00000  Uiso   1.00
C509   C     0.71639   0.67913   0.26120   0.00000  Uiso   1.00
C510   C     0.73719   0.66894   0.31632   0.00000  Uiso   1.00
C511   C     0.77989   0.66319   0.40005   0.00000  Uiso   1.00
C512   C     0.65781   0.63246   0.14853   0.00000  Uiso   1.00
C513   C     0.66500   0.62930   0.07985   0.00000  Uiso   1.00
C514   C     0.66230   0.59632   0.05203   0.00000  Uiso   1.00
C515   C     0.16163   0.04854   0.98279   0.00000  Uiso   1.00
C516   C     0.62191   0.66987   0.22198   0.00000  Uiso   1.00
C517   C     0.59891   0.69816   0.21504   0.00000  Uiso   1.00
C518   C     0.56598   0.69667   0.24904   0.00000  Uiso   1.00
C519   C     0.00958   0.20698   0.29385   0.00000  Uiso   1.00
C520   C     0.64158   0.61311   0.26196   0.00000  Uiso   1.00
C521   C     0.67617   0.63078   0.28655   0.00000  Uiso   1.00
C522   C     0.69693   0.62056   0.34166   0.00000  Uiso   1.00
C523   C     0.72762   0.64014   0.35589   0.00000  Uiso   1.00
C524   C     0.64826   0.60371   0.18803   0.00000  Uiso   1.00
C525   C     0.14554   0.07073   0.16030   0.00000  Uiso   1.00
C526   C     0.15273   0.06751   0.09160   0.00000  Uiso   1.00
C527   C     0.61236   0.64112   0.26148   0.00000  Uiso   1.00
C528   C     0.07945   0.13959   0.29550   0.00000  Uiso   1.00
C529   C     0.05641   0.16787   0.28861   0.00000  Uiso   1.00
H530   H     0.66660   0.68844   0.15849   0.00000  Uiso   1.00
H531   H     0.72378   0.70138   0.23062   0.00000  Uiso   1.00
H532   H     0.67239   0.65156   0.04929   0.00000  Uiso   1.00
H533   H     0.60631   0.72041   0.18447   0.00000  Uiso   1.00
H534   H     0.78295   0.70304   0.32800   0.00000  Uiso   1.00
H535   H     0.67459   0.59799   0.94565   0.00000  Uiso   1.00
H536   H     0.53526   0.74317   0.23069   0.00000  Uiso   1.00
H537   H     0.13414   0.09072   0.29271   0.00000  Uiso   1.00
H538   H     0.68953   0.59831   0.37222   0.00000  Uiso   1.00
H539   H     0.13814   0.04848   0.19088   0.00000  Uiso   1.00
H540   H     0.07207   0.11733   0.32606   0.00000  Uiso   1.00
H541   H     0.75516   0.61938   0.44292   0.00000  Uiso   1.00
H542   H     0.14680   0.01433   0.06057   0.00000  Uiso   1.00
H543   H     0.00746   0.15951   0.34561   0.00000  Uiso   1.00
O544   O     0.80609   0.66796   0.43532   0.00000  Uiso   1.00
O545   O     0.16391   0.03013   0.93369   0.00000  Uiso   1.00
O546   O     0.98111   0.22061   0.30766   0.00000  Uiso   1.00
N547   N     0.76881   0.68232   0.34414   0.00000  Uiso   1.00
N548   N     0.66750   0.58409   0.98667   0.00000  Uiso   1.00
N549   N     0.53723   0.71983   0.25314   0.00000  Uiso   1.00
N550   N     0.75385   0.63730   0.40598   0.00000  Uiso   1.00
N551   N     0.15255   0.03908   0.04851   0.00000  Uiso   1.00
N552   N     0.02227   0.17481   0.31498   0.00000  Uiso   1.00
C553   C     0.16781   0.33547   0.18602   0.00000  Uiso   1.00
C554   C     0.15408   0.31141   0.24170   0.00000  Uiso   1.00
C555   C     0.16583   0.27772   0.25326   0.00000  Uiso   1.00
C556   C     0.14990   0.26000   0.30674   0.00000  Uiso   1.00
C557   C     0.13263   0.22029   0.38703   0.00000  Uiso   1.00
C558   C     0.13442   0.34634   0.14568   0.00000  Uiso   1.00
C559   C     0.12964   0.34202   0.07651   0.00000  Uiso   1.00
C560   C     0.59716   0.85370   0.04916   0.00000  Uiso   1.00
C561   C     0.54937   0.86824   0.98037   0.00000  Uiso   1.00
C562   C     0.18123   0.36813   0.22167   0.00000  Uiso   1.00
C563   C     0.21581   0.38213   0.21637   0.00000  Uiso   1.00
C564   C     0.22273   0.41216   0.25299   0.00000  Uiso   1.00
C565   C     0.24763   0.46053   0.30218   0.00000  Uiso   1.00
C566   C     0.61864   0.86390   0.26044   0.00000  Uiso   1.00
C567   C     0.12737   0.32686   0.28212   0.00000  Uiso   1.00
C568   C     0.11142   0.30918   0.33560   0.00000  Uiso   1.00
C569   C     0.12314   0.27547   0.34724   0.00000  Uiso   1.00
C570   C     0.60771   0.86178   0.18610   0.00000  Uiso   1.00
C571   C     0.57523   0.87347   0.15885   0.00000  Uiso   1.00
C572   C     0.57040   0.86917   0.08966   0.00000  Uiso   1.00
C573   C     0.15452   0.38357   0.26209   0.00000  Uiso   1.00
C574   C     0.66140   0.91358   0.29872   0.00000  Uiso   1.00
C575   C     0.19597   0.42763   0.29348   0.00000  Uiso   1.00
H576   H     0.18861   0.32344   0.15455   0.00000  Uiso   1.00
H577   H     0.18650   0.26578   0.22196   0.00000  Uiso   1.00
H578   H     0.15032   0.33007   0.04524   0.00000  Uiso   1.00
H579   H     0.23647   0.37017   0.18509   0.00000  Uiso   1.00
H580   H     0.17238   0.20865   0.31452   0.00000  Uiso   1.00
H581   H     0.59608   0.84422   0.94189   0.00000  Uiso   1.00
H582   H     0.27775   0.42879   0.23678   0.00000  Uiso   1.00
H583   H     0.59784   0.87592   0.29191   0.00000  Uiso   1.00
H584   H     0.09075   0.32114   0.36687   0.00000  Uiso   1.00
H585   H     0.55456   0.88542   0.19014   0.00000  Uiso   1.00
H586   H     0.64072   0.92553   0.32999   0.00000  Uiso   1.00
H587   H     0.09466   0.25358   0.43213   0.00000  Uiso   1.00
H588   H     0.51837   0.88915   0.05949   0.00000  Uiso   1.00
H589   H     0.70004   0.97371   0.35439   0.00000  Uiso   1.00
O590   O     0.13049   0.19413   0.42014   0.00000  Uiso   1.00
O591   O     0.53039   0.87199   0.93126   0.00000  Uiso   1.00
O592   O     0.76874   0.98294   0.31815   0.00000  Uiso   1.00
N593   N     0.15506   0.22675   0.33192   0.00000  Uiso   1.00
N594   N     0.58373   0.85349   0.98353   0.00000  Uiso   1.00
N595   N     0.25358   0.43256   0.25922   0.00000  Uiso   1.00
N596   N     0.11325   0.25092   0.39520   0.00000  Uiso   1.00
N597   N     0.54191   0.87767   0.04682   0.00000  Uiso   1.00
N598   N     0.71176   0.95673   0.32250   0.00000  Uiso   1.00
C599   C     0.34083   0.33395   0.18924   0.00000  Uiso   1.00
C600   C     0.31428   0.34046   0.24705   0.00000  Uiso   1.00
C601   C     0.28361   0.32087   0.26120   0.00000  Uiso   1.00
C602   C     0.26281   0.33106   0.31632   0.00000  Uiso   1.00
C603   C     0.22011   0.33681   0.40005   0.00000  Uiso   1.00
C604   C     0.34219   0.36754   0.14853   0.00000  Uiso   1.00
C605   C     0.33500   0.37070   0.07985   0.00000  Uiso   1.00
C606   C     0.33770   0.40368   0.05203   0.00000  Uiso   1.00
C607   C     0.83837   0.95146   0.98279   0.00000  Uiso   1.00
C608   C     0.37809   0.33013   0.22198   0.00000  Uiso   1.00
C609   C     0.40109   0.30184   0.21504   0.00000  Uiso   1.00
C610   C     0.43402   0.30333   0.24904   0.00000  Uiso   1.00
C611   C     0.99042   0.79302   0.29385   0.00000  Uiso   1.00
C612   C     0.35842   0.38689   0.26196   0.00000  Uiso   1.00
C613   C     0.32383   0.36922   0.28655   0.00000  Uiso   1.00
C614   C     0.30307   0.37944   0.34166   0.00000  Uiso   1.00
C615   C     0.27238   0.35986   0.35589   0.00000  Uiso   1.00
C616   C     0.35174   0.39629   0.18803   0.00000  Uiso   1.00
C617   C     0.85446   0.92927   0.16030   0.00000  Uiso   1.00
C618   C     0.84727   0.93249   0.09160   0.00000  Uiso   1.00
C619   C     0.38764   0.35888   0.26148   0.00000  Uiso   1.00
C620   C     0.92055   0.86041   0.29550   0.00000  Uiso   1.00
C621   C     0.94359   0.83213   0.28861   0.00000  Uiso   1.00
H622   H     0.33340   0.31156   0.15849   0.00000  Uiso   1.00
H623   H     0.27622   0.29862   0.23062   0.00000  Uiso   1.00
H624   H     0.32761   0.34844   0.04929   0.00000  Uiso   1.00
H625   H     0.39369   0.27959   0.18447   0.00000  Uiso   1.00
H626   H     0.21705   0.29696   0.32800   0.00000  Uiso   1.00
H627   H     0.32541   0.40201   0.94565   0.00000  Uiso   1.00
H628   H     0.46474   0.25683   0.23069   0.00000  Uiso   1.00
H629   H     0.86586   0.90928   0.29271   0.00000  Uiso   1.00
H630   H     0.31047   0.40169   0.37222   0.00000  Uiso   1.00
H631   H     0.86186   0.95152   0.19088   0.00000  Uiso   1.00
H632   H     0.92793   0.88267   0.32606   0.00000  Uiso   1.00
H633   H     0.24484   0.38062   0.44292   0.00000  Uiso   1.00
H634   H     0.85320   0.98567   0.06057   0.00000  Uiso   1.00
H635   H     0.99254   0.84049   0.34561   0.00000  Uiso   1.00
O636   O     0.19391   0.33204   0.43532   0.00000  Uiso   1.00
O637   O     0.83609   0.96987   0.93369   0.00000  Uiso   1.00
O638   O     0.01889   0.77939   0.30766   0.00000  Uiso   1.00
N639   N     0.23119   0.31768   0.34414   0.00000  Uiso   1.00
N640   N     0.33250   0.41591   0.98667   0.00000  Uiso   1.00
N641   N     0.46277   0.28017   0.25314   0.00000  Uiso   1.00
N642   N     0.24615   0.36270   0.40598   0.00000  Uiso   1.00
N643   N     0.84745   0.96092   0.04851   0.00000  Uiso   1.00
N644   N     0.97773   0.82519   0.31498   0.00000  Uiso   1.00
C645   C     0.66781   0.83547   0.18602   0.00000  Uiso   1.00
C646   C     0.65408   0.81141   0.24170   0.00000  Uiso   1.00
C647   C     0.66583   0.77772   0.25326   0.00000  Uiso   1.00
C648   C     0.64990   0.76000   0.30674   0.00000  Uiso   1.00
C649   C     0.63263   0.72029   0.38703   0.00000  Uiso   1.00
C650   C     0.63442   0.84634   0.14568   0.00000  Uiso   1.00
C651   C     0.62964   0.84202   0.07651   0.00000  Uiso   1.00
C652   C     0.09716   0.35370   0.04916   0.00000  Uiso   1.00
C653   C     0.04937   0.36824   0.98037   0.00000  Uiso   1.00
C654   C     0.68123   0.86813   0.22167   0.00000  Uiso   1.00
C655   C     0.71581   0.88213   0.21637   0.00000  Uiso   1.00
C656   C     0.72273   0.91216   0.25299   0.00000  Uiso   1.00
C657   C     0.74763   0.96053   0.30218   0.00000  Uiso   1.00
C658   C     0.11864   0.36390   0.26044   0.00000  Uiso   1.00
C659   C     0.62737   0.82686   0.28212   0.00000  Uiso   1.00
C660   C     0.61142   0.80918   0.33560   0.00000  Uiso   1.00
C661   C     0.62314   0.77547   0.34724   0.00000  Uiso   1.00
C662   C     0.10771   0.36178   0.18610   0.00000  Uiso   1.00
C663   C     0.07523   0.37347   0.15885   0.00000  Uiso   1.00
C664   C     0.07040   0.36917   0.08966   0.00000  Uiso   1.00
C665   C     0.65452   0.88357   0.26209   0.00000  Uiso   1.00
C666   C     0.16140   0.41358   0.29872   0.00000  Uiso   1.00
C667   C     0.69597   0.92763   0.29348   0.00000  Uiso   1.00
H668   H     0.68861   0.82344   0.15455   0.00000  Uiso   1.00
H669   H     0.68650   0.76578   0.22196   0.00000  Uiso   1.00
H670   H     0.65032   0.83007   0.04524   0.00000  Uiso   1.00
H671   H     0.73647   0.87017   0.18509   0.00000  Uiso   1.00
H672   H     0.67238   0.70865   0.31452   0.00000  Uiso   1.00
H673   H     0.09608   0.34422   0.94189   0.00000  Uiso   1.00
H674   H     0.77775   0.92879   0.23678   0.00000  Uiso   1.00
H675   H     0.09784   0.37592   0.29191   0.00000  Uiso   1.00
H676   H     0.59075   0.82114   0.36687   0.00000  Uiso   1.00
H677   H     0.05456   0.38542   0.19014   0.00000  Uiso   1.00
H678   H     0.14072   0.42553   0.32999   0.00000  Uiso   1.00
H679   H     0.59466   0.75358   0.43213   0.00000  Uiso   1.00
H680   H     0.01837   0.38915   0.05949   0.00000  Uiso   1.00
H681   H     0.20004   0.47371   0.35439   0.00000  Uiso   1.00
O682   O     0.63049   0.69413   0.42014   0.00000  Uiso   1.00
O683   O     0.03039   0.37199   0.93126   0.00000  Uiso   1.00
O684   O     0.26874   0.48294   0.31815   0.00000  Uiso   1.00
N685   N     0.65506   0.72675   0.33192   0.00000  Uiso   1.00
N686   N     0.08373   0.35349   0.98353   0.00000  Uiso   1.00
N687   N     0.75358   0.93256   0.25922   0.00000  Uiso   1.00
N688   N     0.61325   0.75092   0.39520   0.00000  Uiso   1.00
N689   N     0.04191   0.37767   0.04682   0.00000  Uiso   1.00
N690   N     0.21176   0.45673   0.32250   0.00000  Uiso   1.00
C691   C     0.84083   0.83395   0.18924   0.00000  Uiso   1.00
C692   C     0.81428   0.84046   0.24705   0.00000  Uiso   1.00
C693   C     0.78361   0.82087   0.26120   0.00000  Uiso   1.00
C694   C     0.76281   0.83106   0.31632   0.00000  Uiso   1.00
C695   C     0.72011   0.83681   0.40005   0.00000  Uiso   1.00
C696   C     0.84219   0.86754   0.14853   0.00000  Uiso   1.00
C697   C     0.83500   0.87070   0.07985   0.00000  Uiso   1.00
C698   C     0.83770   0.90368   0.05203   0.00000  Uiso   1.00
C699   C     0.33837   0.45146   0.98279   0.00000  Uiso   1.00
C700   C     0.87809   0.83013   0.22198   0.00000  Uiso   1.00
C701   C     0.90109   0.80184   0.21504   0.00000  Uiso   1.00
C702   C     0.93402   0.80333   0.24904   0.00000  Uiso   1.00
C703   C     0.49042   0.29302   0.29385   0.00000  Uiso   1.00
C704   C     0.85842   0.88689   0.26196   0.00000  Uiso   1.00
C705   C     0.82383   0.86922   0.28655   0.00000  Uiso   1.00
C706   C     0.80307   0.87944   0.34166   0.00000  Uiso   1.00
C707   C     0.77238   0.85986   0.35589   0.00000  Uiso   1.00
C708   C     0.85174   0.89629   0.18803   0.00000  Uiso   1.00
C709   C     0.35446   0.42927   0.16030   0.00000  Uiso   1.00
C710   C     0.34727   0.43249   0.09160   0.00000  Uiso   1.00
C711   C     0.88764   0.85888   0.26148   0.00000  Uiso   1.00
C712   C     0.42055   0.36041   0.29550   0.00000  Uiso   1.00
C713   C     0.44359   0.33213   0.28861   0.00000  Uiso   1.00
H714   H     0.83340   0.81156   0.15849   0.00000  Uiso   1.00
H715   H     0.77622   0.79862   0.23062   0.00000  Uiso   1.00
H716   H     0.82761   0.84844   0.04929   0.00000  Uiso   1.00
H717   H     0.89369   0.77959   0.18447   0.00000  Uiso   1.00
H718   H     0.71705   0.79696   0.32800   0.00000  Uiso   1.00
H719   H     0.82541   0.90201   0.94565   0.00000  Uiso   1.00
H720   H     0.96474   0.75683   0.23069   0.00000  Uiso   1.00
H721   H     0.36586   0.40928   0.29271   0.00000  Uiso   1.00
H722   H     0.81047   0.90169   0.37222   0.00000  Uiso   1.00
H723   H     0.36186   0.45152   0.19088   0.00000  Uiso   1.00
H724   H     0.42793   0.38267   0.32606   0.00000  Uiso   1.00
H725   H     0.74484   0.88062   0.44292   0.00000  Uiso   1.00
H726   H     0.35320   0.48567   0.06057   0.00000  Uiso   1.00
H727   H     0.49254   0.34049   0.34561   0.00000  Uiso   1.00
O728   O     0.69391   0.83204   0.43532   0.00000  Uiso   1.00
O729   O     0.33609   0.46987   0.93369   0.00000  Uiso   1.00
O730   O     0.51889   0.27939   0.30766   0.00000  Uiso   1.00
N731   N     0.73119   0.81768   0.34414   0.00000  Uiso   1.00
N732   N     0.83250   0.91591   0.98667   0.00000  Uiso   1.00
N733   N     0.96277   0.78017   0.25314   0.00000  Uiso   1.00
N734   N     0.74615   0.86270   0.40598   0.00000  Uiso   1.00
N735   N     0.34745   0.46092   0.04851   0.00000  Uiso   1.00
N736   N     0.47773   0.32519   0.31498   0.00000  Uiso   1.00
C737   C     0.33219   0.33547   0.68602   0.00000  Uiso   1.00
C738   C     0.34592   0.31141   0.74170   0.00000  Uiso   1.00
C739   C     0.33417   0.27772   0.75326   0.00000  Uiso   1.00
C740   C     0.35010   0.26000   0.80674   0.00000  Uiso   1.00
C741   C     0.36737   0.22029   0.88703   0.00000  Uiso   1.00
C742   C     0.36558   0.34634   0.64568   0.00000  Uiso   1.00
C743   C     0.37036   0.34202   0.57651   0.00000  Uiso   1.00
C744   C     0.90284   0.85370   0.54916   0.00000  Uiso   1.00
C745   C     0.95063   0.86824   0.48037   0.00000  Uiso   1.00
C746   C     0.31877   0.36813   0.72167   0.00000  Uiso   1.00
C747   C     0.28419   0.38213   0.71637   0.00000  Uiso   1.00
C748   C     0.27727   0.41216   0.75299   0.00000  Uiso   1.00
C749   C     0.25237   0.46053   0.80218   0.00000  Uiso   1.00
C750   C     0.88136   0.86390   0.76044   0.00000  Uiso   1.00
C751   C     0.37263   0.32686   0.78212   0.00000  Uiso   1.00
C752   C     0.38858   0.30918   0.83560   0.00000  Uiso   1.00
C753   C     0.37686   0.27547   0.84724   0.00000  Uiso   1.00
C754   C     0.89229   0.86178   0.68610   0.00000  Uiso   1.00
C755   C     0.92477   0.87347   0.65885   0.00000  Uiso   1.00
C756   C     0.92960   0.86917   0.58966   0.00000  Uiso   1.00
C757   C     0.34548   0.38357   0.76209   0.00000  Uiso   1.00
C758   C     0.83860   0.91358   0.79872   0.00000  Uiso   1.00
C759   C     0.30403   0.42763   0.79348   0.00000  Uiso   1.00
H760   H     0.31139   0.32344   0.65455   0.00000  Uiso   1.00
H761   H     0.31350   0.26578   0.72196   0.00000  Uiso   1.00
H762   H     0.34968   0.33007   0.54524   0.00000  Uiso   1.00
H763   H     0.26353   0.37017   0.68509   0.00000  Uiso   1.00
H764   H     0.32762   0.20865   0.81452   0.00000  Uiso   1.00
H765   H     0.90392   0.84422   0.44189   0.00000  Uiso   1.00
H766   H     0.22225   0.42879   0.73678   0.00000  Uiso   1.00
H767   H     0.90216   0.87592   0.79191   0.00000  Uiso   1.00
H768   H     0.40925   0.32114   0.86687   0.00000  Uiso   1.00
H769   H     0.94544   0.88542   0.69014   0.00000  Uiso   1.00
H770   H     0.85928   0.92553   0.82999   0.00000  Uiso   1.00
H771   H     0.40534   0.25358   0.93213   0.00000  Uiso   1.00
H772   H     0.98163   0.88915   0.55949   0.00000  Uiso   1.00
H773   H     0.79996   0.97371   0.85439   0.00000  Uiso   1.00
O774   O     0.36951   0.19413   0.92014   0.00000  Uiso   1.00
O775   O     0.96961   0.87199   0.43126   0.00000  Uiso   1.00
O776   O     0.73126   0.98294   0.81815   0.00000  Uiso   1.00
N777   N     0.34494   0.22675   0.83192   0.00000  Uiso   1.00
N778   N     0.91627   0.85349   0.48353   0.00000  Uiso   1.00
N779   N     0.24642   0.43256   0.75922   0.00000  Uiso   1.00
N780   N     0.38675   0.25092   0.89520   0.00000  Uiso   1.00
N781   N     0.95809   0.87767   0.54682   0.00000  Uiso   1.00
N782   N     0.78824   0.95673   0.82250   0.00000  Uiso   1.00
C783   C     0.15917   0.33395   0.68924   0.00000  Uiso   1.00
C784   C     0.18572   0.34046   0.74705   0.00000  Uiso   1.00
C785   C     0.21639   0.32087   0.76120   0.00000  Uiso   1.00
C786   C     0.23719   0.33106   0.81632   0.00000  Uiso   1.00
C787   C     0.27989   0.33681   0.90005   0.00000  Uiso   1.00
C788   C     0.15781   0.36754   0.64853   0.00000  Uiso   1.00
C789   C     0.16500   0.37070   0.57985   0.00000  Uiso   1.00
C790   C     0.16230   0.40368   0.55203   0.00000  Uiso   1.00
C791   C     0.66163   0.95146   0.48279   0.00000  Uiso   1.00
C792   C     0.12191   0.33013   0.72198   0.00000  Uiso   1.00
C793   C     0.09891   0.30184   0.71504   0.00000  Uiso   1.00
C794   C     0.06598   0.30333   0.74904   0.00000  Uiso   1.00
C795   C     0.50958   0.79302   0.79385   0.00000  Uiso   1.00
C796   C     0.14158   0.38689   0.76196   0.00000  Uiso   1.00
C797   C     0.17617   0.36922   0.78655   0.00000  Uiso   1.00
C798   C     0.19693   0.37944   0.84166   0.00000  Uiso   1.00
C799   C     0.22762   0.35986   0.85589   0.00000  Uiso   1.00
C800   C     0.14826   0.39629   0.68803   0.00000  Uiso   1.00
C801   C     0.64554   0.92927   0.66030   0.00000  Uiso   1.00
C802   C     0.65273   0.93249   0.59160   0.00000  Uiso   1.00
C803   C     0.11236   0.35888   0.76148   0.00000  Uiso   1.00
C804   C     0.57945   0.86041   0.79550   0.00000  Uiso   1.00
C805   C     0.55641   0.83213   0.78861   0.00000  Uiso   1.00
H806   H     0.16660   0.31156   0.65849   0.00000  Uiso   1.00
H807   H     0.22378   0.29862   0.73062   0.00000  Uiso   1.00
H808   H     0.17239   0.34844   0.54929   0.00000  Uiso   1.00
H809   H     0.10631   0.27959   0.68447   0.00000  Uiso   1.00
H810   H     0.28295   0.29696   0.82800   0.00000  Uiso   1.00
H811   H     0.17459   0.40201   0.44565   0.00000  Uiso   1.00
H812   H     0.03526   0.25683   0.73069   0.00000  Uiso   1.00
H813   H     0.63414   0.90928   0.79271   0.00000  Uiso   1.00
H814   H     0.18953   0.40169   0.87222   0.00000  Uiso   1.00
H815   H     0.63814   0.95152   0.69088   0.00000  Uiso   1.00
H816   H     0.57207   0.88267   0.82606   0.00000  Uiso   1.00
H817   H     0.25516   0.38062   0.94292   0.00000  Uiso   1.00
H818   H     0.64680   0.98567   0.56057   0.00000  Uiso   1.00
H819   H     0.50746   0.84049   0.84561   0.00000  Uiso   1.00
O820   O     0.30609   0.33204   0.93532   0.00000  Uiso   1.00
O821   O     0.66391   0.96987   0.43369   0.00000  Uiso   1.00
O822   O     0.48111   0.77939   0.80766   0.00000  Uiso   1.00
N823   N     0.26881   0.31768   0.84414   0.00000  Uiso   1.00
N824   N     0.16750   0.41591   0.48667   0.00000  Uiso   1.00
N825   N     0.03723   0.28017   0.75314   0.00000  Uiso   1.00
N826   N     0.25385   0.36270   0.90598   0.00000  Uiso   1.00
N827   N     0.65255   0.96092   0.54851   0.00000  Uiso   1.00
N828   N     0.52227   0.82519   0.81498   0.00000  Uiso   1.00
C829   C     0.83219   0.83547   0.68602   0.00000  Uiso   1.00
C830   C     0.84592   0.81141   0.74170   0.00000  Uiso   1.00
C831   C     0.83417   0.77772   0.75326   0.00000  Uiso   1.00
C832   C     0.85010   0.76000   0.80674   0.00000  Uiso   1.00
C833   C     0.86737   0.72029   0.88703   0.00000  Uiso   1.00
C834   C     0.86558   0.84634   0.64568   0.00000  Uiso   1.00
C835   C     0.87036   0.84202   0.57651   0.00000  Uiso   1.00
C836   C     0.40284   0.35370   0.54916   0.00000  Uiso   1.00
C837   C     0.45063   0.36824   0.48037   0.00000  Uiso   1.00
C838   C     0.81877   0.86813   0.72167   0.00000  Uiso   1.00
C839   C     0.78419   0.88213   0.71637   0.00000  Uiso   1.00
C840   C     0.77727   0.91216   0.75299   0.00000  Uiso   1.00
C841   C     0.75237   0.96053   0.80218   0.00000  Uiso   1.00
C842   C     0.38136   0.36390   0.76044   0.00000  Uiso   1.00
C843   C     0.87263   0.82686   0.78212   0.00000  Uiso   1.00
C844   C     0.88858   0.80918   0.83560   0.00000  Uiso   1.00
C845   C     0.87686   0.77547   0.84724   0.00000  Uiso   1.00
C846   C     0.39229   0.36178   0.68610   0.00000  Uiso   1.00
C847   C     0.42477   0.37347   0.65885   0.00000  Uiso   1.00
C848   C     0.42960   0.36917   0.58966   0.00000  Uiso   1.00
C849   C     0.84548   0.88357   0.76209   0.00000  Uiso   1.00
C850   C     0.33860   0.41358   0.79872   0.00000  Uiso   1.00
C851   C     0.80403   0.92763   0.79348   0.00000  Uiso   1.00
H852   H     0.81139   0.82344   0.65455   0.00000  Uiso   1.00
H853   H     0.81350   0.76578   0.72196   0.00000  Uiso   1.00
H854   H     0.84968   0.83007   0.54524   0.00000  Uiso   1.00
H855   H     0.76353   0.87017   0.68509   0.00000  Uiso   1.00
H856   H     0.82762   0.70865   0.81452   0.00000  Uiso   1.00
H857   H     0.40392   0.34422   0.44189   0.00000  Uiso   1.00
H858   H     0.72225   0.92879   0.73678   0.00000  Uiso   1.00
H859   H     0.40216   0.37592   0.79191   0.00000  Uiso   1.00
H860   H     0.90925   0.82114   0.86687   0.00000  Uiso   1.00
H861   H     0.44544   0.38542   0.69014   0.00000  Uiso   1.00
H862   H     0.35928   0.42553   0.82999   0.00000  Uiso   1.00
H863   H     0.90534   0.75358   0.93213   0.00000  Uiso   1.00
H864   H     0.48163   0.38915   0.55949   0.00000  Uiso   1.00
H865   H     0.29996   0.47371   0.85439   0.00000  Uiso   1.00
O866   O     0.86951   0.69413   0.92014   0.00000  Uiso   1.00
O867   O     0.46961   0.37199   0.43126   0.00000  Uiso   1.00
O868   O     0.23126   0.48294   0.81815   0.00000  Uiso   1.00
N869   N     0.84494   0.72675   0.83192   0.00000  Uiso   1.00
N870   N     0.41627   0.35349   0.48353   0.00000  Uiso   1.00
N871   N     0.74642   0.93256   0.75922   0.00000  Uiso   1.00
N872   N     0.88675   0.75092   0.89520   0.00000  Uiso   1.00
N873   N     0.45809   0.37767   0.54682   0.00000  Uiso   1.00
N874   N     0.28824   0.45673   0.82250   0.00000  Uiso   1.00
C875   C     0.65917   0.83395   0.68924   0.00000  Uiso   1.00
C876   C     0.68572   0.84046   0.74705   0.00000  Uiso   1.00
C877   C     0.71639   0.82087   0.76120   0.00000  Uiso   1.00
C878   C     0.73719   0.83106   0.81632   0.00000  Uiso   1.00
C879   C     0.77989   0.83681   0.90005   0.00000  Uiso   1.00
C880   C     0.65781   0.86754   0.64853   0.00000  Uiso   1.00
C881   C     0.66500   0.87070   0.57985   0.00000  Uiso   1.00
C882   C     0.66230   0.90368   0.55203   0.00000  Uiso   1.00
C883   C     0.16163   0.45146   0.48279   0.00000  Uiso   1.00
C884   C     0.62191   0.83013   0.72198   0.00000  Uiso   1.00
C885   C     0.59891   0.80184   0.71504   0.00000  Uiso   1.00
C886   C     0.56598   0.80333   0.74904   0.00000  Uiso   1.00
C887   C     0.00958   0.29302   0.79385   0.00000  Uiso   1.00
C888   C     0.64158   0.88689   0.76196   0.00000  Uiso   1.00
C889   C     0.67617   0.86922   0.78655   0.00000  Uiso   1.00
C890   C     0.69693   0.87944   0.84166   0.00000  Uiso   1.00
C891   C     0.72762   0.85986   0.85589   0.00000  Uiso   1.00
C892   C     0.64826   0.89629   0.68803   0.00000  Uiso   1.00
C893   C     0.14554   0.42927   0.66030   0.00000  Uiso   1.00
C894   C     0.15273   0.43249   0.59160   0.00000  Uiso   1.00
C895   C     0.61236   0.85888   0.76148   0.00000  Uiso   1.00
C896   C     0.07945   0.36041   0.79550   0.00000  Uiso   1.00
C897   C     0.05641   0.33213   0.78861   0.00000  Uiso   1.00
H898   H     0.66660   0.81156   0.65849   0.00000  Uiso   1.00
H899   H     0.72378   0.79862   0.73062   0.00000  Uiso   1.00
H900   H     0.67239   0.84844   0.54929   0.00000  Uiso   1.00
H901   H     0.60631   0.77959   0.68447   0.00000  Uiso   1.00
H902   H     0.78295   0.79696   0.82800   0.00000  Uiso   1.00
H903   H     0.67459   0.90201   0.44565   0.00000  Uiso   1.00
H904   H     0.53526   0.75683   0.73069   0.00000  Uiso   1.00
H905   H     0.13414   0.40928   0.79271   0.00000  Uiso   1.00
H906   H     0.68953   0.90169   0.87222   0.00000  Uiso   1.00
H907   H     0.13814   0.45152   0.69088   0.00000  Uiso   1.00
H908   H     0.07207   0.38267   0.82606   0.00000  Uiso   1.00
H909   H     0.75516   0.88062   0.94292   0.00000  Uiso   1.00
H910   H     0.14680   0.48567   0.56057   0.00000  Uiso   1.00
H911   H     0.00746   0.34049   0.84561   0.00000  Uiso   1.00
O912   O     0.80609   0.83204   0.93532   0.00000  Uiso   1.00
O913   O     0.16391   0.46987   0.43369   0.00000  Uiso   1.00
O914   O     0.98111   0.27939   0.80766   0.00000  Uiso   1.00
N915   N     0.76881   0.81768   0.84414   0.00000  Uiso   1.00
N916   N     0.66750   0.91591   0.48667   0.00000  Uiso   1.00
N917   N     0.53723   0.78017   0.75314   0.00000  Uiso   1.00
N918   N     0.75385   0.86270   0.90598   0.00000  Uiso   1.00
N919   N     0.15255   0.46092   0.54851   0.00000  Uiso   1.00
N920   N     0.02227   0.32519   0.81498   0.00000  Uiso   1.00
C921   C     0.16781   0.16453   0.68602   0.00000  Uiso   1.00
C922   C     0.15408   0.18859   0.74170   0.00000  Uiso   1.00
C923   C     0.16583   0.22228   0.75326   0.00000  Uiso   1.00
C924   C     0.14990   0.24000   0.80674   0.00000  Uiso   1.00
C925   C     0.13263   0.27971   0.88703   0.00000  Uiso   1.00
C926   C     0.13442   0.15366   0.64568   0.00000  Uiso   1.00
C927   C     0.12964   0.15798   0.57651   0.00000  Uiso   1.00
C928   C     0.59716   0.64630   0.54916   0.00000  Uiso   1.00
C929   C     0.54937   0.63176   0.48037   0.00000  Uiso   1.00
C930   C     0.18123   0.13187   0.72167   0.00000  Uiso   1.00
C931   C     0.21581   0.11787   0.71637   0.00000  Uiso   1.00
C932   C     0.22273   0.08784   0.75299   0.00000  Uiso   1.00
C933   C     0.24763   0.03947   0.80218   0.00000  Uiso   1.00
C934   C     0.61864   0.63610   0.76044   0.00000  Uiso   1.00
C935   C     0.12737   0.17314   0.78212   0.00000  Uiso   1.00
C936   C     0.11142   0.19082   0.83560   0.00000  Uiso   1.00
C937   C     0.12314   0.22453   0.84724   0.00000  Uiso   1.00
C938   C     0.60771   0.63822   0.68610   0.00000  Uiso   1.00
C939   C     0.57523   0.62653   0.65885   0.00000  Uiso   1.00
C940   C     0.57040   0.63083   0.58966   0.00000  Uiso   1.00
C941   C     0.15452   0.11643   0.76209   0.00000  Uiso   1.00
C942   C     0.66140   0.58642   0.79872   0.00000  Uiso   1.00
C943   C     0.19597   0.07237   0.79348   0.00000  Uiso   1.00
H944   H     0.18861   0.17656   0.65455   0.00000  Uiso   1.00
H945   H     0.18650   0.23422   0.72196   0.00000  Uiso   1.00
H946   H     0.15032   0.16993   0.54524   0.00000  Uiso   1.00
H947   H     0.23647   0.12983   0.68509   0.00000  Uiso   1.00
H948   H     0.17238   0.29135   0.81452   0.00000  Uiso   1.00
H949   H     0.59608   0.65578   0.44189   0.00000  Uiso   1.00
H950   H     0.27775   0.07121   0.73678   0.00000  Uiso   1.00
H951   H     0.59784   0.62408   0.79191   0.00000  Uiso   1.00
H952   H     0.09075   0.17886   0.86687   0.00000  Uiso   1.00
H953   H     0.55456   0.61458   0.69014   0.00000  Uiso   1.00
H954   H     0.64072   0.57447   0.82999   0.00000  Uiso   1.00
H955   H     0.09466   0.24642   0.93213   0.00000  Uiso   1.00
H956   H     0.51837   0.61085   0.55949   0.00000  Uiso   1.00
H957   H     0.70004   0.52629   0.85439   0.00000  Uiso   1.00
O958   O     0.13049   0.30587   0.92014   0.00000  Uiso   1.00
O959   O     0.53039   0.62801   0.43126   0.00000  Uiso   1.00
O960   O     0.76874   0.51706   0.81815   0.00000  Uiso   1.00
N961   N     0.15506   0.27325   0.83192   0.00000  Uiso   1.00
N962   N     0.58373   0.64651   0.48353   0.00000  Uiso   1.00
N963   N     0.25358   0.06744   0.75922   0.00000  Uiso   1.00
N964   N     0.11325   0.24908   0.89520   0.00000  Uiso   1.00
N965   N     0.54191   0.62233   0.54682   0.00000  Uiso   1.00
N966   N     0.71176   0.54327   0.82250   0.00000  Uiso   1.00
C967   C     0.34083   0.16605   0.68924   0.00000  Uiso   1.00
C968   C     0.31428   0.15954   0.74705   0.00000  Uiso   1.00
C969   C     0.28361   0.17913   0.76120   0.00000  Uiso   1.00
C970   C     0.26281   0.16894   0.81632   0.00000  Uiso   1.00
C971   C     0.22011   0.16319   0.90005   0.00000  Uiso   1.00
C972   C     0.34219   0.13246   0.64853   0.00000  Uiso   1.00
C973   C     0.33500   0.12930   0.57985   0.00000  Uiso   1.00
C974   C     0.33770   0.09632   0.55203   0.00000  Uiso   1.00
C975   C     0.83837   0.54854   0.48279   0.00000  Uiso   1.00
C976   C     0.37809   0.16987   0.72198   0.00000  Uiso   1.00
C977   C     0.40109   0.19816   0.71504   0.00000  Uiso   1.00
C978   C     0.43402   0.19667   0.74904   0.00000  Uiso   1.00
C979   C     0.99042   0.70698   0.79385   0.00000  Uiso   1.00
C980   C     0.35842   0.11311   0.76196   0.00000  Uiso   1.00
C981   C     0.32383   0.13078   0.78655   0.00000  Uiso   1.00
C982   C     0.30307   0.12056   0.84166   0.00000  Uiso   1.00
C983   C     0.27238   0.14014   0.85589   0.00000  Uiso   1.00
C984   C     0.35174   0.10371   0.68803   0.00000  Uiso   1.00
C985   C     0.85446   0.57073   0.66030   0.00000  Uiso   1.00
C986   C     0.84727   0.56751   0.59160   0.00000  Uiso   1.00
C987   C     0.38764   0.14112   0.76148   0.00000  Uiso   1.00
C988   C     0.92055   0.63959   0.79550   0.00000  Uiso   1.00
C989   C     0.94359   0.66787   0.78861   0.00000  Uiso   1.00
H990   H     0.33340   0.18844   0.65849   0.00000  Uiso   1.00
H991   H     0.27622   0.20138   0.73062   0.00000  Uiso   1.00
H992   H     0.32761   0.15156   0.54929   0.00000  Uiso   1.00
H993   H     0.39369   0.22041   0.68447   0.00000  Uiso   1.00
H994   H     0.21705   0.20304   0.82800   0.00000  Uiso   1.00
H995   H     0.32541   0.09799   0.44565   0.00000  Uiso   1.00
H996   H     0.46474   0.24317   0.73069   0.00000  Uiso   1.00
H997   H     0.86586   0.59072   0.79271   0.00000  Uiso   1.00
H998   H     0.31047   0.09831   0.87222   0.00000  Uiso   1.00
H999   H     0.86186   0.54848   0.69088   0.00000  Uiso   1.00
H1000  H     0.92793   0.61733   0.82606   0.00000  Uiso   1.00
H1001  H     0.24484   0.11938   0.94292   0.00000  Uiso   1.00
H1002  H     0.85320   0.51433   0.56057   0.00000  Uiso   1.00
H1003  H     0.99254   0.65951   0.84561   0.00000  Uiso   1.00
O1004  O     0.19391   0.16796   0.93532   0.00000  Uiso   1.00
O1005  O     0.83609   0.53013   0.43369   0.00000  Uiso   1.00
O1006  O     0.01889   0.72061   0.80766   0.00000  Uiso   1.00
N1007  N     0.23119   0.18232   0.84414   0.00000  Uiso   1.00
N1008  N     0.33250   0.08409   0.48667   0.00000  Uiso   1.00
N1009  N     0.46277   0.21983   0.75314   0.00000  Uiso   1.00
N1010  N     0.24615   0.13730   0.90598   0.00000  Uiso   1.00
N1011  N     0.84745   0.53908   0.54851   0.00000  Uiso   1.00
N1012  N     0.97773   0.67481   0.81498   0.00000  Uiso   1.00
C1013  C     0.66781   0.66453   0.68602   0.00000  Uiso   1.00
C1014  C     0.65408   0.68859   0.74170   0.00000  Uiso   1.00
C1015  C     0.66583   0.72228   0.75326   0.00000  Uiso   1.00
C1016  C     0.64990   0.74000   0.80674   0.00000  Uiso   1.00
C1017  C     0.63263   0.77971   0.88703   0.00000  Uiso   1.00
C1018  C     0.63442   0.65366   0.64568   0.00000  Uiso   1.00
C1019  C     0.62964   0.65798   0.57651   0.00000  Uiso   1.00
C1020  C     0.09716   0.14630   0.54916   0.00000  Uiso   1.00
C1021  C     0.04937   0.13176   0.48037   0.00000  Uiso   1.00
C1022  C     0.68123   0.63187   0.72167   0.00000  Uiso   1.00
C1023  C     0.71581   0.61787   0.71637   0.00000  Uiso   1.00
C1024  C     0.72273   0.58784   0.75299   0.00000  Uiso   1.00
C1025  C     0.74763   0.53947   0.80218   0.00000  Uiso   1.00
C1026  C     0.11864   0.13610   0.76044   0.00000  Uiso   1.00
C1027  C     0.62737   0.67314   0.78212   0.00000  Uiso   1.00
C1028  C     0.61142   0.69082   0.83560   0.00000  Uiso   1.00
C1029  C     0.62314   0.72453   0.84724   0.00000  Uiso   1.00
C1030  C     0.10771   0.13822   0.68610   0.00000  Uiso   1.00
C1031  C     0.07523   0.12653   0.65885   0.00000  Uiso   1.00
C1032  C     0.07040   0.13083   0.58966   0.00000  Uiso   1.00
C1033  C     0.65452   0.61643   0.76209   0.00000  Uiso   1.00
C1034  C     0.16140   0.08642   0.79872   0.00000  Uiso   1.00
C1035  C     0.69597   0.57237   0.79348   0.00000  Uiso   1.00
H1036  H     0.68861   0.67656   0.65455   0.00000  Uiso   1.00
H1037  H     0.68650   0.73422   0.72196   0.00000  Uiso   1.00
H1038  H     0.65032   0.66993   0.54524   0.00000  Uiso   1.00
H1039  H     0.73647   0.62983   0.68509   0.00000  Uiso   1.00
H1040  H     0.67238   0.79135   0.81452   0.00000  Uiso   1.00
H1041  H     0.09608   0.15578   0.44189   0.00000  Uiso   1.00
H1042  H     0.77775   0.57121   0.73678   0.00000  Uiso   1.00
H1043  H     0.09784   0.12408   0.79191   0.00000  Uiso   1.00
H1044  H     0.59075   0.67886   0.86687   0.00000  Uiso   1.00
H1045  H     0.05456   0.11458   0.69014   0.00000  Uiso   1.00
H1046  H     0.14072   0.07447   0.82999   0.00000  Uiso   1.00
H1047  H     0.59466   0.74642   0.93213   0.00000  Uiso   1.00
H1048  H     0.01837   0.11085   0.55949   0.00000  Uiso   1.00
H1049  H     0.20004   0.02629   0.85439   0.00000  Uiso   1.00
O1050  O     0.63049   0.80587   0.92014   0.00000  Uiso   1.00
O1051  O     0.03039   0.12801   0.43126   0.00000  Uiso   1.00
O1052  O     0.26874   0.01706   0.81815   0.00000  Uiso   1.00
N1053  N     0.65506   0.77325   0.83192   0.00000  Uiso   1.00
N1054  N     0.08373   0.14651   0.48353   0.00000  Uiso   1.00
N1055  N     0.75358   0.56744   0.75922   0.00000  Uiso   1.00
N1056  N     0.61325   0.74908   0.89520   0.00000  Uiso   1.00
N1057  N     0.04191   0.12233   0.54682   0.00000  Uiso   1.00
N1058  N     0.21176   0.04327   0.82250   0.00000  Uiso   1.00
C1059  C     0.84083   0.66605   0.68924   0.00000  Uiso   1.00
C1060  C     0.81428   0.65954   0.74705   0.00000  Uiso   1.00
C1061  C     0.78361   0.67913   0.76120   0.00000  Uiso   1.00
C1062  C     0.76281   0.66894   0.81632   0.00000  Uiso   1.00
C1063  C     0.72011   0.66319   0.90005   0.00000  Uiso   1.00
C1064  C     0.84219   0.63246   0.64853   0.00000  Uiso   1.00
C1065  C     0.83500   0.62930   0.57985   0.00000  Uiso   1.00
C1066  C     0.83770   0.59632   0.55203   0.00000  Uiso   1.00
C1067  C     0.33837   0.04854   0.48279   0.00000  Uiso   1.00
C1068  C     0.87809   0.66987   0.72198   0.00000  Uiso   1.00
C1069  C     0.90109   0.69816   0.71504   0.00000  Uiso   1.00
C1070  C     0.93402   0.69667   0.74904   0.00000  Uiso   1.00
C1071  C     0.49042   0.20698   0.79385   0.00000  Uiso   1.00
C1072  C     0.85842   0.61311   0.76196   0.00000  Uiso   1.00
C1073  C     0.82383   0.63078   0.78655   0.00000  Uiso   1.00
C1074  C     0.80307   0.62056   0.84166   0.00000  Uiso   1.00
C1075  C     0.77238   0.64014   0.85589   0.00000  Uiso   1.00
C1076  C     0.85174   0.60371   0.68803   0.00000  Uiso   1.00
C1077  C     0.35446   0.07073   0.66030   0.00000  Uiso   1.00
C1078  C     0.34727   0.06751   0.59160   0.00000  Uiso   1.00
C1079  C     0.88764   0.64112   0.76148   0.00000  Uiso   1.00
C1080  C     0.42055   0.13959   0.79550   0.00000  Uiso   1.00
C1081  C     0.44359   0.16787   0.78861   0.00000  Uiso   1.00
H1082  H     0.83340   0.68844   0.65849   0.00000  Uiso   1.00
H1083  H     0.77622   0.70138   0.73062   0.00000  Uiso   1.00
H1084  H     0.82761   0.65156   0.54929   0.00000  Uiso   1.00
H1085  H     0.89369   0.72041   0.68447   0.00000  Uiso   1.00
H1086  H     0.71705   0.70304   0.82800   0.00000  Uiso   1.00
H1087  H     0.82541   0.59799   0.44565   0.00000  Uiso   1.00
H1088  H     0.96474   0.74317   0.73069   0.00000  Uiso   1.00
H1089  H     0.36586   0.09072   0.79271   0.00000  Uiso   1.00
H1090  H     0.81047   0.59831   0.87222   0.00000  Uiso   1.00
H1091  H     0.36186   0.04848   0.69088   0.00000  Uiso   1.00
H1092  H     0.42793   0.11733   0.82606   0.00000  Uiso   1.00
H1093  H     0.74484   0.61938   0.94292   0.00000  Uiso   1.00
H1094  H     0.35320   0.01433   0.56057   0.00000  Uiso   1.00
H1095  H     0.49254   0.15951   0.84561   0.00000  Uiso   1.00
O1096  O     0.69391   0.66796   0.93532   0.00000  Uiso   1.00
O1097  O     0.33609   0.03013   0.43369   0.00000  Uiso   1.00
O1098  O     0.51889   0.22061   0.80766   0.00000  Uiso   1.00
N1099  N     0.73119   0.68232   0.84414   0.00000  Uiso   1.00
N1100  N     0.83250   0.58409   0.48667   0.00000  Uiso   1.00
N1101  N     0.96277   0.71983   0.75314   0.00000  Uiso   1.00
N1102  N     0.74615   0.63730   0.90598   0.00000  Uiso   1.00
N1103  N     0.34745   0.03908   0.54851   0.00000  Uiso   1.00
N1104  N     0.47773   0.17481   0.81498   0.00000  Uiso   1.00
C1105  C     0.66781   0.33547   0.31398   0.00000  Uiso   1.00
C1106  C     0.65408   0.31141   0.25830   0.00000  Uiso   1.00
C1107  C     0.66583   0.27772   0.24674   0.00000  Uiso   1.00
C1108  C     0.64990   0.26000   0.19326   0.00000  Uiso   1.00
C1109  C     0.63263   0.22029   0.11297   0.00000  Uiso   1.00
C1110  C     0.63442   0.34634   0.35432   0.00000  Uiso   1.00
C1111  C     0.62964   0.34202   0.42349   0.00000  Uiso   1.00
C1112  C     0.09716   0.85370   0.45084   0.00000  Uiso   1.00
C1113  C     0.04937   0.86824   0.51963   0.00000  Uiso   1.00
C1114  C     0.68123   0.36813   0.27833   0.00000  Uiso   1.00
C1115  C     0.71581   0.38213   0.28363   0.00000  Uiso   1.00
C1116  C     0.72273   0.41216   0.24701   0.00000  Uiso   1.00
C1117  C     0.74763   0.46053   0.19782   0.00000  Uiso   1.00
C1118  C     0.11864   0.86390   0.23956   0.00000  Uiso   1.00
C1119  C     0.62737   0.32686   0.21788   0.00000  Uiso   1.00
C1120  C     0.61142   0.30918   0.16440   0.00000  Uiso   1.00
C1121  C     0.62314   0.27547   0.15276   0.00000  Uiso   1.00
C1122  C     0.10771   0.86178   0.31390   0.00000  Uiso   1.00
C1123  C     0.07523   0.87347   0.34115   0.00000  Uiso   1.00
C1124  C     0.07040   0.86917   0.41034   0.00000  Uiso   1.00
C1125  C     0.65452   0.38357   0.23791   0.00000  Uiso   1.00
C1126  C     0.16140   0.91358   0.20128   0.00000  Uiso   1.00
C1127  C     0.69597   0.42763   0.20652   0.00000  Uiso   1.00
H1128  H     0.68861   0.32344   0.34545   0.00000  Uiso   1.00
H1129  H     0.68650   0.26578   0.27804   0.00000  Uiso   1.00
H1130  H     0.65032   0.33007   0.45476   0.00000  Uiso   1.00
H1131  H     0.73647   0.37017   0.31491   0.00000  Uiso   1.00
H1132  H     0.67238   0.20865   0.18548   0.00000  Uiso   1.00
H1133  H     0.09608   0.84422   0.55811   0.00000  Uiso   1.00
H1134  H     0.77775   0.42879   0.26322   0.00000  Uiso   1.00
H1135  H     0.09784   0.87592   0.20809   0.00000  Uiso   1.00
H1136  H     0.59075   0.32114   0.13313   0.00000  Uiso   1.00
H1137  H     0.05456   0.88542   0.30986   0.00000  Uiso   1.00
H1138  H     0.14072   0.92553   0.17001   0.00000  Uiso   1.00
H1139  H     0.59466   0.25358   0.06787   0.00000  Uiso   1.00
H1140  H     0.01837   0.88915   0.44051   0.00000  Uiso   1.00
H1141  H     0.20004   0.97371   0.14561   0.00000  Uiso   1.00
O1142  O     0.63049   0.19413   0.07986   0.00000  Uiso   1.00
O1143  O     0.03039   0.87199   0.56874   0.00000  Uiso   1.00
O1144  O     0.26874   0.98294   0.18185   0.00000  Uiso   1.00
N1145  N     0.65506   0.22675   0.16808   0.00000  Uiso   1.00
N1146  N     0.08373   0.85349   0.51647   0.00000  Uiso   1.00
N1147  N     0.75358   0.43256   0.24078   0.00000  Uiso   1.00
N1148  N     0.61325   0.25092   0.10480   0.00000  Uiso   1.00
N1149  N     0.04191   0.87767   0.45318   0.00000  Uiso   1.00
N1150  N     0.21176   0.95673   0.17750   0.00000  Uiso   1.00
C1151  C     0.84083   0.33395   0.31076   0.00000  Uiso   1.00
C1152  C     0.81428   0.34046   0.25295   0.00000  Uiso   1.00
C1153  C     0.78361   0.32087   0.23880   0.00000  Uiso   1.00
C1154  C     0.76281   0.33106   0.18368   0.00000  Uiso   1.00
C1155  C     0.72011   0.33681   0.09995   0.00000  Uiso   1.00
C1156  C     0.84219   0.36754   0.35147   0.00000  Uiso   1.00
C1157  C     0.83500   0.37070   0.42015   0.00000  Uiso   1.00
C1158  C     0.83770   0.40368   0.44797   0.00000  Uiso   1.00
C1159  C     0.33837   0.95146   0.51721   0.00000  Uiso   1.00
C1160  C     0.87809   0.33013   0.27802   0.00000  Uiso   1.00
C1161  C     0.90109   0.30184   0.28496   0.00000  Uiso   1.00
C1162  C     0.93402   0.30333   0.25096   0.00000  Uiso   1.00
C1163  C     0.49042   0.79302   0.20615   0.00000  Uiso   1.00
C1164  C     0.85842   0.38689   0.23804   0.00000  Uiso   1.00
C1165  C     0.82383   0.36922   0.21345   0.00000  Uiso   1.00
C1166  C     0.80307   0.37944   0.15834   0.00000  Uiso   1.00
C1167  C     0.77238   0.35986   0.14411   0.00000  Uiso   1.00
C1168  C     0.85174   0.39629   0.31197   0.00000  Uiso   1.00
C1169  C     0.35446   0.92927   0.33970   0.00000  Uiso   1.00
C1170  C     0.34727   0.93249   0.40840   0.00000  Uiso   1.00
C1171  C     0.88764   0.35888   0.23852   0.00000  Uiso   1.00
C1172  C     0.42055   0.86041   0.20450   0.00000  Uiso   1.00
C1173  C     0.44359   0.83213   0.21139   0.00000  Uiso   1.00
H1174  H     0.83340   0.31156   0.34151   0.00000  Uiso   1.00
H1175  H     0.77622   0.29862   0.26938   0.00000  Uiso   1.00
H1176  H     0.82761   0.34844   0.45071   0.00000  Uiso   1.00
H1177  H     0.89369   0.27959   0.31553   0.00000  Uiso   1.00
H1178  H     0.71705   0.29696   0.17200   0.00000  Uiso   1.00
H1179  H     0.82541   0.40201   0.55435   0.00000  Uiso   1.00
H1180  H     0.96474   0.25683   0.26931   0.00000  Uiso   1.00
H1181  H     0.36586   0.90928   0.20729   0.00000  Uiso   1.00
H1182  H     0.81047   0.40169   0.12778   0.00000  Uiso   1.00
H1183  H     0.36186   0.95152   0.30912   0.00000  Uiso   1.00
H1184  H     0.42793   0.88267   0.17394   0.00000  Uiso   1.00
H1185  H     0.74484   0.38062   0.05708   0.00000  Uiso   1.00
H1186  H     0.35320   0.98567   0.43943   0.00000  Uiso   1.00
H1187  H     0.49254   0.84049   0.15439   0.00000  Uiso   1.00
O1188  O     0.69391   0.33204   0.06468   0.00000  Uiso   1.00
O1189  O     0.33609   0.96987   0.56631   0.00000  Uiso   1.00
O1190  O     0.51889   0.77939   0.19234   0.00000  Uiso   1.00
N1191  N     0.73119   0.31768   0.15586   0.00000  Uiso   1.00
N1192  N     0.83250   0.41591   0.51333   0.00000  Uiso   1.00
N1193  N     0.96277   0.28017   0.24686   0.00000  Uiso   1.00
N1194  N     0.74615   0.36270   0.09402   0.00000  Uiso   1.00
N1195  N     0.34745   0.96092   0.45149   0.00000  Uiso   1.00
N1196  N     0.47773   0.82519   0.18502   0.00000  Uiso   1.00
C1197  C     0.16781   0.83547   0.31398   0.00000  Uiso   1.00
C1198  C     0.15408   0.81141   0.25830   0.00000  Uiso   1.00
C1199  C     0.16583   0.77772   0.24674   0.00000  Uiso   1.00
C1200  C     0.14990   0.76000   0.19326   0.00000  Uiso   1.00
C1201  C     0.13263   0.72029   0.11297   0.00000  Uiso   1.00
C1202  C     0.13442   0.84634   0.35432   0.00000  Uiso   1.00
C1203  C     0.12964   0.84202   0.42349   0.00000  Uiso   1.00
C1204  C     0.59716   0.35370   0.45084   0.00000  Uiso   1.00
C1205  C     0.54937   0.36824   0.51963   0.00000  Uiso   1.00
C1206  C     0.18123   0.86813   0.27833   0.00000  Uiso   1.00
C1207  C     0.21581   0.88213   0.28363   0.00000  Uiso   1.00
C1208  C     0.22273   0.91216   0.24701   0.00000  Uiso   1.00
C1209  C     0.24763   0.96053   0.19782   0.00000  Uiso   1.00
C1210  C     0.61864   0.36390   0.23956   0.00000  Uiso   1.00
C1211  C     0.12737   0.82686   0.21788   0.00000  Uiso   1.00
C1212  C     0.11142   0.80918   0.16440   0.00000  Uiso   1.00
C1213  C     0.12314   0.77547   0.15276   0.00000  Uiso   1.00
C1214  C     0.60771   0.36178   0.31390   0.00000  Uiso   1.00
C1215  C     0.57523   0.37347   0.34115   0.00000  Uiso   1.00
C1216  C     0.57040   0.36917   0.41034   0.00000  Uiso   1.00
C1217  C     0.15452   0.88357   0.23791   0.00000  Uiso   1.00
C1218  C     0.66140   0.41358   0.20128   0.00000  Uiso   1.00
C1219  C     0.19597   0.92763   0.20652   0.00000  Uiso   1.00
H1220  H     0.18861   0.82344   0.34545   0.00000  Uiso   1.00
H1221  H     0.18650   0.76578   0.27804   0.00000  Uiso   1.00
H1222  H     0.15032   0.83007   0.45476   0.00000  Uiso   1.00
H1223  H     0.23647   0.87017   0.31491   0.00000  Uiso   1.00
H1224  H     0.17238   0.70865   0.18548   0.00000  Uiso   1.00
H1225  H     0.59608   0.34422   0.55811   0.00000  Uiso   1.00
H1226  H     0.27775   0.92879   0.26322   0.00000  Uiso   1.00
H1227  H     0.59784   0.37592   0.20809   0.00000  Uiso   1.00
H1228  H     0.09075   0.82114   0.13313   0.00000  Uiso   1.00
H1229  H     0.55456   0.38542   0.30986   0.00000  Uiso   1.00
H1230  H     0.64072   0.42553   0.17001   0.00000  Uiso   1.00
H1231  H     0.09466   0.75358   0.06787   0.00000  Uiso   1.00
H1232  H     0.51837   0.38915   0.44051   0.00000  Uiso   1.00
H1233  H     0.70004   0.47371   0.14561   0.00000  Uiso   1.00
O1234  O     0.13049   0.69413   0.07986   0.00000  Uiso   1.00
O1235  O     0.53039   0.37199   0.56874   0.00000  Uiso   1.00
O1236  O     0.76874   0.48294   0.18185   0.00000  Uiso   1.00
N1237  N     0.15506   0.72675   0.16808   0.00000  Uiso   1.00
N1238  N     0.58373   0.35349   0.51647   0.00000  Uiso   1.00
N1239  N     0.25358   0.93256   0.24078   0.00000  Uiso   1.00
N1240  N     0.11325   0.75092   0.10480   0.00000  Uiso   1.00
N1241  N     0.54191   0.37767   0.45318   0.00000  Uiso   1.00
N1242  N     0.71176   0.45673   0.17750   0.00000  Uiso   1.00
C1243  C     0.34083   0.83395   0.31076   0.00000  Uiso   1.00
C1244  C     0.31428   0.84046   0.25295   0.00000  Uiso   1.00
C1245  C     0.28361   0.82087   0.23880   0.00000  Uiso   1.00
C1246  C     0.26281   0.83106   0.18368   0.00000  Uiso   1.00
C1247  C     0.22011   0.83681   0.09995   0.00000  Uiso   1.00
C1248  C     0.34219   0.86754   0.35147   0.00000  Uiso   1.00
C1249  C     0.33500   0.87070   0.42015   0.00000  Uiso   1.00
C1250  C     0.33770   0.90368   0.44797   0.00000  Uiso   1.00
C1251  C     0.83837   0.45146   0.51721   0.00000  Uiso   1.00
C1252  C     0.37809   0.83013   0.27802   0.00000  Uiso   1.00
C1253  C     0.40109   0.80184   0.28496   0.00000  Uiso   1.00
C1254  C     0.43402   0.80333   0.25096   0.00000  Uiso   1.00
C1255  C     0.99042   0.29302   0.20615   0.00000  Uiso   1.00
C1256  C     0.35842   0.88689   0.23804   0.00000  Uiso   1.00
C1257  C     0.32383   0.86922   0.21345   0.00000  Uiso   1.00
C1258  C     0.30307   0.87944   0.15834   0.00000  Uiso   1.00
C1259  C     0.27238   0.85986   0.14411   0.00000  Uiso   1.00
C1260  C     0.35174   0.89629   0.31197   0.00000  Uiso   1.00
C1261  C     0.85446   0.42927   0.33970   0.00000  Uiso   1.00
C1262  C     0.84727   0.43249   0.40840   0.00000  Uiso   1.00
C1263  C     0.38764   0.85888   0.23852   0.00000  Uiso   1.00
C1264  C     0.92055   0.36041   0.20450   0.00000  Uiso   1.00
C1265  C     0.94359   0.33213   0.21139   0.00000  Uiso   1.00
H1266  H     0.33340   0.81156   0.34151   0.00000  Uiso   1.00
H1267  H     0.27622   0.79862   0.26938   0.00000  Uiso   1.00
H1268  H     0.32761   0.84844   0.45071   0.00000  Uiso   1.00
H1269  H     0.39369   0.77959   0.31553   0.00000  Uiso   1.00
H1270  H     0.21705   0.79696   0.17200   0.00000  Uiso   1.00
H1271  H     0.32541   0.90201   0.55435   0.00000  Uiso   1.00
H1272  H     0.46474   0.75683   0.26931   0.00000  Uiso   1.00
H1273  H     0.86586   0.40928   0.20729   0.00000  Uiso   1.00
H1274  H     0.31047   0.90169   0.12778   0.00000  Uiso   1.00
H1275  H     0.86186   0.45152   0.30912   0.00000  Uiso   1.00
H1276  H     0.92793   0.38267   0.17394   0.00000  Uiso   1.00
H1277  H     0.24484   0.88062   0.05708   0.00000  Uiso   1.00
H1278  H     0.85320   0.48567   0.43943   0.00000  Uiso   1.00
H1279  H     0.99254   0.34049   0.15439   0.00000  Uiso   1.00
O1280  O     0.19391   0.83204   0.06468   0.00000  Uiso   1.00
O1281  O     0.83609   0.46987   0.56631   0.00000  Uiso   1.00
O1282  O     0.01889   0.27939   0.19234   0.00000  Uiso   1.00
N1283  N     0.23119   0.81768   0.15586   0.00000  Uiso   1.00
N1284  N     0.33250   0.91591   0.51333   0.00000  Uiso   1.00
N1285  N     0.46277   0.78017   0.24686   0.00000  Uiso   1.00
N1286  N     0.24615   0.86270   0.09402   0.00000  Uiso   1.00
N1287  N     0.84745   0.46092   0.45149   0.00000  Uiso   1.00
N1288  N     0.97773   0.32519   0.18502   0.00000  Uiso   1.00
C1289  C     0.83219   0.16453   0.31398   0.00000  Uiso   1.00
C1290  C     0.84592   0.18859   0.25830   0.00000  Uiso   1.00
C1291  C     0.83417   0.22228   0.24674   0.00000  Uiso   1.00
C1292  C     0.85010   0.24000   0.19326   0.00000  Uiso   1.00
C1293  C     0.86737   0.27971   0.11297   0.00000  Uiso   1.00
C1294  C     0.86558   0.15366   0.35432   0.00000  Uiso   1.00
C1295  C     0.87036   0.15798   0.42349   0.00000  Uiso   1.00
C1296  C     0.40284   0.64630   0.45084   0.00000  Uiso   1.00
C1297  C     0.45063   0.63176   0.51963   0.00000  Uiso   1.00
C1298  C     0.81877   0.13187   0.27833   0.00000  Uiso   1.00
C1299  C     0.78419   0.11787   0.28363   0.00000  Uiso   1.00
C1300  C     0.77727   0.08784   0.24701   0.00000  Uiso   1.00
C1301  C     0.75237   0.03947   0.19782   0.00000  Uiso   1.00
C1302  C     0.38136   0.63610   0.23956   0.00000  Uiso   1.00
C1303  C     0.87263   0.17314   0.21788   0.00000  Uiso   1.00
C1304  C     0.88858   0.19082   0.16440   0.00000  Uiso   1.00
C1305  C     0.87686   0.22453   0.15276   0.00000  Uiso   1.00
C1306  C     0.39229   0.63822   0.31390   0.00000  Uiso   1.00
C1307  C     0.42477   0.62653   0.34115   0.00000  Uiso   1.00
C1308  C     0.42960   0.63083   0.41034   0.00000  Uiso   1.00
C1309  C     0.84548   0.11643   0.23791   0.00000  Uiso   1.00
C1310  C     0.33860   0.58642   0.20128   0.00000  Uiso   1.00
C1311  C     0.80403   0.07237   0.20652   0.00000  Uiso   1.00
H1312  H     0.81139   0.17656   0.34545   0.00000  Uiso   1.00
H1313  H     0.81350   0.23422   0.27804   0.00000  Uiso   1.00
H1314  H     0.84968   0.16993   0.45476   0.00000  Uiso   1.00
H1315  H     0.76353   0.12983   0.31491   0.00000  Uiso   1.00
H1316  H     0.82762   0.29135   0.18548   0.00000  Uiso   1.00
H1317  H     0.40392   0.65578   0.55811   0.00000  Uiso   1.00
H1318  H     0.72225   0.07121   0.26322   0.00000  Uiso   1.00
H1319  H     0.40216   0.62408   0.20809   0.00000  Uiso   1.00
H1320  H     0.90925   0.17886   0.13313   0.00000  Uiso   1.00
H1321  H     0.44544   0.61458   0.30986   0.00000  Uiso   1.00
H1322  H     0.35928   0.57447   0.17001   0.00000  Uiso   1.00
H1323  H     0.90534   0.24642   0.06787   0.00000  Uiso   1.00
H1324  H     0.48163   0.61085   0.44051   0.00000  Uiso   1.00
H1325  H     0.29996   0.52629   0.14561   0.00000  Uiso   1.00
O1326  O     0.86951   0.30587   0.07986   0.00000  Uiso   1.00
O1327  O     0.46961   0.62801   0.56874   0.00000  Uiso   1.00
O1328  O     0.23126   0.51706   0.18185   0.00000  Uiso   1.00
N1329  N     0.84494   0.27325   0.16808   0.00000  Uiso   1.00
N1330  N     0.41627   0.64651   0.51647   0.00000  Uiso   1.00
N1331  N     0.74642   0.06744   0.24078   0.00000  Uiso   1.00
N1332  N     0.88675   0.24908   0.10480   0.00000  Uiso   1.00
N1333  N     0.45809   0.62233   0.45318   0.00000  Uiso   1.00
N1334  N     0.28824   0.54327   0.17750   0.00000  Uiso   1.00
C1335  C     0.65917   0.16605   0.31076   0.00000  Uiso   1.00
C1336  C     0.68572   0.15954   0.25295   0.00000  Uiso   1.00
C1337  C     0.71639   0.17913   0.23880   0.00000  Uiso   1.00
C1338  C     0.73719   0.16894   0.18368   0.00000  Uiso   1.00
C1339  C     0.77989   0.16319   0.09995   0.00000  Uiso   1.00
C1340  C     0.65781   0.13246   0.35147   0.00000  Uiso   1.00
C1341  C     0.66500   0.12930   0.42015   0.00000  Uiso   1.00
C1342  C     0.66230   0.09632   0.44797   0.00000  Uiso   1.00
C1343  C     0.16163   0.54854   0.51721   0.00000  Uiso   1.00
C1344  C     0.62191   0.16987   0.27802   0.00000  Uiso   1.00
C1345  C     0.59891   0.19816   0.28496   0.00000  Uiso   1.00
C1346  C     0.56598   0.19667   0.25096   0.00000  Uiso   1.00
C1347  C     0.00958   0.70698   0.20615   0.00000  Uiso   1.00
C1348  C     0.64158   0.11311   0.23804   0.00000  Uiso   1.00
C1349  C     0.67617   0.13078   0.21345   0.00000  Uiso   1.00
C1350  C     0.69693   0.12056   0.15834   0.00000  Uiso   1.00
C1351  C     0.72762   0.14014   0.14411   0.00000  Uiso   1.00
C1352  C     0.64826   0.10371   0.31197   0.00000  Uiso   1.00
C1353  C     0.14554   0.57073   0.33970   0.00000  Uiso   1.00
C1354  C     0.15273   0.56751   0.40840   0.00000  Uiso   1.00
C1355  C     0.61236   0.14112   0.23852   0.00000  Uiso   1.00
C1356  C     0.07945   0.63959   0.20450   0.00000  Uiso   1.00
C1357  C     0.05641   0.66787   0.21139   0.00000  Uiso   1.00
H1358  H     0.66660   0.18844   0.34151   0.00000  Uiso   1.00
H1359  H     0.72378   0.20138   0.26938   0.00000  Uiso   1.00
H1360  H     0.67239   0.15156   0.45071   0.00000  Uiso   1.00
H1361  H     0.60631   0.22041   0.31553   0.00000  Uiso   1.00
H1362  H     0.78295   0.20304   0.17200   0.00000  Uiso   1.00
H1363  H     0.67459   0.09799   0.55435   0.00000  Uiso   1.00
H1364  H     0.53526   0.24317   0.26931   0.00000  Uiso   1.00
H1365  H     0.13414   0.59072   0.20729   0.00000  Uiso   1.00
H1366  H     0.68953   0.09831   0.12778   0.00000  Uiso   1.00
H1367  H     0.13814   0.54848   0.30912   0.00000  Uiso   1.00
H1368  H     0.07207   0.61733   0.17394   0.00000  Uiso   1.00
H1369  H     0.75516   0.11938   0.05708   0.00000  Uiso   1.00
H1370  H     0.14680   0.51433   0.43943   0.00000  Uiso   1.00
H1371  H     0.00746   0.65951   0.15439   0.00000  Uiso   1.00
O1372  O     0.80609   0.16796   0.06468   0.00000  Uiso   1.00
O1373  O     0.16391   0.53013   0.56631   0.00000  Uiso   1.00
O1374  O     0.98111   0.72061   0.19234   0.00000  Uiso   1.00
N1375  N     0.76881   0.18232   0.15586   0.00000  Uiso   1.00
N1376  N     0.66750   0.08409   0.51333   0.00000  Uiso   1.00
N1377  N     0.53723   0.21983   0.24686   0.00000  Uiso   1.00
N1378  N     0.75385   0.13730   0.09402   0.00000  Uiso   1.00
N1379  N     0.15255   0.53908   0.45149   0.00000  Uiso   1.00
N1380  N     0.02227   0.67481   0.18502   0.00000  Uiso   1.00
C1381  C     0.33219   0.66453   0.31398   0.00000  Uiso   1.00
C1382  C     0.34592   0.68859   0.25830   0.00000  Uiso   1.00
C1383  C     0.33417   0.72228   0.24674   0.00000  Uiso   1.00
C1384  C     0.35010   0.74000   0.19326   0.00000  Uiso   1.00
C1385  C     0.36737   0.77971   0.11297   0.00000  Uiso   1.00
C1386  C     0.36558   0.65366   0.35432   0.00000  Uiso   1.00
C1387  C     0.37036   0.65798   0.42349   0.00000  Uiso   1.00
C1388  C     0.90284   0.14630   0.45084   0.00000  Uiso   1.00
C1389  C     0.95063   0.13176   0.51963   0.00000  Uiso   1.00
C1390  C     0.31877   0.63187   0.27833   0.00000  Uiso   1.00
C1391  C     0.28419   0.61787   0.28363   0.00000  Uiso   1.00
C1392  C     0.27727   0.58784   0.24701   0.00000  Uiso   1.00
C1393  C     0.25237   0.53947   0.19782   0.00000  Uiso   1.00
C1394  C     0.88136   0.13610   0.23956   0.00000  Uiso   1.00
C1395  C     0.37263   0.67314   0.21788   0.00000  Uiso   1.00
C1396  C     0.38858   0.69082   0.16440   0.00000  Uiso   1.00
C1397  C     0.37686   0.72453   0.15276   0.00000  Uiso   1.00
C1398  C     0.89229   0.13822   0.31390   0.00000  Uiso   1.00
C1399  C     0.92477   0.12653   0.34115   0.00000  Uiso   1.00
C1400  C     0.92960   0.13083   0.41034   0.00000  Uiso   1.00
C1401  C     0.34548   0.61643   0.23791   0.00000  Uiso   1.00
C1402  C     0.83860   0.08642   0.20128   0.00000  Uiso   1.00
C1403  C     0.30403   0.57237   0.20652   0.00000  Uiso   1.00
H1404  H     0.31139   0.67656   0.34545   0.00000  Uiso   1.00
H1405  H     0.31350   0.73422   0.27804   0.00000  Uiso   1.00
H1406  H     0.34968   0.66993   0.45476   0.00000  Uiso   1.00
H1407  H     0.26353   0.62983   0.31491   0.00000  Uiso   1.00
H1408  H     0.32762   0.79135   0.18548   0.00000  Uiso   1.00
H1409  H     0.90392   0.15578   0.55811   0.00000  Uiso   1.00
H1410  H     0.22225   0.57121   0.26322   0.00000  Uiso   1.00
H1411  H     0.90216   0.12408   0.20809   0.00000  Uiso   1.00
H1412  H     0.40925   0.67886   0.13313   0.00000  Uiso   1.00
H1413  H     0.94544   0.11458   0.30986   0.00000  Uiso   1.00
H1414  H     0.85928   0.07447   0.17001   0.00000  Uiso   1.00
H1415  H     0.40534   0.74642   0.06787   0.00000  Uiso   1.00
H1416  H     0.98163   0.11085   0.44051   0.00000  Uiso   1.00
H1417  H     0.79996   0.02629   0.14561   0.00000  Uiso   1.00
O1418  O     0.36951   0.80587   0.07986   0.00000  Uiso   1.00
O1419  O     0.96961   0.12801   0.56874   0.00000  Uiso   1.00
O1420  O     0.73126   0.01706   0.18185   0.00000  Uiso   1.00
N1421  N     0.34494   0.77325   0.16808   0.00000  Uiso   1.00
N1422  N     0.91627   0.14651   0.51647   0.00000  Uiso   1.00
N1423  N     0.24642   0.56744   0.24078   0.00000  Uiso   1.00
N1424  N     0.38675   0.74908   0.10480   0.00000  Uiso   1.00
N1425  N     0.95809   0.12233   0.45318   0.00000  Uiso   1.00
N1426  N     0.78824   0.04327   0.17750   0.00000  Uiso   1.00
C1427  C     0.15917   0.66605   0.31076   0.00000  Uiso   1.00
C1428  C     0.18572   0.65954   0.25295   0.00000  Uiso   1.00
C1429  C     0.21639   0.67913   0.23880   0.00000  Uiso   1.00
C1430  C     0.23719   0.66894   0.18368   0.00000  Uiso   1.00
C1431  C     0.27989   0.66319   0.09995   0.00000  Uiso   1.00
C1432  C     0.15781   0.63246   0.35147   0.00000  Uiso   1.00
C1433  C     0.16500   0.62930   0.42015   0.00000  Uiso   1.00
C1434  C     0.16230   0.59632   0.44797   0.00000  Uiso   1.00
C1435  C     0.66163   0.04854   0.51721   0.00000  Uiso   1.00
C1436  C     0.12191   0.66987   0.27802   0.00000  Uiso   1.00
C1437  C     0.09891   0.69816   0.28496   0.00000  Uiso   1.00
C1438  C     0.06598   0.69667   0.25096   0.00000  Uiso   1.00
C1439  C     0.50958   0.20698   0.20615   0.00000  Uiso   1.00
C1440  C     0.14158   0.61311   0.23804   0.00000  Uiso   1.00
C1441  C     0.17617   0.63078   0.21345   0.00000  Uiso   1.00
C1442  C     0.19693   0.62056   0.15834   0.00000  Uiso   1.00
C1443  C     0.22762   0.64014   0.14411   0.00000  Uiso   1.00
C1444  C     0.14826   0.60371   0.31197   0.00000  Uiso   1.00
C1445  C     0.64554   0.07073   0.33970   0.00000  Uiso   1.00
C1446  C     0.65273   0.06751   0.40840   0.00000  Uiso   1.00
C1447  C     0.11236   0.64112   0.23852   0.00000  Uiso   1.00
C1448  C     0.57945   0.13959   0.20450   0.00000  Uiso   1.00
C1449  C     0.55641   0.16787   0.21139   0.00000  Uiso   1.00
H1450  H     0.16660   0.68844   0.34151   0.00000  Uiso   1.00
H1451  H     0.22378   0.70138   0.26938   0.00000  Uiso   1.00
H1452  H     0.17239   0.65156   0.45071   0.00000  Uiso   1.00
H1453  H     0.10631   0.72041   0.31553   0.00000  Uiso   1.00
H1454  H     0.28295   0.70304   0.17200   0.00000  Uiso   1.00
H1455  H     0.17459   0.59799   0.55435   0.00000  Uiso   1.00
H1456  H     0.03526   0.74317   0.26931   0.00000  Uiso   1.00
H1457  H     0.63414   0.09072   0.20729   0.00000  Uiso   1.00
H1458  H     0.18953   0.59831   0.12778   0.00000  Uiso   1.00
H1459  H     0.63814   0.04848   0.30912   0.00000  Uiso   1.00
H1460  H     0.57207   0.11733   0.17394   0.00000  Uiso   1.00
H1461  H     0.25516   0.61938   0.05708   0.00000  Uiso   1.00
H1462  H     0.64680   0.01433   0.43943   0.00000  Uiso   1.00
H1463  H     0.50746   0.15951   0.15439   0.00000  Uiso   1.00
O1464  O     0.30609   0.66796   0.06468   0.00000  Uiso   1.00
O1465  O     0.66391   0.03013   0.56631   0.00000  Uiso   1.00
O1466  O     0.48111   0.22061   0.19234   0.00000  Uiso   1.00
N1467  N     0.26881   0.68232   0.15586   0.00000  Uiso   1.00
N1468  N     0.16750   0.58409   0.51333   0.00000  Uiso   1.00
N1469  N     0.03723   0.71983   0.24686   0.00000  Uiso   1.00
N1470  N     0.25385   0.63730   0.09402   0.00000  Uiso   1.00
N1471  N     0.65255   0.03908   0.45149   0.00000  Uiso   1.00
N1472  N     0.52227   0.17481   0.18502   0.00000  Uiso   1.00
