data_job_05015
_audit_creation_date              2018-12-19
_audit_creation_method            'Materials Studio'
_symmetry_space_group_name_H-M    'P1'
_symmetry_Int_Tables_number       1
_symmetry_cell_setting            triclinic
loop_
_symmetry_equiv_pos_as_xyz
  x,y,z
_cell_length_a                    33.7791
_cell_length_b                    12.0075
_cell_length_c                    25.0652
_cell_angle_alpha                 90.0000
_cell_angle_beta                  90.0000
_cell_angle_gamma                 90.0000
loop_
_atom_site_label
_atom_site_type_symbol
_atom_site_fract_x
_atom_site_fract_y
_atom_site_fract_z
_atom_site_U_iso_or_equiv
_atom_site_adp_type
_atom_site_occupancy
C1     C     0.40803   0.37982   0.08076   0.00000  Uiso   1.00
C2     C     0.36439   0.41089   0.07601   0.00000  Uiso   1.00
C3     C     0.34918   0.51824   0.07683   0.00000  Uiso   1.00
C4     C     0.30842   0.52917   0.07194   0.00000  Uiso   1.00
C5     C     0.24442   0.59158   0.06544   0.00000  Uiso   1.00
C6     C     0.41093   0.30015   0.12797   0.00000  Uiso   1.00
C7     C     0.43484   0.31438   0.17248   0.00000  Uiso   1.00
C8     C     0.43326   0.23208   0.21133   0.00000  Uiso   1.00
C9     C     0.44152   0.12252   0.28548   0.00000  Uiso   1.00
C10    C     0.41769   0.31091   0.03134   0.00000  Uiso   1.00
C11    C     0.44730   0.33417   0.99461   0.00000  Uiso   1.00
C12    C     0.45142   0.26091   0.95211   0.00000  Uiso   1.00
C13    C     0.47018   0.16806   0.87623   0.00000  Uiso   1.00
C14    C     0.36270   0.20835   0.07062   0.00000  Uiso   1.00
C15    C     0.33978   0.31775   0.07050   0.00000  Uiso   1.00
C16    C     0.29903   0.32853   0.06561   0.00000  Uiso   1.00
C17    C     0.28376   0.43587   0.06642   0.00000  Uiso   1.00
C18    C     0.38631   0.20702   0.12247   0.00000  Uiso   1.00
C19    C     0.38470   0.12467   0.16126   0.00000  Uiso   1.00
C20    C     0.40860   0.13877   0.20581   0.00000  Uiso   1.00
C21    C     0.39307   0.21778   0.02583   0.00000  Uiso   1.00
C22    C     0.39715   0.14446   0.98339   0.00000  Uiso   1.00
C23    C     0.42676   0.16761   0.94659   0.00000  Uiso   1.00
H24    H     0.42719   0.45233   0.08505   0.00000  Uiso   1.00
H25    H     0.36824   0.59029   0.08110   0.00000  Uiso   1.00
H26    H     0.45389   0.38646   0.17673   0.00000  Uiso   1.00
H27    H     0.46634   0.40625   0.99888   0.00000  Uiso   1.00
H28    H     0.29202   0.70217   0.07431   0.00000  Uiso   1.00
H29    H     0.47264   0.27236   0.27594   0.00000  Uiso   1.00
H30    H     0.49890   0.31409   0.90092   0.00000  Uiso   1.00
H31    H     0.34354   0.13584   0.06633   0.00000  Uiso   1.00
H32    H     0.27999   0.25644   0.06135   0.00000  Uiso   1.00
H33    H     0.36564   0.05261   0.15698   0.00000  Uiso   1.00
H34    H     0.37810   0.07240   0.97914   0.00000  Uiso   1.00
H35    H     0.22039   0.43121   0.05828   0.00000  Uiso   1.00
H36    H     0.40101   0.00139   0.25991   0.00000  Uiso   1.00
H37    H     0.42727   0.04313   0.88490   0.00000  Uiso   1.00
O38    O     0.21592   0.65173   0.06338   0.00000  Uiso   1.00
O39    O     0.45288   0.08783   0.32790   0.00000  Uiso   1.00
O40    O     0.48733   0.14258   0.83589   0.00000  Uiso   1.00
N41    N     0.28389   0.62185   0.07121   0.00000  Uiso   1.00
N42    N     0.45275   0.22001   0.25973   0.00000  Uiso   1.00
N43    N     0.47730   0.25901   0.90913   0.00000  Uiso   1.00
N44    N     0.24534   0.47605   0.06258   0.00000  Uiso   1.00
N45    N     0.41420   0.07421   0.25110   0.00000  Uiso   1.00
N46    N     0.43876   0.11321   0.90050   0.00000  Uiso   1.00
C47    C     0.90803   0.87982   0.08076   0.00000  Uiso   1.00
C48    C     0.86439   0.91089   0.07601   0.00000  Uiso   1.00
C49    C     0.84918   0.01824   0.07683   0.00000  Uiso   1.00
C50    C     0.80842   0.02917   0.07194   0.00000  Uiso   1.00
C51    C     0.74442   0.09158   0.06544   0.00000  Uiso   1.00
C52    C     0.91093   0.80015   0.12797   0.00000  Uiso   1.00
C53    C     0.93484   0.81438   0.17248   0.00000  Uiso   1.00
C54    C     0.93326   0.73208   0.21133   0.00000  Uiso   1.00
C55    C     0.94152   0.62252   0.28548   0.00000  Uiso   1.00
C56    C     0.91769   0.81091   0.03134   0.00000  Uiso   1.00
C57    C     0.94730   0.83417   0.99461   0.00000  Uiso   1.00
C58    C     0.95142   0.76091   0.95211   0.00000  Uiso   1.00
C59    C     0.97018   0.66806   0.87623   0.00000  Uiso   1.00
C60    C     0.86270   0.70835   0.07062   0.00000  Uiso   1.00
C61    C     0.83978   0.81775   0.07050   0.00000  Uiso   1.00
C62    C     0.79903   0.82853   0.06561   0.00000  Uiso   1.00
C63    C     0.78376   0.93587   0.06642   0.00000  Uiso   1.00
C64    C     0.88631   0.70702   0.12247   0.00000  Uiso   1.00
C65    C     0.88470   0.62467   0.16126   0.00000  Uiso   1.00
C66    C     0.90860   0.63877   0.20581   0.00000  Uiso   1.00
C67    C     0.89307   0.71778   0.02583   0.00000  Uiso   1.00
C68    C     0.89715   0.64446   0.98339   0.00000  Uiso   1.00
C69    C     0.92676   0.66761   0.94659   0.00000  Uiso   1.00
H70    H     0.92719   0.95233   0.08505   0.00000  Uiso   1.00
H71    H     0.86824   0.09029   0.08110   0.00000  Uiso   1.00
H72    H     0.95389   0.88646   0.17673   0.00000  Uiso   1.00
H73    H     0.96634   0.90625   0.99888   0.00000  Uiso   1.00
H74    H     0.79202   0.20217   0.07431   0.00000  Uiso   1.00
H75    H     0.97264   0.77236   0.27594   0.00000  Uiso   1.00
H76    H     0.99890   0.81409   0.90092   0.00000  Uiso   1.00
H77    H     0.84354   0.63584   0.06633   0.00000  Uiso   1.00
H78    H     0.77999   0.75644   0.06135   0.00000  Uiso   1.00
H79    H     0.86564   0.55261   0.15698   0.00000  Uiso   1.00
H80    H     0.87810   0.57240   0.97914   0.00000  Uiso   1.00
H81    H     0.72039   0.93121   0.05828   0.00000  Uiso   1.00
H82    H     0.90101   0.50139   0.25991   0.00000  Uiso   1.00
H83    H     0.92727   0.54313   0.88490   0.00000  Uiso   1.00
O84    O     0.71592   0.15173   0.06338   0.00000  Uiso   1.00
O85    O     0.95288   0.58783   0.32790   0.00000  Uiso   1.00
O86    O     0.98733   0.64258   0.83589   0.00000  Uiso   1.00
N87    N     0.78389   0.12185   0.07121   0.00000  Uiso   1.00
N88    N     0.95275   0.72001   0.25973   0.00000  Uiso   1.00
N89    N     0.97730   0.75901   0.90913   0.00000  Uiso   1.00
N90    N     0.74534   0.97605   0.06258   0.00000  Uiso   1.00
N91    N     0.91420   0.57421   0.25110   0.00000  Uiso   1.00
N92    N     0.93876   0.61321   0.90050   0.00000  Uiso   1.00
C93    C     0.09197   0.12018   0.08076   0.00000  Uiso   1.00
C94    C     0.13561   0.08911   0.07601   0.00000  Uiso   1.00
C95    C     0.15082   0.98176   0.07683   0.00000  Uiso   1.00
C96    C     0.19158   0.97083   0.07194   0.00000  Uiso   1.00
C97    C     0.25558   0.90842   0.06544   0.00000  Uiso   1.00
C98    C     0.08907   0.19985   0.12797   0.00000  Uiso   1.00
C99    C     0.06516   0.18562   0.17248   0.00000  Uiso   1.00
C100   C     0.06674   0.26792   0.21133   0.00000  Uiso   1.00
C101   C     0.05848   0.37748   0.28548   0.00000  Uiso   1.00
C102   C     0.08231   0.18909   0.03134   0.00000  Uiso   1.00
C103   C     0.05270   0.16583   0.99461   0.00000  Uiso   1.00
C104   C     0.04858   0.23909   0.95211   0.00000  Uiso   1.00
C105   C     0.02982   0.33194   0.87623   0.00000  Uiso   1.00
C106   C     0.13730   0.29165   0.07062   0.00000  Uiso   1.00
C107   C     0.16022   0.18225   0.07050   0.00000  Uiso   1.00
C108   C     0.20097   0.17147   0.06561   0.00000  Uiso   1.00
C109   C     0.21624   0.06413   0.06642   0.00000  Uiso   1.00
C110   C     0.11369   0.29298   0.12247   0.00000  Uiso   1.00
C111   C     0.11530   0.37533   0.16126   0.00000  Uiso   1.00
C112   C     0.09140   0.36123   0.20581   0.00000  Uiso   1.00
C113   C     0.10693   0.28222   0.02583   0.00000  Uiso   1.00
C114   C     0.10285   0.35554   0.98339   0.00000  Uiso   1.00
C115   C     0.07324   0.33239   0.94659   0.00000  Uiso   1.00
H116   H     0.07281   0.04767   0.08505   0.00000  Uiso   1.00
H117   H     0.13176   0.90971   0.08110   0.00000  Uiso   1.00
H118   H     0.04611   0.11354   0.17673   0.00000  Uiso   1.00
H119   H     0.03366   0.09375   0.99888   0.00000  Uiso   1.00
H120   H     0.20798   0.79783   0.07431   0.00000  Uiso   1.00
H121   H     0.02736   0.22764   0.27594   0.00000  Uiso   1.00
H122   H     0.00110   0.18591   0.90092   0.00000  Uiso   1.00
H123   H     0.15646   0.36416   0.06633   0.00000  Uiso   1.00
H124   H     0.22001   0.24356   0.06135   0.00000  Uiso   1.00
H125   H     0.13436   0.44739   0.15698   0.00000  Uiso   1.00
H126   H     0.12190   0.42760   0.97914   0.00000  Uiso   1.00
H127   H     0.27961   0.06879   0.05828   0.00000  Uiso   1.00
H128   H     0.09899   0.49861   0.25991   0.00000  Uiso   1.00
H129   H     0.07273   0.45687   0.88490   0.00000  Uiso   1.00
O130   O     0.28408   0.84827   0.06338   0.00000  Uiso   1.00
O131   O     0.04712   0.41217   0.32790   0.00000  Uiso   1.00
O132   O     0.01267   0.35742   0.83589   0.00000  Uiso   1.00
N133   N     0.21611   0.87815   0.07121   0.00000  Uiso   1.00
N134   N     0.04725   0.27999   0.25973   0.00000  Uiso   1.00
N135   N     0.02270   0.24099   0.90913   0.00000  Uiso   1.00
N136   N     0.25466   0.02395   0.06258   0.00000  Uiso   1.00
N137   N     0.08580   0.42579   0.25110   0.00000  Uiso   1.00
N138   N     0.06124   0.38679   0.90050   0.00000  Uiso   1.00
C139   C     0.59197   0.62018   0.08076   0.00000  Uiso   1.00
C140   C     0.63561   0.58911   0.07601   0.00000  Uiso   1.00
C141   C     0.65082   0.48176   0.07683   0.00000  Uiso   1.00
C142   C     0.69158   0.47083   0.07194   0.00000  Uiso   1.00
C143   C     0.75558   0.40842   0.06544   0.00000  Uiso   1.00
C144   C     0.58907   0.69985   0.12797   0.00000  Uiso   1.00
C145   C     0.56516   0.68562   0.17248   0.00000  Uiso   1.00
C146   C     0.56674   0.76792   0.21133   0.00000  Uiso   1.00
C147   C     0.55848   0.87748   0.28548   0.00000  Uiso   1.00
C148   C     0.58231   0.68909   0.03134   0.00000  Uiso   1.00
C149   C     0.55270   0.66583   0.99461   0.00000  Uiso   1.00
C150   C     0.54858   0.73909   0.95211   0.00000  Uiso   1.00
C151   C     0.52982   0.83194   0.87623   0.00000  Uiso   1.00
C152   C     0.63730   0.79165   0.07062   0.00000  Uiso   1.00
C153   C     0.66022   0.68225   0.07050   0.00000  Uiso   1.00
C154   C     0.70097   0.67147   0.06561   0.00000  Uiso   1.00
C155   C     0.71624   0.56413   0.06642   0.00000  Uiso   1.00
C156   C     0.61369   0.79298   0.12247   0.00000  Uiso   1.00
C157   C     0.61530   0.87533   0.16126   0.00000  Uiso   1.00
C158   C     0.59140   0.86123   0.20581   0.00000  Uiso   1.00
C159   C     0.60693   0.78222   0.02583   0.00000  Uiso   1.00
C160   C     0.60285   0.85554   0.98339   0.00000  Uiso   1.00
C161   C     0.57324   0.83239   0.94659   0.00000  Uiso   1.00
H162   H     0.57281   0.54767   0.08505   0.00000  Uiso   1.00
H163   H     0.63176   0.40971   0.08110   0.00000  Uiso   1.00
H164   H     0.54611   0.61354   0.17673   0.00000  Uiso   1.00
H165   H     0.53366   0.59375   0.99888   0.00000  Uiso   1.00
H166   H     0.70798   0.29783   0.07431   0.00000  Uiso   1.00
H167   H     0.52736   0.72764   0.27594   0.00000  Uiso   1.00
H168   H     0.50110   0.68591   0.90092   0.00000  Uiso   1.00
H169   H     0.65646   0.86416   0.06633   0.00000  Uiso   1.00
H170   H     0.72001   0.74356   0.06135   0.00000  Uiso   1.00
H171   H     0.63436   0.94739   0.15698   0.00000  Uiso   1.00
H172   H     0.62190   0.92760   0.97914   0.00000  Uiso   1.00
H173   H     0.77961   0.56879   0.05828   0.00000  Uiso   1.00
H174   H     0.59899   0.99861   0.25991   0.00000  Uiso   1.00
H175   H     0.57273   0.95687   0.88490   0.00000  Uiso   1.00
O176   O     0.78408   0.34827   0.06338   0.00000  Uiso   1.00
O177   O     0.54712   0.91217   0.32790   0.00000  Uiso   1.00
O178   O     0.51267   0.85742   0.83589   0.00000  Uiso   1.00
N179   N     0.71611   0.37815   0.07121   0.00000  Uiso   1.00
N180   N     0.54725   0.77999   0.25973   0.00000  Uiso   1.00
N181   N     0.52270   0.74099   0.90913   0.00000  Uiso   1.00
N182   N     0.75466   0.52395   0.06258   0.00000  Uiso   1.00
N183   N     0.58580   0.92579   0.25110   0.00000  Uiso   1.00
N184   N     0.56124   0.88679   0.90050   0.00000  Uiso   1.00
C185   C     0.59197   0.37982   0.91924   0.00000  Uiso   1.00
C186   C     0.63561   0.41089   0.92399   0.00000  Uiso   1.00
C187   C     0.65082   0.51824   0.92317   0.00000  Uiso   1.00
C188   C     0.69158   0.52917   0.92806   0.00000  Uiso   1.00
C189   C     0.75558   0.59158   0.93456   0.00000  Uiso   1.00
C190   C     0.58907   0.30015   0.87203   0.00000  Uiso   1.00
C191   C     0.56516   0.31438   0.82752   0.00000  Uiso   1.00
C192   C     0.56674   0.23208   0.78867   0.00000  Uiso   1.00
C193   C     0.55848   0.12252   0.71452   0.00000  Uiso   1.00
C194   C     0.58231   0.31091   0.96866   0.00000  Uiso   1.00
C195   C     0.55270   0.33417   0.00539   0.00000  Uiso   1.00
C196   C     0.54858   0.26091   0.04789   0.00000  Uiso   1.00
C197   C     0.52982   0.16806   0.12377   0.00000  Uiso   1.00
C198   C     0.63730   0.20835   0.92938   0.00000  Uiso   1.00
C199   C     0.66022   0.31775   0.92950   0.00000  Uiso   1.00
C200   C     0.70097   0.32853   0.93439   0.00000  Uiso   1.00
C201   C     0.71624   0.43587   0.93358   0.00000  Uiso   1.00
C202   C     0.61369   0.20702   0.87753   0.00000  Uiso   1.00
C203   C     0.61530   0.12467   0.83874   0.00000  Uiso   1.00
C204   C     0.59140   0.13877   0.79419   0.00000  Uiso   1.00
C205   C     0.60693   0.21778   0.97417   0.00000  Uiso   1.00
C206   C     0.60285   0.14446   0.01661   0.00000  Uiso   1.00
C207   C     0.57324   0.16761   0.05341   0.00000  Uiso   1.00
H208   H     0.57281   0.45233   0.91495   0.00000  Uiso   1.00
H209   H     0.63176   0.59029   0.91890   0.00000  Uiso   1.00
H210   H     0.54611   0.38646   0.82327   0.00000  Uiso   1.00
H211   H     0.53366   0.40625   0.00112   0.00000  Uiso   1.00
H212   H     0.70798   0.70217   0.92569   0.00000  Uiso   1.00
H213   H     0.52736   0.27236   0.72406   0.00000  Uiso   1.00
H214   H     0.50110   0.31409   0.09908   0.00000  Uiso   1.00
H215   H     0.65646   0.13584   0.93367   0.00000  Uiso   1.00
H216   H     0.72001   0.25644   0.93865   0.00000  Uiso   1.00
H217   H     0.63436   0.05261   0.84302   0.00000  Uiso   1.00
H218   H     0.62190   0.07240   0.02086   0.00000  Uiso   1.00
H219   H     0.77961   0.43121   0.94172   0.00000  Uiso   1.00
H220   H     0.59899   0.00139   0.74009   0.00000  Uiso   1.00
H221   H     0.57273   0.04313   0.11510   0.00000  Uiso   1.00
O222   O     0.78408   0.65173   0.93662   0.00000  Uiso   1.00
O223   O     0.54712   0.08783   0.67210   0.00000  Uiso   1.00
O224   O     0.51267   0.14258   0.16411   0.00000  Uiso   1.00
N225   N     0.71611   0.62185   0.92879   0.00000  Uiso   1.00
N226   N     0.54725   0.22001   0.74027   0.00000  Uiso   1.00
N227   N     0.52270   0.25901   0.09087   0.00000  Uiso   1.00
N228   N     0.75466   0.47605   0.93742   0.00000  Uiso   1.00
N229   N     0.58580   0.07421   0.74890   0.00000  Uiso   1.00
N230   N     0.56124   0.11321   0.09950   0.00000  Uiso   1.00
C231   C     0.09197   0.87982   0.91924   0.00000  Uiso   1.00
C232   C     0.13561   0.91089   0.92399   0.00000  Uiso   1.00
C233   C     0.15082   0.01824   0.92317   0.00000  Uiso   1.00
C234   C     0.19158   0.02917   0.92806   0.00000  Uiso   1.00
C235   C     0.25558   0.09158   0.93456   0.00000  Uiso   1.00
C236   C     0.08907   0.80015   0.87203   0.00000  Uiso   1.00
C237   C     0.06516   0.81438   0.82752   0.00000  Uiso   1.00
C238   C     0.06674   0.73208   0.78867   0.00000  Uiso   1.00
C239   C     0.05848   0.62252   0.71452   0.00000  Uiso   1.00
C240   C     0.08231   0.81091   0.96866   0.00000  Uiso   1.00
C241   C     0.05270   0.83417   0.00539   0.00000  Uiso   1.00
C242   C     0.04858   0.76091   0.04789   0.00000  Uiso   1.00
C243   C     0.02982   0.66806   0.12377   0.00000  Uiso   1.00
C244   C     0.13730   0.70835   0.92938   0.00000  Uiso   1.00
C245   C     0.16022   0.81775   0.92950   0.00000  Uiso   1.00
C246   C     0.20097   0.82853   0.93439   0.00000  Uiso   1.00
C247   C     0.21624   0.93587   0.93358   0.00000  Uiso   1.00
C248   C     0.11369   0.70702   0.87753   0.00000  Uiso   1.00
C249   C     0.11530   0.62467   0.83874   0.00000  Uiso   1.00
C250   C     0.09140   0.63877   0.79419   0.00000  Uiso   1.00
C251   C     0.10693   0.71778   0.97417   0.00000  Uiso   1.00
C252   C     0.10285   0.64446   0.01661   0.00000  Uiso   1.00
C253   C     0.07324   0.66761   0.05341   0.00000  Uiso   1.00
H254   H     0.07281   0.95233   0.91495   0.00000  Uiso   1.00
H255   H     0.13176   0.09029   0.91890   0.00000  Uiso   1.00
H256   H     0.04611   0.88646   0.82327   0.00000  Uiso   1.00
H257   H     0.03366   0.90625   0.00112   0.00000  Uiso   1.00
H258   H     0.20798   0.20217   0.92569   0.00000  Uiso   1.00
H259   H     0.02736   0.77236   0.72406   0.00000  Uiso   1.00
H260   H     0.00110   0.81409   0.09908   0.00000  Uiso   1.00
H261   H     0.15646   0.63584   0.93367   0.00000  Uiso   1.00
H262   H     0.22001   0.75644   0.93865   0.00000  Uiso   1.00
H263   H     0.13436   0.55261   0.84302   0.00000  Uiso   1.00
H264   H     0.12190   0.57240   0.02086   0.00000  Uiso   1.00
H265   H     0.27961   0.93121   0.94172   0.00000  Uiso   1.00
H266   H     0.09899   0.50139   0.74009   0.00000  Uiso   1.00
H267   H     0.07273   0.54313   0.11510   0.00000  Uiso   1.00
O268   O     0.28408   0.15173   0.93662   0.00000  Uiso   1.00
O269   O     0.04712   0.58783   0.67210   0.00000  Uiso   1.00
O270   O     0.01267   0.64258   0.16411   0.00000  Uiso   1.00
N271   N     0.21611   0.12185   0.92879   0.00000  Uiso   1.00
N272   N     0.04725   0.72001   0.74027   0.00000  Uiso   1.00
N273   N     0.02270   0.75901   0.09087   0.00000  Uiso   1.00
N274   N     0.25466   0.97605   0.93742   0.00000  Uiso   1.00
N275   N     0.08580   0.57421   0.74890   0.00000  Uiso   1.00
N276   N     0.06124   0.61321   0.09950   0.00000  Uiso   1.00
C277   C     0.90803   0.12018   0.91924   0.00000  Uiso   1.00
C278   C     0.86439   0.08911   0.92399   0.00000  Uiso   1.00
C279   C     0.84918   0.98176   0.92317   0.00000  Uiso   1.00
C280   C     0.80842   0.97083   0.92806   0.00000  Uiso   1.00
C281   C     0.74442   0.90842   0.93456   0.00000  Uiso   1.00
C282   C     0.91093   0.19985   0.87203   0.00000  Uiso   1.00
C283   C     0.93484   0.18562   0.82752   0.00000  Uiso   1.00
C284   C     0.93326   0.26792   0.78867   0.00000  Uiso   1.00
C285   C     0.94152   0.37748   0.71452   0.00000  Uiso   1.00
C286   C     0.91769   0.18909   0.96866   0.00000  Uiso   1.00
C287   C     0.94730   0.16583   0.00539   0.00000  Uiso   1.00
C288   C     0.95142   0.23909   0.04789   0.00000  Uiso   1.00
C289   C     0.97018   0.33194   0.12377   0.00000  Uiso   1.00
C290   C     0.86270   0.29165   0.92938   0.00000  Uiso   1.00
C291   C     0.83978   0.18225   0.92950   0.00000  Uiso   1.00
C292   C     0.79903   0.17147   0.93439   0.00000  Uiso   1.00
C293   C     0.78376   0.06413   0.93358   0.00000  Uiso   1.00
C294   C     0.88631   0.29298   0.87753   0.00000  Uiso   1.00
C295   C     0.88470   0.37533   0.83874   0.00000  Uiso   1.00
C296   C     0.90860   0.36123   0.79419   0.00000  Uiso   1.00
C297   C     0.89307   0.28222   0.97417   0.00000  Uiso   1.00
C298   C     0.89715   0.35554   0.01661   0.00000  Uiso   1.00
C299   C     0.92676   0.33239   0.05341   0.00000  Uiso   1.00
H300   H     0.92719   0.04767   0.91495   0.00000  Uiso   1.00
H301   H     0.86824   0.90971   0.91890   0.00000  Uiso   1.00
H302   H     0.95389   0.11354   0.82327   0.00000  Uiso   1.00
H303   H     0.96634   0.09375   0.00112   0.00000  Uiso   1.00
H304   H     0.79202   0.79783   0.92569   0.00000  Uiso   1.00
H305   H     0.97264   0.22764   0.72406   0.00000  Uiso   1.00
H306   H     0.99890   0.18591   0.09908   0.00000  Uiso   1.00
H307   H     0.84354   0.36416   0.93367   0.00000  Uiso   1.00
H308   H     0.77999   0.24356   0.93865   0.00000  Uiso   1.00
H309   H     0.86564   0.44739   0.84302   0.00000  Uiso   1.00
H310   H     0.87810   0.42760   0.02086   0.00000  Uiso   1.00
H311   H     0.72039   0.06879   0.94172   0.00000  Uiso   1.00
H312   H     0.90101   0.49861   0.74009   0.00000  Uiso   1.00
H313   H     0.92727   0.45687   0.11510   0.00000  Uiso   1.00
O314   O     0.71592   0.84827   0.93662   0.00000  Uiso   1.00
O315   O     0.95288   0.41217   0.67210   0.00000  Uiso   1.00
O316   O     0.98733   0.35742   0.16411   0.00000  Uiso   1.00
N317   N     0.78389   0.87815   0.92879   0.00000  Uiso   1.00
N318   N     0.95275   0.27999   0.74027   0.00000  Uiso   1.00
N319   N     0.97730   0.24099   0.09087   0.00000  Uiso   1.00
N320   N     0.74534   0.02395   0.93742   0.00000  Uiso   1.00
N321   N     0.91420   0.42579   0.74890   0.00000  Uiso   1.00
N322   N     0.93876   0.38679   0.09950   0.00000  Uiso   1.00
C323   C     0.40803   0.62018   0.91924   0.00000  Uiso   1.00
C324   C     0.36439   0.58911   0.92399   0.00000  Uiso   1.00
C325   C     0.34918   0.48176   0.92317   0.00000  Uiso   1.00
C326   C     0.30842   0.47083   0.92806   0.00000  Uiso   1.00
C327   C     0.24442   0.40842   0.93456   0.00000  Uiso   1.00
C328   C     0.41093   0.69985   0.87203   0.00000  Uiso   1.00
C329   C     0.43484   0.68562   0.82752   0.00000  Uiso   1.00
C330   C     0.43326   0.76792   0.78867   0.00000  Uiso   1.00
C331   C     0.44152   0.87748   0.71452   0.00000  Uiso   1.00
C332   C     0.41769   0.68909   0.96866   0.00000  Uiso   1.00
C333   C     0.44730   0.66583   0.00539   0.00000  Uiso   1.00
C334   C     0.45142   0.73909   0.04789   0.00000  Uiso   1.00
C335   C     0.47018   0.83194   0.12377   0.00000  Uiso   1.00
C336   C     0.36270   0.79165   0.92938   0.00000  Uiso   1.00
C337   C     0.33978   0.68225   0.92950   0.00000  Uiso   1.00
C338   C     0.29903   0.67147   0.93439   0.00000  Uiso   1.00
C339   C     0.28376   0.56413   0.93358   0.00000  Uiso   1.00
C340   C     0.38631   0.79298   0.87753   0.00000  Uiso   1.00
C341   C     0.38470   0.87533   0.83874   0.00000  Uiso   1.00
C342   C     0.40860   0.86123   0.79419   0.00000  Uiso   1.00
C343   C     0.39307   0.78222   0.97417   0.00000  Uiso   1.00
C344   C     0.39715   0.85554   0.01661   0.00000  Uiso   1.00
C345   C     0.42676   0.83239   0.05341   0.00000  Uiso   1.00
H346   H     0.42719   0.54767   0.91495   0.00000  Uiso   1.00
H347   H     0.36824   0.40971   0.91890   0.00000  Uiso   1.00
H348   H     0.45389   0.61354   0.82327   0.00000  Uiso   1.00
H349   H     0.46634   0.59375   0.00112   0.00000  Uiso   1.00
H350   H     0.29202   0.29783   0.92569   0.00000  Uiso   1.00
H351   H     0.47264   0.72764   0.72406   0.00000  Uiso   1.00
H352   H     0.49890   0.68591   0.09908   0.00000  Uiso   1.00
H353   H     0.34354   0.86416   0.93367   0.00000  Uiso   1.00
H354   H     0.27999   0.74356   0.93865   0.00000  Uiso   1.00
H355   H     0.36564   0.94739   0.84302   0.00000  Uiso   1.00
H356   H     0.37810   0.92760   0.02086   0.00000  Uiso   1.00
H357   H     0.22039   0.56879   0.94172   0.00000  Uiso   1.00
H358   H     0.40101   0.99861   0.74009   0.00000  Uiso   1.00
H359   H     0.42727   0.95687   0.11510   0.00000  Uiso   1.00
O360   O     0.21592   0.34827   0.93662   0.00000  Uiso   1.00
O361   O     0.45288   0.91217   0.67210   0.00000  Uiso   1.00
O362   O     0.48733   0.85742   0.16411   0.00000  Uiso   1.00
N363   N     0.28389   0.37815   0.92879   0.00000  Uiso   1.00
N364   N     0.45275   0.77999   0.74027   0.00000  Uiso   1.00
N365   N     0.47730   0.74099   0.09087   0.00000  Uiso   1.00
N366   N     0.24534   0.52395   0.93742   0.00000  Uiso   1.00
N367   N     0.41420   0.92579   0.74890   0.00000  Uiso   1.00
N368   N     0.43876   0.88679   0.09950   0.00000  Uiso   1.00
C369   C     0.59197   0.12018   0.41924   0.00000  Uiso   1.00
C370   C     0.63561   0.08911   0.42399   0.00000  Uiso   1.00
C371   C     0.65082   0.98176   0.42317   0.00000  Uiso   1.00
C372   C     0.69158   0.97083   0.42806   0.00000  Uiso   1.00
C373   C     0.75558   0.90842   0.43456   0.00000  Uiso   1.00
C374   C     0.58907   0.19985   0.37203   0.00000  Uiso   1.00
C375   C     0.56516   0.18562   0.32752   0.00000  Uiso   1.00
C376   C     0.56674   0.26792   0.28867   0.00000  Uiso   1.00
C377   C     0.55848   0.37748   0.21452   0.00000  Uiso   1.00
C378   C     0.58231   0.18909   0.46866   0.00000  Uiso   1.00
C379   C     0.55270   0.16583   0.50539   0.00000  Uiso   1.00
C380   C     0.54858   0.23909   0.54789   0.00000  Uiso   1.00
C381   C     0.52982   0.33194   0.62377   0.00000  Uiso   1.00
C382   C     0.63730   0.29165   0.42938   0.00000  Uiso   1.00
C383   C     0.66022   0.18225   0.42950   0.00000  Uiso   1.00
C384   C     0.70097   0.17147   0.43439   0.00000  Uiso   1.00
C385   C     0.71624   0.06413   0.43358   0.00000  Uiso   1.00
C386   C     0.61369   0.29298   0.37753   0.00000  Uiso   1.00
C387   C     0.61530   0.37533   0.33874   0.00000  Uiso   1.00
C388   C     0.59140   0.36123   0.29419   0.00000  Uiso   1.00
C389   C     0.60693   0.28222   0.47417   0.00000  Uiso   1.00
C390   C     0.60285   0.35554   0.51661   0.00000  Uiso   1.00
C391   C     0.57324   0.33239   0.55341   0.00000  Uiso   1.00
H392   H     0.57281   0.04767   0.41495   0.00000  Uiso   1.00
H393   H     0.63176   0.90971   0.41890   0.00000  Uiso   1.00
H394   H     0.54611   0.11354   0.32327   0.00000  Uiso   1.00
H395   H     0.53366   0.09375   0.50112   0.00000  Uiso   1.00
H396   H     0.70798   0.79783   0.42569   0.00000  Uiso   1.00
H397   H     0.52736   0.22764   0.22406   0.00000  Uiso   1.00
H398   H     0.50110   0.18591   0.59908   0.00000  Uiso   1.00
H399   H     0.65646   0.36416   0.43367   0.00000  Uiso   1.00
H400   H     0.72001   0.24356   0.43865   0.00000  Uiso   1.00
H401   H     0.63436   0.44739   0.34302   0.00000  Uiso   1.00
H402   H     0.62190   0.42760   0.52086   0.00000  Uiso   1.00
H403   H     0.77961   0.06879   0.44172   0.00000  Uiso   1.00
H404   H     0.59899   0.49861   0.24009   0.00000  Uiso   1.00
H405   H     0.57273   0.45687   0.61510   0.00000  Uiso   1.00
O406   O     0.78408   0.84827   0.43662   0.00000  Uiso   1.00
O407   O     0.54712   0.41217   0.17210   0.00000  Uiso   1.00
O408   O     0.51267   0.35742   0.66411   0.00000  Uiso   1.00
N409   N     0.71611   0.87815   0.42879   0.00000  Uiso   1.00
N410   N     0.54725   0.27999   0.24027   0.00000  Uiso   1.00
N411   N     0.52270   0.24099   0.59087   0.00000  Uiso   1.00
N412   N     0.75466   0.02395   0.43742   0.00000  Uiso   1.00
N413   N     0.58580   0.42579   0.24890   0.00000  Uiso   1.00
N414   N     0.56124   0.38679   0.59950   0.00000  Uiso   1.00
C415   C     0.09197   0.62018   0.41924   0.00000  Uiso   1.00
C416   C     0.13561   0.58911   0.42399   0.00000  Uiso   1.00
C417   C     0.15082   0.48176   0.42317   0.00000  Uiso   1.00
C418   C     0.19158   0.47083   0.42806   0.00000  Uiso   1.00
C419   C     0.25558   0.40842   0.43456   0.00000  Uiso   1.00
C420   C     0.08907   0.69985   0.37203   0.00000  Uiso   1.00
C421   C     0.06516   0.68562   0.32752   0.00000  Uiso   1.00
C422   C     0.06674   0.76792   0.28867   0.00000  Uiso   1.00
C423   C     0.05848   0.87748   0.21452   0.00000  Uiso   1.00
C424   C     0.08231   0.68909   0.46866   0.00000  Uiso   1.00
C425   C     0.05270   0.66583   0.50539   0.00000  Uiso   1.00
C426   C     0.04858   0.73909   0.54789   0.00000  Uiso   1.00
C427   C     0.02982   0.83194   0.62377   0.00000  Uiso   1.00
C428   C     0.13730   0.79165   0.42938   0.00000  Uiso   1.00
C429   C     0.16022   0.68225   0.42950   0.00000  Uiso   1.00
C430   C     0.20097   0.67147   0.43439   0.00000  Uiso   1.00
C431   C     0.21624   0.56413   0.43358   0.00000  Uiso   1.00
C432   C     0.11369   0.79298   0.37753   0.00000  Uiso   1.00
C433   C     0.11530   0.87533   0.33874   0.00000  Uiso   1.00
C434   C     0.09140   0.86123   0.29419   0.00000  Uiso   1.00
C435   C     0.10693   0.78222   0.47417   0.00000  Uiso   1.00
C436   C     0.10285   0.85554   0.51661   0.00000  Uiso   1.00
C437   C     0.07324   0.83239   0.55341   0.00000  Uiso   1.00
H438   H     0.07281   0.54767   0.41495   0.00000  Uiso   1.00
H439   H     0.13176   0.40971   0.41890   0.00000  Uiso   1.00
H440   H     0.04611   0.61354   0.32327   0.00000  Uiso   1.00
H441   H     0.03366   0.59375   0.50112   0.00000  Uiso   1.00
H442   H     0.20798   0.29783   0.42569   0.00000  Uiso   1.00
H443   H     0.02736   0.72764   0.22406   0.00000  Uiso   1.00
H444   H     0.00110   0.68591   0.59908   0.00000  Uiso   1.00
H445   H     0.15646   0.86416   0.43367   0.00000  Uiso   1.00
H446   H     0.22001   0.74356   0.43865   0.00000  Uiso   1.00
H447   H     0.13436   0.94739   0.34302   0.00000  Uiso   1.00
H448   H     0.12190   0.92760   0.52086   0.00000  Uiso   1.00
H449   H     0.27961   0.56879   0.44172   0.00000  Uiso   1.00
H450   H     0.09899   0.99861   0.24009   0.00000  Uiso   1.00
H451   H     0.07273   0.95687   0.61510   0.00000  Uiso   1.00
O452   O     0.28408   0.34827   0.43662   0.00000  Uiso   1.00
O453   O     0.04712   0.91217   0.17210   0.00000  Uiso   1.00
O454   O     0.01267   0.85742   0.66411   0.00000  Uiso   1.00
N455   N     0.21611   0.37815   0.42879   0.00000  Uiso   1.00
N456   N     0.04725   0.77999   0.24027   0.00000  Uiso   1.00
N457   N     0.02270   0.74099   0.59087   0.00000  Uiso   1.00
N458   N     0.25466   0.52395   0.43742   0.00000  Uiso   1.00
N459   N     0.08580   0.92579   0.24890   0.00000  Uiso   1.00
N460   N     0.06124   0.88679   0.59950   0.00000  Uiso   1.00
C461   C     0.90803   0.37982   0.41924   0.00000  Uiso   1.00
C462   C     0.86439   0.41089   0.42399   0.00000  Uiso   1.00
C463   C     0.84918   0.51824   0.42317   0.00000  Uiso   1.00
C464   C     0.80842   0.52917   0.42806   0.00000  Uiso   1.00
C465   C     0.74442   0.59158   0.43456   0.00000  Uiso   1.00
C466   C     0.91093   0.30015   0.37203   0.00000  Uiso   1.00
C467   C     0.93484   0.31438   0.32752   0.00000  Uiso   1.00
C468   C     0.93326   0.23208   0.28867   0.00000  Uiso   1.00
C469   C     0.94152   0.12252   0.21452   0.00000  Uiso   1.00
C470   C     0.91769   0.31091   0.46866   0.00000  Uiso   1.00
C471   C     0.94730   0.33417   0.50539   0.00000  Uiso   1.00
C472   C     0.95142   0.26091   0.54789   0.00000  Uiso   1.00
C473   C     0.97018   0.16806   0.62377   0.00000  Uiso   1.00
C474   C     0.86270   0.20835   0.42938   0.00000  Uiso   1.00
C475   C     0.83978   0.31775   0.42950   0.00000  Uiso   1.00
C476   C     0.79903   0.32853   0.43439   0.00000  Uiso   1.00
C477   C     0.78376   0.43587   0.43358   0.00000  Uiso   1.00
C478   C     0.88631   0.20702   0.37753   0.00000  Uiso   1.00
C479   C     0.88470   0.12467   0.33874   0.00000  Uiso   1.00
C480   C     0.90860   0.13877   0.29419   0.00000  Uiso   1.00
C481   C     0.89307   0.21778   0.47417   0.00000  Uiso   1.00
C482   C     0.89715   0.14446   0.51661   0.00000  Uiso   1.00
C483   C     0.92676   0.16761   0.55341   0.00000  Uiso   1.00
H484   H     0.92719   0.45233   0.41495   0.00000  Uiso   1.00
H485   H     0.86824   0.59029   0.41890   0.00000  Uiso   1.00
H486   H     0.95389   0.38646   0.32327   0.00000  Uiso   1.00
H487   H     0.96634   0.40625   0.50112   0.00000  Uiso   1.00
H488   H     0.79202   0.70217   0.42569   0.00000  Uiso   1.00
H489   H     0.97264   0.27236   0.22406   0.00000  Uiso   1.00
H490   H     0.99890   0.31409   0.59908   0.00000  Uiso   1.00
H491   H     0.84354   0.13584   0.43367   0.00000  Uiso   1.00
H492   H     0.77999   0.25644   0.43865   0.00000  Uiso   1.00
H493   H     0.86564   0.05261   0.34302   0.00000  Uiso   1.00
H494   H     0.87810   0.07240   0.52086   0.00000  Uiso   1.00
H495   H     0.72039   0.43121   0.44172   0.00000  Uiso   1.00
H496   H     0.90101   0.00139   0.24009   0.00000  Uiso   1.00
H497   H     0.92727   0.04313   0.61510   0.00000  Uiso   1.00
O498   O     0.71592   0.65173   0.43662   0.00000  Uiso   1.00
O499   O     0.95288   0.08783   0.17210   0.00000  Uiso   1.00
O500   O     0.98733   0.14258   0.66411   0.00000  Uiso   1.00
N501   N     0.78389   0.62185   0.42879   0.00000  Uiso   1.00
N502   N     0.95275   0.22001   0.24027   0.00000  Uiso   1.00
N503   N     0.97730   0.25901   0.59087   0.00000  Uiso   1.00
N504   N     0.74534   0.47605   0.43742   0.00000  Uiso   1.00
N505   N     0.91420   0.07421   0.24890   0.00000  Uiso   1.00
N506   N     0.93876   0.11321   0.59950   0.00000  Uiso   1.00
C507   C     0.40803   0.87982   0.41924   0.00000  Uiso   1.00
C508   C     0.36439   0.91089   0.42399   0.00000  Uiso   1.00
C509   C     0.34918   0.01824   0.42317   0.00000  Uiso   1.00
C510   C     0.30842   0.02917   0.42806   0.00000  Uiso   1.00
C511   C     0.24442   0.09158   0.43456   0.00000  Uiso   1.00
C512   C     0.41093   0.80015   0.37203   0.00000  Uiso   1.00
C513   C     0.43484   0.81438   0.32752   0.00000  Uiso   1.00
C514   C     0.43326   0.73208   0.28867   0.00000  Uiso   1.00
C515   C     0.44152   0.62252   0.21452   0.00000  Uiso   1.00
C516   C     0.41769   0.81091   0.46866   0.00000  Uiso   1.00
C517   C     0.44730   0.83417   0.50539   0.00000  Uiso   1.00
C518   C     0.45142   0.76091   0.54789   0.00000  Uiso   1.00
C519   C     0.47018   0.66806   0.62377   0.00000  Uiso   1.00
C520   C     0.36270   0.70835   0.42938   0.00000  Uiso   1.00
C521   C     0.33978   0.81775   0.42950   0.00000  Uiso   1.00
C522   C     0.29903   0.82853   0.43439   0.00000  Uiso   1.00
C523   C     0.28376   0.93587   0.43358   0.00000  Uiso   1.00
C524   C     0.38631   0.70702   0.37753   0.00000  Uiso   1.00
C525   C     0.38470   0.62467   0.33874   0.00000  Uiso   1.00
C526   C     0.40860   0.63877   0.29419   0.00000  Uiso   1.00
C527   C     0.39307   0.71778   0.47417   0.00000  Uiso   1.00
C528   C     0.39715   0.64446   0.51661   0.00000  Uiso   1.00
C529   C     0.42676   0.66761   0.55341   0.00000  Uiso   1.00
H530   H     0.42719   0.95233   0.41495   0.00000  Uiso   1.00
H531   H     0.36824   0.09029   0.41890   0.00000  Uiso   1.00
H532   H     0.45389   0.88646   0.32327   0.00000  Uiso   1.00
H533   H     0.46634   0.90625   0.50112   0.00000  Uiso   1.00
H534   H     0.29202   0.20217   0.42569   0.00000  Uiso   1.00
H535   H     0.47264   0.77236   0.22406   0.00000  Uiso   1.00
H536   H     0.49890   0.81409   0.59908   0.00000  Uiso   1.00
H537   H     0.34354   0.63584   0.43367   0.00000  Uiso   1.00
H538   H     0.27999   0.75644   0.43865   0.00000  Uiso   1.00
H539   H     0.36564   0.55261   0.34302   0.00000  Uiso   1.00
H540   H     0.37810   0.57240   0.52086   0.00000  Uiso   1.00
H541   H     0.22039   0.93121   0.44172   0.00000  Uiso   1.00
H542   H     0.40101   0.50139   0.24009   0.00000  Uiso   1.00
H543   H     0.42727   0.54313   0.61510   0.00000  Uiso   1.00
O544   O     0.21592   0.15173   0.43662   0.00000  Uiso   1.00
O545   O     0.45288   0.58783   0.17210   0.00000  Uiso   1.00
O546   O     0.48733   0.64258   0.66411   0.00000  Uiso   1.00
N547   N     0.28389   0.12185   0.42879   0.00000  Uiso   1.00
N548   N     0.45275   0.72001   0.24027   0.00000  Uiso   1.00
N549   N     0.47730   0.75901   0.59087   0.00000  Uiso   1.00
N550   N     0.24534   0.97605   0.43742   0.00000  Uiso   1.00
N551   N     0.41420   0.57421   0.24890   0.00000  Uiso   1.00
N552   N     0.43876   0.61321   0.59950   0.00000  Uiso   1.00
C553   C     0.40803   0.12018   0.58076   0.00000  Uiso   1.00
C554   C     0.36439   0.08911   0.57601   0.00000  Uiso   1.00
C555   C     0.34918   0.98176   0.57683   0.00000  Uiso   1.00
C556   C     0.30842   0.97083   0.57194   0.00000  Uiso   1.00
C557   C     0.24442   0.90842   0.56544   0.00000  Uiso   1.00
C558   C     0.41093   0.19985   0.62797   0.00000  Uiso   1.00
C559   C     0.43484   0.18562   0.67248   0.00000  Uiso   1.00
C560   C     0.43326   0.26792   0.71133   0.00000  Uiso   1.00
C561   C     0.44152   0.37748   0.78548   0.00000  Uiso   1.00
C562   C     0.41769   0.18909   0.53134   0.00000  Uiso   1.00
C563   C     0.44730   0.16583   0.49461   0.00000  Uiso   1.00
C564   C     0.45142   0.23909   0.45211   0.00000  Uiso   1.00
C565   C     0.47018   0.33194   0.37623   0.00000  Uiso   1.00
C566   C     0.36270   0.29165   0.57062   0.00000  Uiso   1.00
C567   C     0.33978   0.18225   0.57050   0.00000  Uiso   1.00
C568   C     0.29903   0.17147   0.56561   0.00000  Uiso   1.00
C569   C     0.28376   0.06413   0.56642   0.00000  Uiso   1.00
C570   C     0.38631   0.29298   0.62247   0.00000  Uiso   1.00
C571   C     0.38470   0.37533   0.66126   0.00000  Uiso   1.00
C572   C     0.40860   0.36123   0.70581   0.00000  Uiso   1.00
C573   C     0.39307   0.28222   0.52583   0.00000  Uiso   1.00
C574   C     0.39715   0.35554   0.48339   0.00000  Uiso   1.00
C575   C     0.42676   0.33239   0.44659   0.00000  Uiso   1.00
H576   H     0.42719   0.04767   0.58505   0.00000  Uiso   1.00
H577   H     0.36824   0.90971   0.58110   0.00000  Uiso   1.00
H578   H     0.45389   0.11354   0.67673   0.00000  Uiso   1.00
H579   H     0.46634   0.09375   0.49888   0.00000  Uiso   1.00
H580   H     0.29202   0.79783   0.57431   0.00000  Uiso   1.00
H581   H     0.47264   0.22764   0.77594   0.00000  Uiso   1.00
H582   H     0.49890   0.18591   0.40092   0.00000  Uiso   1.00
H583   H     0.34354   0.36416   0.56633   0.00000  Uiso   1.00
H584   H     0.27999   0.24356   0.56135   0.00000  Uiso   1.00
H585   H     0.36564   0.44739   0.65698   0.00000  Uiso   1.00
H586   H     0.37810   0.42760   0.47914   0.00000  Uiso   1.00
H587   H     0.22039   0.06879   0.55828   0.00000  Uiso   1.00
H588   H     0.40101   0.49861   0.75991   0.00000  Uiso   1.00
H589   H     0.42727   0.45687   0.38490   0.00000  Uiso   1.00
O590   O     0.21592   0.84827   0.56338   0.00000  Uiso   1.00
O591   O     0.45288   0.41217   0.82790   0.00000  Uiso   1.00
O592   O     0.48733   0.35742   0.33589   0.00000  Uiso   1.00
N593   N     0.28389   0.87815   0.57121   0.00000  Uiso   1.00
N594   N     0.45275   0.27999   0.75973   0.00000  Uiso   1.00
N595   N     0.47730   0.24099   0.40913   0.00000  Uiso   1.00
N596   N     0.24534   0.02395   0.56258   0.00000  Uiso   1.00
N597   N     0.41420   0.42579   0.75110   0.00000  Uiso   1.00
N598   N     0.43876   0.38679   0.40050   0.00000  Uiso   1.00
C599   C     0.90803   0.62018   0.58076   0.00000  Uiso   1.00
C600   C     0.86439   0.58911   0.57601   0.00000  Uiso   1.00
C601   C     0.84918   0.48176   0.57683   0.00000  Uiso   1.00
C602   C     0.80842   0.47083   0.57194   0.00000  Uiso   1.00
C603   C     0.74442   0.40842   0.56544   0.00000  Uiso   1.00
C604   C     0.91093   0.69985   0.62797   0.00000  Uiso   1.00
C605   C     0.93484   0.68562   0.67248   0.00000  Uiso   1.00
C606   C     0.93326   0.76792   0.71133   0.00000  Uiso   1.00
C607   C     0.94152   0.87748   0.78548   0.00000  Uiso   1.00
C608   C     0.91769   0.68909   0.53134   0.00000  Uiso   1.00
C609   C     0.94730   0.66583   0.49461   0.00000  Uiso   1.00
C610   C     0.95142   0.73909   0.45211   0.00000  Uiso   1.00
C611   C     0.97018   0.83194   0.37623   0.00000  Uiso   1.00
C612   C     0.86270   0.79165   0.57062   0.00000  Uiso   1.00
C613   C     0.83978   0.68225   0.57050   0.00000  Uiso   1.00
C614   C     0.79903   0.67147   0.56561   0.00000  Uiso   1.00
C615   C     0.78376   0.56413   0.56642   0.00000  Uiso   1.00
C616   C     0.88631   0.79298   0.62247   0.00000  Uiso   1.00
C617   C     0.88470   0.87533   0.66126   0.00000  Uiso   1.00
C618   C     0.90860   0.86123   0.70581   0.00000  Uiso   1.00
C619   C     0.89307   0.78222   0.52583   0.00000  Uiso   1.00
C620   C     0.89715   0.85554   0.48339   0.00000  Uiso   1.00
C621   C     0.92676   0.83239   0.44659   0.00000  Uiso   1.00
H622   H     0.92719   0.54767   0.58505   0.00000  Uiso   1.00
H623   H     0.86824   0.40971   0.58110   0.00000  Uiso   1.00
H624   H     0.95389   0.61354   0.67673   0.00000  Uiso   1.00
H625   H     0.96634   0.59375   0.49888   0.00000  Uiso   1.00
H626   H     0.79202   0.29783   0.57431   0.00000  Uiso   1.00
H627   H     0.97264   0.72764   0.77594   0.00000  Uiso   1.00
H628   H     0.99890   0.68591   0.40092   0.00000  Uiso   1.00
H629   H     0.84354   0.86416   0.56633   0.00000  Uiso   1.00
H630   H     0.77999   0.74356   0.56135   0.00000  Uiso   1.00
H631   H     0.86564   0.94739   0.65698   0.00000  Uiso   1.00
H632   H     0.87810   0.92760   0.47914   0.00000  Uiso   1.00
H633   H     0.72039   0.56879   0.55828   0.00000  Uiso   1.00
H634   H     0.90101   0.99861   0.75991   0.00000  Uiso   1.00
H635   H     0.92727   0.95687   0.38490   0.00000  Uiso   1.00
O636   O     0.71592   0.34827   0.56338   0.00000  Uiso   1.00
O637   O     0.95288   0.91217   0.82790   0.00000  Uiso   1.00
O638   O     0.98733   0.85742   0.33589   0.00000  Uiso   1.00
N639   N     0.78389   0.37815   0.57121   0.00000  Uiso   1.00
N640   N     0.95275   0.77999   0.75973   0.00000  Uiso   1.00
N641   N     0.97730   0.74099   0.40913   0.00000  Uiso   1.00
N642   N     0.74534   0.52395   0.56258   0.00000  Uiso   1.00
N643   N     0.91420   0.92579   0.75110   0.00000  Uiso   1.00
N644   N     0.93876   0.88679   0.40050   0.00000  Uiso   1.00
C645   C     0.09197   0.37982   0.58076   0.00000  Uiso   1.00
C646   C     0.13561   0.41089   0.57601   0.00000  Uiso   1.00
C647   C     0.15082   0.51824   0.57683   0.00000  Uiso   1.00
C648   C     0.19158   0.52917   0.57194   0.00000  Uiso   1.00
C649   C     0.25558   0.59158   0.56544   0.00000  Uiso   1.00
C650   C     0.08907   0.30015   0.62797   0.00000  Uiso   1.00
C651   C     0.06516   0.31438   0.67248   0.00000  Uiso   1.00
C652   C     0.06674   0.23208   0.71133   0.00000  Uiso   1.00
C653   C     0.05848   0.12252   0.78548   0.00000  Uiso   1.00
C654   C     0.08231   0.31091   0.53134   0.00000  Uiso   1.00
C655   C     0.05270   0.33417   0.49461   0.00000  Uiso   1.00
C656   C     0.04858   0.26091   0.45211   0.00000  Uiso   1.00
C657   C     0.02982   0.16806   0.37623   0.00000  Uiso   1.00
C658   C     0.13730   0.20835   0.57062   0.00000  Uiso   1.00
C659   C     0.16022   0.31775   0.57050   0.00000  Uiso   1.00
C660   C     0.20097   0.32853   0.56561   0.00000  Uiso   1.00
C661   C     0.21624   0.43587   0.56642   0.00000  Uiso   1.00
C662   C     0.11369   0.20702   0.62247   0.00000  Uiso   1.00
C663   C     0.11530   0.12467   0.66126   0.00000  Uiso   1.00
C664   C     0.09140   0.13877   0.70581   0.00000  Uiso   1.00
C665   C     0.10693   0.21778   0.52583   0.00000  Uiso   1.00
C666   C     0.10285   0.14446   0.48339   0.00000  Uiso   1.00
C667   C     0.07324   0.16761   0.44659   0.00000  Uiso   1.00
H668   H     0.07281   0.45233   0.58505   0.00000  Uiso   1.00
H669   H     0.13176   0.59029   0.58110   0.00000  Uiso   1.00
H670   H     0.04611   0.38646   0.67673   0.00000  Uiso   1.00
H671   H     0.03366   0.40625   0.49888   0.00000  Uiso   1.00
H672   H     0.20798   0.70217   0.57431   0.00000  Uiso   1.00
H673   H     0.02736   0.27236   0.77594   0.00000  Uiso   1.00
H674   H     0.00110   0.31409   0.40092   0.00000  Uiso   1.00
H675   H     0.15646   0.13584   0.56633   0.00000  Uiso   1.00
H676   H     0.22001   0.25644   0.56135   0.00000  Uiso   1.00
H677   H     0.13436   0.05261   0.65698   0.00000  Uiso   1.00
H678   H     0.12190   0.07240   0.47914   0.00000  Uiso   1.00
H679   H     0.27961   0.43121   0.55828   0.00000  Uiso   1.00
H680   H     0.09899   0.00139   0.75991   0.00000  Uiso   1.00
H681   H     0.07273   0.04313   0.38490   0.00000  Uiso   1.00
O682   O     0.28408   0.65173   0.56338   0.00000  Uiso   1.00
O683   O     0.04712   0.08783   0.82790   0.00000  Uiso   1.00
O684   O     0.01267   0.14258   0.33589   0.00000  Uiso   1.00
N685   N     0.21611   0.62185   0.57121   0.00000  Uiso   1.00
N686   N     0.04725   0.22001   0.75973   0.00000  Uiso   1.00
N687   N     0.02270   0.25901   0.40913   0.00000  Uiso   1.00
N688   N     0.25466   0.47605   0.56258   0.00000  Uiso   1.00
N689   N     0.08580   0.07421   0.75110   0.00000  Uiso   1.00
N690   N     0.06124   0.11321   0.40050   0.00000  Uiso   1.00
C691   C     0.59197   0.87982   0.58076   0.00000  Uiso   1.00
C692   C     0.63561   0.91089   0.57601   0.00000  Uiso   1.00
C693   C     0.65082   0.01824   0.57683   0.00000  Uiso   1.00
C694   C     0.69158   0.02917   0.57194   0.00000  Uiso   1.00
C695   C     0.75558   0.09158   0.56544   0.00000  Uiso   1.00
C696   C     0.58907   0.80015   0.62797   0.00000  Uiso   1.00
C697   C     0.56516   0.81438   0.67248   0.00000  Uiso   1.00
C698   C     0.56674   0.73208   0.71133   0.00000  Uiso   1.00
C699   C     0.55848   0.62252   0.78548   0.00000  Uiso   1.00
C700   C     0.58231   0.81091   0.53134   0.00000  Uiso   1.00
C701   C     0.55270   0.83417   0.49461   0.00000  Uiso   1.00
C702   C     0.54858   0.76091   0.45211   0.00000  Uiso   1.00
C703   C     0.52982   0.66806   0.37623   0.00000  Uiso   1.00
C704   C     0.63730   0.70835   0.57062   0.00000  Uiso   1.00
C705   C     0.66022   0.81775   0.57050   0.00000  Uiso   1.00
C706   C     0.70097   0.82853   0.56561   0.00000  Uiso   1.00
C707   C     0.71624   0.93587   0.56642   0.00000  Uiso   1.00
C708   C     0.61369   0.70702   0.62247   0.00000  Uiso   1.00
C709   C     0.61530   0.62467   0.66126   0.00000  Uiso   1.00
C710   C     0.59140   0.63877   0.70581   0.00000  Uiso   1.00
C711   C     0.60693   0.71778   0.52583   0.00000  Uiso   1.00
C712   C     0.60285   0.64446   0.48339   0.00000  Uiso   1.00
C713   C     0.57324   0.66761   0.44659   0.00000  Uiso   1.00
H714   H     0.57281   0.95233   0.58505   0.00000  Uiso   1.00
H715   H     0.63176   0.09029   0.58110   0.00000  Uiso   1.00
H716   H     0.54611   0.88646   0.67673   0.00000  Uiso   1.00
H717   H     0.53366   0.90625   0.49888   0.00000  Uiso   1.00
H718   H     0.70798   0.20217   0.57431   0.00000  Uiso   1.00
H719   H     0.52736   0.77236   0.77594   0.00000  Uiso   1.00
H720   H     0.50110   0.81409   0.40092   0.00000  Uiso   1.00
H721   H     0.65646   0.63584   0.56633   0.00000  Uiso   1.00
H722   H     0.72001   0.75644   0.56135   0.00000  Uiso   1.00
H723   H     0.63436   0.55261   0.65698   0.00000  Uiso   1.00
H724   H     0.62190   0.57240   0.47914   0.00000  Uiso   1.00
H725   H     0.77961   0.93121   0.55828   0.00000  Uiso   1.00
H726   H     0.59899   0.50139   0.75991   0.00000  Uiso   1.00
H727   H     0.57273   0.54313   0.38490   0.00000  Uiso   1.00
O728   O     0.78408   0.15173   0.56338   0.00000  Uiso   1.00
O729   O     0.54712   0.58783   0.82790   0.00000  Uiso   1.00
O730   O     0.51267   0.64258   0.33589   0.00000  Uiso   1.00
N731   N     0.71611   0.12185   0.57121   0.00000  Uiso   1.00
N732   N     0.54725   0.72001   0.75973   0.00000  Uiso   1.00
N733   N     0.52270   0.75901   0.40913   0.00000  Uiso   1.00
N734   N     0.75466   0.97605   0.56258   0.00000  Uiso   1.00
N735   N     0.58580   0.57421   0.75110   0.00000  Uiso   1.00
N736   N     0.56124   0.61321   0.40050   0.00000  Uiso   1.00
