data_job_02742
_audit_creation_date              2018-12-19
_audit_creation_method            'Materials Studio'
_symmetry_space_group_name_H-M    'P1'
_symmetry_Int_Tables_number       1
_symmetry_cell_setting            triclinic
loop_
_symmetry_equiv_pos_as_xyz
  x,y,z
_cell_length_a                    55.1639
_cell_length_b                    13.5670
_cell_length_c                    20.8902
_cell_angle_alpha                 90.0000
_cell_angle_beta                  90.0000
_cell_angle_gamma                 90.0000
loop_
_atom_site_label
_atom_site_type_symbol
_atom_site_fract_x
_atom_site_fract_y
_atom_site_fract_z
_atom_site_U_iso_or_equiv
_atom_site_adp_type
_atom_site_occupancy
C1     C     0.93819   0.62267   0.66459   0.00000  Uiso   1.00
C2     C     0.92847   0.64115   0.73187   0.00000  Uiso   1.00
C3     C     0.93944   0.61149   0.78846   0.00000  Uiso   1.00
C4     C     0.92767   0.63550   0.84509   0.00000  Uiso   1.00
C5     C     0.91591   0.65626   0.94956   0.00000  Uiso   1.00
C6     C     0.91812   0.56851   0.62877   0.00000  Uiso   1.00
C7     C     0.92039   0.47778   0.59867   0.00000  Uiso   1.00
C8     C     0.89991   0.44065   0.56851   0.00000  Uiso   1.00
C9     C     0.87209   0.34868   0.51288   0.00000  Uiso   1.00
C10    C     0.94027   0.72371   0.63310   0.00000  Uiso   1.00
C11    C     0.96117   0.76348   0.60662   0.00000  Uiso   1.00
C12    C     0.95933   0.85702   0.58009   0.00000  Uiso   1.00
C13    C     0.96590   0.00602   0.53118   0.00000  Uiso   1.00
C14    C     0.89776   0.71805   0.66454   0.00000  Uiso   1.00
C15    C     0.90651   0.69295   0.73184   0.00000  Uiso   1.00
C16    C     0.89472   0.71702   0.78840   0.00000  Uiso   1.00
C17    C     0.90567   0.68740   0.84506   0.00000  Uiso   1.00
C18    C     0.89616   0.62031   0.62874   0.00000  Uiso   1.00
C19    C     0.87567   0.58331   0.59862   0.00000  Uiso   1.00
C20    C     0.87791   0.49255   0.56848   0.00000  Uiso   1.00
C21    C     0.91831   0.77552   0.63307   0.00000  Uiso   1.00
C22    C     0.91644   0.86901   0.60657   0.00000  Uiso   1.00
C23    C     0.93733   0.90892   0.58006   0.00000  Uiso   1.00
H24    H     0.95528   0.58233   0.66461   0.00000  Uiso   1.00
H25    H     0.95643   0.57139   0.78846   0.00000  Uiso   1.00
H26    H     0.93739   0.43771   0.59870   0.00000  Uiso   1.00
H27    H     0.97816   0.72337   0.60665   0.00000  Uiso   1.00
H28    H     0.94802   0.58207   0.92575   0.00000  Uiso   1.00
H29    H     0.90787   0.30022   0.52562   0.00000  Uiso   1.00
H30    H     0.99383   0.90258   0.54238   0.00000  Uiso   1.00
H31    H     0.88066   0.75839   0.66452   0.00000  Uiso   1.00
H32    H     0.87772   0.75711   0.78836   0.00000  Uiso   1.00
H33    H     0.85868   0.62343   0.59860   0.00000  Uiso   1.00
H34    H     0.89945   0.90908   0.60656   0.00000  Uiso   1.00
H35    H     0.88414   0.73281   0.92567   0.00000  Uiso   1.00
H36    H     0.84399   0.45096   0.52553   0.00000  Uiso   1.00
H37    H     0.92995   0.05332   0.54230   0.00000  Uiso   1.00
O38    O     0.91549   0.65339   0.00718   0.00000  Uiso   1.00
O39    O     0.86281   0.28362   0.48221   0.00000  Uiso   1.00
O40    O     0.97559   0.07390   0.50421   0.00000  Uiso   1.00
N41    N     0.93339   0.61774   0.90874   0.00000  Uiso   1.00
N42    N     0.89585   0.35422   0.53464   0.00000  Uiso   1.00
N43    N     0.97622   0.91736   0.55030   0.00000  Uiso   1.00
N44    N     0.89902   0.69885   0.90870   0.00000  Uiso   1.00
N45    N     0.86148   0.43533   0.53460   0.00000  Uiso   1.00
N46    N     0.94185   0.99847   0.55026   0.00000  Uiso   1.00
C47    C     0.93819   0.12267   0.16459   0.00000  Uiso   1.00
C48    C     0.92847   0.14115   0.23187   0.00000  Uiso   1.00
C49    C     0.93944   0.11149   0.28846   0.00000  Uiso   1.00
C50    C     0.92767   0.13550   0.34509   0.00000  Uiso   1.00
C51    C     0.91591   0.15626   0.44956   0.00000  Uiso   1.00
C52    C     0.91812   0.06851   0.12877   0.00000  Uiso   1.00
C53    C     0.92039   0.97778   0.09867   0.00000  Uiso   1.00
C54    C     0.89991   0.94065   0.06851   0.00000  Uiso   1.00
C55    C     0.87209   0.84868   0.01288   0.00000  Uiso   1.00
C56    C     0.94027   0.22371   0.13310   0.00000  Uiso   1.00
C57    C     0.96117   0.26348   0.10662   0.00000  Uiso   1.00
C58    C     0.95933   0.35702   0.08009   0.00000  Uiso   1.00
C59    C     0.96590   0.50602   0.03118   0.00000  Uiso   1.00
C60    C     0.89776   0.21805   0.16454   0.00000  Uiso   1.00
C61    C     0.90651   0.19295   0.23184   0.00000  Uiso   1.00
C62    C     0.89472   0.21702   0.28840   0.00000  Uiso   1.00
C63    C     0.90567   0.18740   0.34506   0.00000  Uiso   1.00
C64    C     0.89616   0.12031   0.12874   0.00000  Uiso   1.00
C65    C     0.87567   0.08331   0.09862   0.00000  Uiso   1.00
C66    C     0.87791   0.99255   0.06848   0.00000  Uiso   1.00
C67    C     0.91831   0.27552   0.13307   0.00000  Uiso   1.00
C68    C     0.91644   0.36901   0.10657   0.00000  Uiso   1.00
C69    C     0.93733   0.40892   0.08006   0.00000  Uiso   1.00
H70    H     0.95528   0.08233   0.16461   0.00000  Uiso   1.00
H71    H     0.95643   0.07139   0.28846   0.00000  Uiso   1.00
H72    H     0.93739   0.93771   0.09870   0.00000  Uiso   1.00
H73    H     0.97816   0.22337   0.10665   0.00000  Uiso   1.00
H74    H     0.94802   0.08207   0.42575   0.00000  Uiso   1.00
H75    H     0.90787   0.80022   0.02562   0.00000  Uiso   1.00
H76    H     0.99383   0.40258   0.04238   0.00000  Uiso   1.00
H77    H     0.88066   0.25839   0.16452   0.00000  Uiso   1.00
H78    H     0.87772   0.25711   0.28836   0.00000  Uiso   1.00
H79    H     0.85868   0.12343   0.09860   0.00000  Uiso   1.00
H80    H     0.89945   0.40908   0.10656   0.00000  Uiso   1.00
H81    H     0.88414   0.23281   0.42567   0.00000  Uiso   1.00
H82    H     0.84399   0.95096   0.02553   0.00000  Uiso   1.00
H83    H     0.92995   0.55332   0.04230   0.00000  Uiso   1.00
O84    O     0.91549   0.15339   0.50718   0.00000  Uiso   1.00
O85    O     0.86281   0.78362   0.98221   0.00000  Uiso   1.00
O86    O     0.97559   0.57390   0.00421   0.00000  Uiso   1.00
N87    N     0.93339   0.11774   0.40874   0.00000  Uiso   1.00
N88    N     0.89585   0.85422   0.03464   0.00000  Uiso   1.00
N89    N     0.97622   0.41736   0.05030   0.00000  Uiso   1.00
N90    N     0.89902   0.19885   0.40870   0.00000  Uiso   1.00
N91    N     0.86148   0.93533   0.03460   0.00000  Uiso   1.00
N92    N     0.94185   0.49847   0.05026   0.00000  Uiso   1.00
C93    C     0.43819   0.62267   0.16459   0.00000  Uiso   1.00
C94    C     0.42847   0.64115   0.23187   0.00000  Uiso   1.00
C95    C     0.43944   0.61149   0.28846   0.00000  Uiso   1.00
C96    C     0.42767   0.63550   0.34509   0.00000  Uiso   1.00
C97    C     0.41591   0.65626   0.44956   0.00000  Uiso   1.00
C98    C     0.41812   0.56851   0.12877   0.00000  Uiso   1.00
C99    C     0.42039   0.47778   0.09867   0.00000  Uiso   1.00
C100   C     0.39991   0.44065   0.06851   0.00000  Uiso   1.00
C101   C     0.37209   0.34868   0.01288   0.00000  Uiso   1.00
C102   C     0.44027   0.72371   0.13310   0.00000  Uiso   1.00
C103   C     0.46117   0.76348   0.10662   0.00000  Uiso   1.00
C104   C     0.45933   0.85702   0.08009   0.00000  Uiso   1.00
C105   C     0.46590   0.00602   0.03118   0.00000  Uiso   1.00
C106   C     0.39776   0.71805   0.16454   0.00000  Uiso   1.00
C107   C     0.40651   0.69295   0.23184   0.00000  Uiso   1.00
C108   C     0.39472   0.71702   0.28840   0.00000  Uiso   1.00
C109   C     0.40567   0.68740   0.34506   0.00000  Uiso   1.00
C110   C     0.39616   0.62031   0.12874   0.00000  Uiso   1.00
C111   C     0.37567   0.58331   0.09862   0.00000  Uiso   1.00
C112   C     0.37791   0.49255   0.06848   0.00000  Uiso   1.00
C113   C     0.41831   0.77552   0.13307   0.00000  Uiso   1.00
C114   C     0.41644   0.86901   0.10657   0.00000  Uiso   1.00
C115   C     0.43733   0.90892   0.08006   0.00000  Uiso   1.00
H116   H     0.45528   0.58233   0.16461   0.00000  Uiso   1.00
H117   H     0.45643   0.57139   0.28846   0.00000  Uiso   1.00
H118   H     0.43739   0.43771   0.09870   0.00000  Uiso   1.00
H119   H     0.47816   0.72337   0.10665   0.00000  Uiso   1.00
H120   H     0.44802   0.58207   0.42575   0.00000  Uiso   1.00
H121   H     0.40787   0.30022   0.02562   0.00000  Uiso   1.00
H122   H     0.49383   0.90258   0.04238   0.00000  Uiso   1.00
H123   H     0.38066   0.75839   0.16452   0.00000  Uiso   1.00
H124   H     0.37772   0.75711   0.28836   0.00000  Uiso   1.00
H125   H     0.35868   0.62343   0.09860   0.00000  Uiso   1.00
H126   H     0.39945   0.90908   0.10656   0.00000  Uiso   1.00
H127   H     0.38414   0.73281   0.42567   0.00000  Uiso   1.00
H128   H     0.34399   0.45096   0.02553   0.00000  Uiso   1.00
H129   H     0.42995   0.05332   0.04230   0.00000  Uiso   1.00
O130   O     0.41549   0.65339   0.50718   0.00000  Uiso   1.00
O131   O     0.36281   0.28362   0.98221   0.00000  Uiso   1.00
O132   O     0.47559   0.07390   0.00421   0.00000  Uiso   1.00
N133   N     0.43339   0.61774   0.40874   0.00000  Uiso   1.00
N134   N     0.39585   0.35422   0.03464   0.00000  Uiso   1.00
N135   N     0.47622   0.91736   0.05030   0.00000  Uiso   1.00
N136   N     0.39902   0.69885   0.40870   0.00000  Uiso   1.00
N137   N     0.36148   0.43533   0.03460   0.00000  Uiso   1.00
N138   N     0.44185   0.99847   0.05026   0.00000  Uiso   1.00
C139   C     0.43819   0.12267   0.66459   0.00000  Uiso   1.00
C140   C     0.42847   0.14115   0.73187   0.00000  Uiso   1.00
C141   C     0.43944   0.11149   0.78846   0.00000  Uiso   1.00
C142   C     0.42767   0.13550   0.84509   0.00000  Uiso   1.00
C143   C     0.41591   0.15626   0.94956   0.00000  Uiso   1.00
C144   C     0.41812   0.06851   0.62877   0.00000  Uiso   1.00
C145   C     0.42039   0.97778   0.59867   0.00000  Uiso   1.00
C146   C     0.39991   0.94065   0.56851   0.00000  Uiso   1.00
C147   C     0.37209   0.84868   0.51288   0.00000  Uiso   1.00
C148   C     0.44027   0.22371   0.63310   0.00000  Uiso   1.00
C149   C     0.46117   0.26348   0.60662   0.00000  Uiso   1.00
C150   C     0.45933   0.35702   0.58009   0.00000  Uiso   1.00
C151   C     0.46590   0.50602   0.53118   0.00000  Uiso   1.00
C152   C     0.39776   0.21805   0.66454   0.00000  Uiso   1.00
C153   C     0.40651   0.19295   0.73184   0.00000  Uiso   1.00
C154   C     0.39472   0.21702   0.78840   0.00000  Uiso   1.00
C155   C     0.40567   0.18740   0.84506   0.00000  Uiso   1.00
C156   C     0.39616   0.12031   0.62874   0.00000  Uiso   1.00
C157   C     0.37567   0.08331   0.59862   0.00000  Uiso   1.00
C158   C     0.37791   0.99255   0.56848   0.00000  Uiso   1.00
C159   C     0.41831   0.27552   0.63307   0.00000  Uiso   1.00
C160   C     0.41644   0.36901   0.60657   0.00000  Uiso   1.00
C161   C     0.43733   0.40892   0.58006   0.00000  Uiso   1.00
H162   H     0.45528   0.08233   0.66461   0.00000  Uiso   1.00
H163   H     0.45643   0.07139   0.78846   0.00000  Uiso   1.00
H164   H     0.43739   0.93771   0.59870   0.00000  Uiso   1.00
H165   H     0.47816   0.22337   0.60665   0.00000  Uiso   1.00
H166   H     0.44802   0.08207   0.92575   0.00000  Uiso   1.00
H167   H     0.40787   0.80022   0.52562   0.00000  Uiso   1.00
H168   H     0.49383   0.40258   0.54238   0.00000  Uiso   1.00
H169   H     0.38066   0.25839   0.66452   0.00000  Uiso   1.00
H170   H     0.37772   0.25711   0.78836   0.00000  Uiso   1.00
H171   H     0.35868   0.12343   0.59860   0.00000  Uiso   1.00
H172   H     0.39945   0.40908   0.60656   0.00000  Uiso   1.00
H173   H     0.38414   0.23281   0.92567   0.00000  Uiso   1.00
H174   H     0.34399   0.95096   0.52553   0.00000  Uiso   1.00
H175   H     0.42995   0.55332   0.54230   0.00000  Uiso   1.00
O176   O     0.41549   0.15339   0.00718   0.00000  Uiso   1.00
O177   O     0.36281   0.78362   0.48221   0.00000  Uiso   1.00
O178   O     0.47559   0.57390   0.50421   0.00000  Uiso   1.00
N179   N     0.43339   0.11774   0.90874   0.00000  Uiso   1.00
N180   N     0.39585   0.85422   0.53464   0.00000  Uiso   1.00
N181   N     0.47622   0.41736   0.55030   0.00000  Uiso   1.00
N182   N     0.39902   0.19885   0.90870   0.00000  Uiso   1.00
N183   N     0.36148   0.93533   0.53460   0.00000  Uiso   1.00
N184   N     0.44185   0.49847   0.55026   0.00000  Uiso   1.00
C185   C     0.06181   0.37733   0.66459   0.00000  Uiso   1.00
C186   C     0.07153   0.35885   0.73187   0.00000  Uiso   1.00
C187   C     0.06056   0.38851   0.78846   0.00000  Uiso   1.00
C188   C     0.07233   0.36450   0.84509   0.00000  Uiso   1.00
C189   C     0.08409   0.34374   0.94956   0.00000  Uiso   1.00
C190   C     0.08188   0.43149   0.62877   0.00000  Uiso   1.00
C191   C     0.07961   0.52222   0.59867   0.00000  Uiso   1.00
C192   C     0.10009   0.55935   0.56851   0.00000  Uiso   1.00
C193   C     0.12791   0.65132   0.51288   0.00000  Uiso   1.00
C194   C     0.05973   0.27629   0.63310   0.00000  Uiso   1.00
C195   C     0.03883   0.23652   0.60662   0.00000  Uiso   1.00
C196   C     0.04067   0.14298   0.58009   0.00000  Uiso   1.00
C197   C     0.03410   0.99398   0.53118   0.00000  Uiso   1.00
C198   C     0.10224   0.28195   0.66454   0.00000  Uiso   1.00
C199   C     0.09349   0.30705   0.73184   0.00000  Uiso   1.00
C200   C     0.10528   0.28298   0.78840   0.00000  Uiso   1.00
C201   C     0.09433   0.31260   0.84506   0.00000  Uiso   1.00
C202   C     0.10384   0.37969   0.62874   0.00000  Uiso   1.00
C203   C     0.12433   0.41669   0.59862   0.00000  Uiso   1.00
C204   C     0.12209   0.50745   0.56848   0.00000  Uiso   1.00
C205   C     0.08169   0.22448   0.63307   0.00000  Uiso   1.00
C206   C     0.08356   0.13099   0.60657   0.00000  Uiso   1.00
C207   C     0.06267   0.09108   0.58006   0.00000  Uiso   1.00
H208   H     0.04472   0.41767   0.66461   0.00000  Uiso   1.00
H209   H     0.04357   0.42861   0.78846   0.00000  Uiso   1.00
H210   H     0.06261   0.56229   0.59870   0.00000  Uiso   1.00
H211   H     0.02184   0.27663   0.60665   0.00000  Uiso   1.00
H212   H     0.05198   0.41793   0.92575   0.00000  Uiso   1.00
H213   H     0.09213   0.69978   0.52562   0.00000  Uiso   1.00
H214   H     0.00617   0.09742   0.54238   0.00000  Uiso   1.00
H215   H     0.11934   0.24161   0.66452   0.00000  Uiso   1.00
H216   H     0.12228   0.24289   0.78836   0.00000  Uiso   1.00
H217   H     0.14132   0.37657   0.59860   0.00000  Uiso   1.00
H218   H     0.10055   0.09092   0.60656   0.00000  Uiso   1.00
H219   H     0.11586   0.26719   0.92567   0.00000  Uiso   1.00
H220   H     0.15601   0.54904   0.52553   0.00000  Uiso   1.00
H221   H     0.07005   0.94668   0.54230   0.00000  Uiso   1.00
O222   O     0.08451   0.34661   0.00718   0.00000  Uiso   1.00
O223   O     0.13719   0.71638   0.48221   0.00000  Uiso   1.00
O224   O     0.02441   0.92610   0.50421   0.00000  Uiso   1.00
N225   N     0.06661   0.38226   0.90874   0.00000  Uiso   1.00
N226   N     0.10415   0.64578   0.53464   0.00000  Uiso   1.00
N227   N     0.02378   0.08264   0.55030   0.00000  Uiso   1.00
N228   N     0.10098   0.30115   0.90870   0.00000  Uiso   1.00
N229   N     0.13852   0.56467   0.53460   0.00000  Uiso   1.00
N230   N     0.05815   0.00153   0.55026   0.00000  Uiso   1.00
C231   C     0.06181   0.87733   0.16459   0.00000  Uiso   1.00
C232   C     0.07153   0.85885   0.23187   0.00000  Uiso   1.00
C233   C     0.06056   0.88851   0.28846   0.00000  Uiso   1.00
C234   C     0.07233   0.86450   0.34509   0.00000  Uiso   1.00
C235   C     0.08409   0.84374   0.44956   0.00000  Uiso   1.00
C236   C     0.08188   0.93149   0.12877   0.00000  Uiso   1.00
C237   C     0.07961   0.02222   0.09867   0.00000  Uiso   1.00
C238   C     0.10009   0.05935   0.06851   0.00000  Uiso   1.00
C239   C     0.12791   0.15132   0.01288   0.00000  Uiso   1.00
C240   C     0.05973   0.77629   0.13310   0.00000  Uiso   1.00
C241   C     0.03883   0.73652   0.10662   0.00000  Uiso   1.00
C242   C     0.04067   0.64298   0.08009   0.00000  Uiso   1.00
C243   C     0.03410   0.49398   0.03118   0.00000  Uiso   1.00
C244   C     0.10224   0.78195   0.16454   0.00000  Uiso   1.00
C245   C     0.09349   0.80705   0.23184   0.00000  Uiso   1.00
C246   C     0.10528   0.78298   0.28840   0.00000  Uiso   1.00
C247   C     0.09433   0.81260   0.34506   0.00000  Uiso   1.00
C248   C     0.10384   0.87969   0.12874   0.00000  Uiso   1.00
C249   C     0.12433   0.91669   0.09862   0.00000  Uiso   1.00
C250   C     0.12209   0.00745   0.06848   0.00000  Uiso   1.00
C251   C     0.08169   0.72448   0.13307   0.00000  Uiso   1.00
C252   C     0.08356   0.63099   0.10657   0.00000  Uiso   1.00
C253   C     0.06267   0.59108   0.08006   0.00000  Uiso   1.00
H254   H     0.04472   0.91767   0.16461   0.00000  Uiso   1.00
H255   H     0.04357   0.92861   0.28846   0.00000  Uiso   1.00
H256   H     0.06261   0.06229   0.09870   0.00000  Uiso   1.00
H257   H     0.02184   0.77663   0.10665   0.00000  Uiso   1.00
H258   H     0.05198   0.91793   0.42575   0.00000  Uiso   1.00
H259   H     0.09213   0.19978   0.02562   0.00000  Uiso   1.00
H260   H     0.00617   0.59742   0.04238   0.00000  Uiso   1.00
H261   H     0.11934   0.74161   0.16452   0.00000  Uiso   1.00
H262   H     0.12228   0.74289   0.28836   0.00000  Uiso   1.00
H263   H     0.14132   0.87657   0.09860   0.00000  Uiso   1.00
H264   H     0.10055   0.59092   0.10656   0.00000  Uiso   1.00
H265   H     0.11586   0.76719   0.42567   0.00000  Uiso   1.00
H266   H     0.15601   0.04904   0.02553   0.00000  Uiso   1.00
H267   H     0.07005   0.44668   0.04230   0.00000  Uiso   1.00
O268   O     0.08451   0.84661   0.50718   0.00000  Uiso   1.00
O269   O     0.13719   0.21638   0.98221   0.00000  Uiso   1.00
O270   O     0.02441   0.42610   0.00421   0.00000  Uiso   1.00
N271   N     0.06661   0.88226   0.40874   0.00000  Uiso   1.00
N272   N     0.10415   0.14578   0.03464   0.00000  Uiso   1.00
N273   N     0.02378   0.58264   0.05030   0.00000  Uiso   1.00
N274   N     0.10098   0.80115   0.40870   0.00000  Uiso   1.00
N275   N     0.13852   0.06467   0.03460   0.00000  Uiso   1.00
N276   N     0.05815   0.50153   0.05026   0.00000  Uiso   1.00
C277   C     0.56181   0.37733   0.16459   0.00000  Uiso   1.00
C278   C     0.57153   0.35885   0.23187   0.00000  Uiso   1.00
C279   C     0.56056   0.38851   0.28846   0.00000  Uiso   1.00
C280   C     0.57233   0.36450   0.34509   0.00000  Uiso   1.00
C281   C     0.58409   0.34374   0.44956   0.00000  Uiso   1.00
C282   C     0.58188   0.43149   0.12877   0.00000  Uiso   1.00
C283   C     0.57961   0.52222   0.09867   0.00000  Uiso   1.00
C284   C     0.60009   0.55935   0.06851   0.00000  Uiso   1.00
C285   C     0.62791   0.65132   0.01288   0.00000  Uiso   1.00
C286   C     0.55973   0.27629   0.13310   0.00000  Uiso   1.00
C287   C     0.53883   0.23652   0.10662   0.00000  Uiso   1.00
C288   C     0.54067   0.14298   0.08009   0.00000  Uiso   1.00
C289   C     0.53410   0.99398   0.03118   0.00000  Uiso   1.00
C290   C     0.60224   0.28195   0.16454   0.00000  Uiso   1.00
C291   C     0.59349   0.30705   0.23184   0.00000  Uiso   1.00
C292   C     0.60528   0.28298   0.28840   0.00000  Uiso   1.00
C293   C     0.59433   0.31260   0.34506   0.00000  Uiso   1.00
C294   C     0.60384   0.37969   0.12874   0.00000  Uiso   1.00
C295   C     0.62433   0.41669   0.09862   0.00000  Uiso   1.00
C296   C     0.62209   0.50745   0.06848   0.00000  Uiso   1.00
C297   C     0.58169   0.22448   0.13307   0.00000  Uiso   1.00
C298   C     0.58356   0.13099   0.10657   0.00000  Uiso   1.00
C299   C     0.56267   0.09108   0.08006   0.00000  Uiso   1.00
H300   H     0.54472   0.41767   0.16461   0.00000  Uiso   1.00
H301   H     0.54357   0.42861   0.28846   0.00000  Uiso   1.00
H302   H     0.56261   0.56229   0.09870   0.00000  Uiso   1.00
H303   H     0.52184   0.27663   0.10665   0.00000  Uiso   1.00
H304   H     0.55198   0.41793   0.42575   0.00000  Uiso   1.00
H305   H     0.59213   0.69978   0.02562   0.00000  Uiso   1.00
H306   H     0.50617   0.09742   0.04238   0.00000  Uiso   1.00
H307   H     0.61934   0.24161   0.16452   0.00000  Uiso   1.00
H308   H     0.62228   0.24289   0.28836   0.00000  Uiso   1.00
H309   H     0.64132   0.37657   0.09860   0.00000  Uiso   1.00
H310   H     0.60055   0.09092   0.10656   0.00000  Uiso   1.00
H311   H     0.61586   0.26719   0.42567   0.00000  Uiso   1.00
H312   H     0.65601   0.54904   0.02553   0.00000  Uiso   1.00
H313   H     0.57005   0.94668   0.04230   0.00000  Uiso   1.00
O314   O     0.58451   0.34661   0.50718   0.00000  Uiso   1.00
O315   O     0.63719   0.71638   0.98221   0.00000  Uiso   1.00
O316   O     0.52441   0.92610   0.00421   0.00000  Uiso   1.00
N317   N     0.56661   0.38226   0.40874   0.00000  Uiso   1.00
N318   N     0.60415   0.64578   0.03464   0.00000  Uiso   1.00
N319   N     0.52378   0.08264   0.05030   0.00000  Uiso   1.00
N320   N     0.60098   0.30115   0.40870   0.00000  Uiso   1.00
N321   N     0.63852   0.56467   0.03460   0.00000  Uiso   1.00
N322   N     0.55815   0.00153   0.05026   0.00000  Uiso   1.00
C323   C     0.56181   0.87733   0.66459   0.00000  Uiso   1.00
C324   C     0.57153   0.85885   0.73187   0.00000  Uiso   1.00
C325   C     0.56056   0.88851   0.78846   0.00000  Uiso   1.00
C326   C     0.57233   0.86450   0.84509   0.00000  Uiso   1.00
C327   C     0.58409   0.84374   0.94956   0.00000  Uiso   1.00
C328   C     0.58188   0.93149   0.62877   0.00000  Uiso   1.00
C329   C     0.57961   0.02222   0.59867   0.00000  Uiso   1.00
C330   C     0.60009   0.05935   0.56851   0.00000  Uiso   1.00
C331   C     0.62791   0.15132   0.51288   0.00000  Uiso   1.00
C332   C     0.55973   0.77629   0.63310   0.00000  Uiso   1.00
C333   C     0.53883   0.73652   0.60662   0.00000  Uiso   1.00
C334   C     0.54067   0.64298   0.58009   0.00000  Uiso   1.00
C335   C     0.53410   0.49398   0.53118   0.00000  Uiso   1.00
C336   C     0.60224   0.78195   0.66454   0.00000  Uiso   1.00
C337   C     0.59349   0.80705   0.73184   0.00000  Uiso   1.00
C338   C     0.60528   0.78298   0.78840   0.00000  Uiso   1.00
C339   C     0.59433   0.81260   0.84506   0.00000  Uiso   1.00
C340   C     0.60384   0.87969   0.62874   0.00000  Uiso   1.00
C341   C     0.62433   0.91669   0.59862   0.00000  Uiso   1.00
C342   C     0.62209   0.00745   0.56848   0.00000  Uiso   1.00
C343   C     0.58169   0.72448   0.63307   0.00000  Uiso   1.00
C344   C     0.58356   0.63099   0.60657   0.00000  Uiso   1.00
C345   C     0.56267   0.59108   0.58006   0.00000  Uiso   1.00
H346   H     0.54472   0.91767   0.66461   0.00000  Uiso   1.00
H347   H     0.54357   0.92861   0.78846   0.00000  Uiso   1.00
H348   H     0.56261   0.06229   0.59870   0.00000  Uiso   1.00
H349   H     0.52184   0.77663   0.60665   0.00000  Uiso   1.00
H350   H     0.55198   0.91793   0.92575   0.00000  Uiso   1.00
H351   H     0.59213   0.19978   0.52562   0.00000  Uiso   1.00
H352   H     0.50617   0.59742   0.54238   0.00000  Uiso   1.00
H353   H     0.61934   0.74161   0.66452   0.00000  Uiso   1.00
H354   H     0.62228   0.74289   0.78836   0.00000  Uiso   1.00
H355   H     0.64132   0.87657   0.59860   0.00000  Uiso   1.00
H356   H     0.60055   0.59092   0.60656   0.00000  Uiso   1.00
H357   H     0.61586   0.76719   0.92567   0.00000  Uiso   1.00
H358   H     0.65601   0.04904   0.52553   0.00000  Uiso   1.00
H359   H     0.57005   0.44668   0.54230   0.00000  Uiso   1.00
O360   O     0.58451   0.84661   0.00718   0.00000  Uiso   1.00
O361   O     0.63719   0.21638   0.48221   0.00000  Uiso   1.00
O362   O     0.52441   0.42610   0.50421   0.00000  Uiso   1.00
N363   N     0.56661   0.88226   0.90874   0.00000  Uiso   1.00
N364   N     0.60415   0.14578   0.53464   0.00000  Uiso   1.00
N365   N     0.52378   0.58264   0.55030   0.00000  Uiso   1.00
N366   N     0.60098   0.80115   0.90870   0.00000  Uiso   1.00
N367   N     0.63852   0.06467   0.53460   0.00000  Uiso   1.00
N368   N     0.55815   0.50153   0.55026   0.00000  Uiso   1.00
C369   C     0.18819   0.62733   0.91459   0.00000  Uiso   1.00
C370   C     0.17847   0.60885   0.98187   0.00000  Uiso   1.00
C371   C     0.18944   0.63851   0.03846   0.00000  Uiso   1.00
C372   C     0.17767   0.61450   0.09509   0.00000  Uiso   1.00
C373   C     0.16591   0.59374   0.19956   0.00000  Uiso   1.00
C374   C     0.16812   0.68149   0.87877   0.00000  Uiso   1.00
C375   C     0.17039   0.77222   0.84867   0.00000  Uiso   1.00
C376   C     0.14991   0.80935   0.81851   0.00000  Uiso   1.00
C377   C     0.12209   0.90132   0.76288   0.00000  Uiso   1.00
C378   C     0.19027   0.52629   0.88310   0.00000  Uiso   1.00
C379   C     0.21117   0.48652   0.85662   0.00000  Uiso   1.00
C380   C     0.20933   0.39298   0.83009   0.00000  Uiso   1.00
C381   C     0.21590   0.24398   0.78118   0.00000  Uiso   1.00
C382   C     0.14776   0.53195   0.91454   0.00000  Uiso   1.00
C383   C     0.15651   0.55705   0.98184   0.00000  Uiso   1.00
C384   C     0.14472   0.53298   0.03840   0.00000  Uiso   1.00
C385   C     0.15567   0.56260   0.09506   0.00000  Uiso   1.00
C386   C     0.14616   0.62969   0.87874   0.00000  Uiso   1.00
C387   C     0.12567   0.66669   0.84862   0.00000  Uiso   1.00
C388   C     0.12791   0.75745   0.81848   0.00000  Uiso   1.00
C389   C     0.16831   0.47448   0.88307   0.00000  Uiso   1.00
C390   C     0.16644   0.38099   0.85657   0.00000  Uiso   1.00
C391   C     0.18733   0.34108   0.83006   0.00000  Uiso   1.00
H392   H     0.20528   0.66767   0.91461   0.00000  Uiso   1.00
H393   H     0.20643   0.67861   0.03846   0.00000  Uiso   1.00
H394   H     0.18739   0.81229   0.84870   0.00000  Uiso   1.00
H395   H     0.22816   0.52663   0.85665   0.00000  Uiso   1.00
H396   H     0.19802   0.66793   0.17575   0.00000  Uiso   1.00
H397   H     0.15787   0.94978   0.77562   0.00000  Uiso   1.00
H398   H     0.24383   0.34742   0.79238   0.00000  Uiso   1.00
H399   H     0.13066   0.49161   0.91452   0.00000  Uiso   1.00
H400   H     0.12772   0.49289   0.03836   0.00000  Uiso   1.00
H401   H     0.10868   0.62657   0.84860   0.00000  Uiso   1.00
H402   H     0.14945   0.34092   0.85656   0.00000  Uiso   1.00
H403   H     0.13414   0.51719   0.17567   0.00000  Uiso   1.00
H404   H     0.09399   0.79904   0.77553   0.00000  Uiso   1.00
H405   H     0.17995   0.19668   0.79230   0.00000  Uiso   1.00
O406   O     0.16549   0.59661   0.25718   0.00000  Uiso   1.00
O407   O     0.11281   0.96638   0.73221   0.00000  Uiso   1.00
O408   O     0.22559   0.17610   0.75421   0.00000  Uiso   1.00
N409   N     0.18339   0.63226   0.15874   0.00000  Uiso   1.00
N410   N     0.14585   0.89578   0.78464   0.00000  Uiso   1.00
N411   N     0.22622   0.33264   0.80030   0.00000  Uiso   1.00
N412   N     0.14902   0.55115   0.15870   0.00000  Uiso   1.00
N413   N     0.11148   0.81467   0.78460   0.00000  Uiso   1.00
N414   N     0.19185   0.25153   0.80026   0.00000  Uiso   1.00
C415   C     0.18819   0.12733   0.41459   0.00000  Uiso   1.00
C416   C     0.17847   0.10885   0.48187   0.00000  Uiso   1.00
C417   C     0.18944   0.13851   0.53846   0.00000  Uiso   1.00
C418   C     0.17767   0.11450   0.59509   0.00000  Uiso   1.00
C419   C     0.16591   0.09374   0.69956   0.00000  Uiso   1.00
C420   C     0.16812   0.18149   0.37877   0.00000  Uiso   1.00
C421   C     0.17039   0.27222   0.34867   0.00000  Uiso   1.00
C422   C     0.14991   0.30935   0.31851   0.00000  Uiso   1.00
C423   C     0.12209   0.40132   0.26288   0.00000  Uiso   1.00
C424   C     0.19027   0.02629   0.38310   0.00000  Uiso   1.00
C425   C     0.21117   0.98652   0.35662   0.00000  Uiso   1.00
C426   C     0.20933   0.89298   0.33009   0.00000  Uiso   1.00
C427   C     0.21590   0.74398   0.28118   0.00000  Uiso   1.00
C428   C     0.14776   0.03195   0.41454   0.00000  Uiso   1.00
C429   C     0.15651   0.05705   0.48184   0.00000  Uiso   1.00
C430   C     0.14472   0.03298   0.53840   0.00000  Uiso   1.00
C431   C     0.15567   0.06260   0.59506   0.00000  Uiso   1.00
C432   C     0.14616   0.12969   0.37874   0.00000  Uiso   1.00
C433   C     0.12567   0.16669   0.34862   0.00000  Uiso   1.00
C434   C     0.12791   0.25745   0.31848   0.00000  Uiso   1.00
C435   C     0.16831   0.97448   0.38307   0.00000  Uiso   1.00
C436   C     0.16644   0.88099   0.35657   0.00000  Uiso   1.00
C437   C     0.18733   0.84108   0.33006   0.00000  Uiso   1.00
H438   H     0.20528   0.16767   0.41461   0.00000  Uiso   1.00
H439   H     0.20643   0.17861   0.53846   0.00000  Uiso   1.00
H440   H     0.18739   0.31229   0.34870   0.00000  Uiso   1.00
H441   H     0.22816   0.02663   0.35665   0.00000  Uiso   1.00
H442   H     0.19802   0.16793   0.67575   0.00000  Uiso   1.00
H443   H     0.15787   0.44978   0.27562   0.00000  Uiso   1.00
H444   H     0.24383   0.84742   0.29238   0.00000  Uiso   1.00
H445   H     0.13066   0.99161   0.41452   0.00000  Uiso   1.00
H446   H     0.12772   0.99289   0.53836   0.00000  Uiso   1.00
H447   H     0.10868   0.12657   0.34860   0.00000  Uiso   1.00
H448   H     0.14945   0.84092   0.35656   0.00000  Uiso   1.00
H449   H     0.13414   0.01719   0.67567   0.00000  Uiso   1.00
H450   H     0.09399   0.29904   0.27553   0.00000  Uiso   1.00
H451   H     0.17995   0.69668   0.29230   0.00000  Uiso   1.00
O452   O     0.16549   0.09661   0.75718   0.00000  Uiso   1.00
O453   O     0.11281   0.46638   0.23221   0.00000  Uiso   1.00
O454   O     0.22559   0.67610   0.25421   0.00000  Uiso   1.00
N455   N     0.18339   0.13226   0.65874   0.00000  Uiso   1.00
N456   N     0.14585   0.39578   0.28464   0.00000  Uiso   1.00
N457   N     0.22622   0.83264   0.30030   0.00000  Uiso   1.00
N458   N     0.14902   0.05115   0.65870   0.00000  Uiso   1.00
N459   N     0.11148   0.31467   0.28460   0.00000  Uiso   1.00
N460   N     0.19185   0.75153   0.30026   0.00000  Uiso   1.00
C461   C     0.68819   0.62733   0.41459   0.00000  Uiso   1.00
C462   C     0.67847   0.60885   0.48187   0.00000  Uiso   1.00
C463   C     0.68944   0.63851   0.53846   0.00000  Uiso   1.00
C464   C     0.67767   0.61450   0.59509   0.00000  Uiso   1.00
C465   C     0.66591   0.59374   0.69956   0.00000  Uiso   1.00
C466   C     0.66812   0.68149   0.37877   0.00000  Uiso   1.00
C467   C     0.67039   0.77222   0.34867   0.00000  Uiso   1.00
C468   C     0.64991   0.80935   0.31851   0.00000  Uiso   1.00
C469   C     0.62209   0.90132   0.26288   0.00000  Uiso   1.00
C470   C     0.69027   0.52629   0.38310   0.00000  Uiso   1.00
C471   C     0.71117   0.48652   0.35662   0.00000  Uiso   1.00
C472   C     0.70933   0.39298   0.33009   0.00000  Uiso   1.00
C473   C     0.71590   0.24398   0.28118   0.00000  Uiso   1.00
C474   C     0.64776   0.53195   0.41454   0.00000  Uiso   1.00
C475   C     0.65651   0.55705   0.48184   0.00000  Uiso   1.00
C476   C     0.64472   0.53298   0.53840   0.00000  Uiso   1.00
C477   C     0.65567   0.56260   0.59506   0.00000  Uiso   1.00
C478   C     0.64616   0.62969   0.37874   0.00000  Uiso   1.00
C479   C     0.62567   0.66669   0.34862   0.00000  Uiso   1.00
C480   C     0.62791   0.75745   0.31848   0.00000  Uiso   1.00
C481   C     0.66831   0.47448   0.38307   0.00000  Uiso   1.00
C482   C     0.66644   0.38099   0.35657   0.00000  Uiso   1.00
C483   C     0.68733   0.34108   0.33006   0.00000  Uiso   1.00
H484   H     0.70528   0.66767   0.41461   0.00000  Uiso   1.00
H485   H     0.70643   0.67861   0.53846   0.00000  Uiso   1.00
H486   H     0.68739   0.81229   0.34870   0.00000  Uiso   1.00
H487   H     0.72816   0.52663   0.35665   0.00000  Uiso   1.00
H488   H     0.69802   0.66793   0.67575   0.00000  Uiso   1.00
H489   H     0.65787   0.94978   0.27562   0.00000  Uiso   1.00
H490   H     0.74383   0.34742   0.29238   0.00000  Uiso   1.00
H491   H     0.63066   0.49161   0.41452   0.00000  Uiso   1.00
H492   H     0.62772   0.49289   0.53836   0.00000  Uiso   1.00
H493   H     0.60868   0.62657   0.34860   0.00000  Uiso   1.00
H494   H     0.64945   0.34092   0.35656   0.00000  Uiso   1.00
H495   H     0.63414   0.51719   0.67567   0.00000  Uiso   1.00
H496   H     0.59399   0.79904   0.27553   0.00000  Uiso   1.00
H497   H     0.67995   0.19668   0.29230   0.00000  Uiso   1.00
O498   O     0.66549   0.59661   0.75718   0.00000  Uiso   1.00
O499   O     0.61281   0.96638   0.23221   0.00000  Uiso   1.00
O500   O     0.72559   0.17610   0.25421   0.00000  Uiso   1.00
N501   N     0.68339   0.63226   0.65874   0.00000  Uiso   1.00
N502   N     0.64585   0.89578   0.28464   0.00000  Uiso   1.00
N503   N     0.72622   0.33264   0.30030   0.00000  Uiso   1.00
N504   N     0.64902   0.55115   0.65870   0.00000  Uiso   1.00
N505   N     0.61148   0.81467   0.28460   0.00000  Uiso   1.00
N506   N     0.69185   0.25153   0.30026   0.00000  Uiso   1.00
C507   C     0.68819   0.12733   0.91459   0.00000  Uiso   1.00
C508   C     0.67847   0.10885   0.98187   0.00000  Uiso   1.00
C509   C     0.68944   0.13851   0.03846   0.00000  Uiso   1.00
C510   C     0.67767   0.11450   0.09509   0.00000  Uiso   1.00
C511   C     0.66591   0.09374   0.19956   0.00000  Uiso   1.00
C512   C     0.66812   0.18149   0.87877   0.00000  Uiso   1.00
C513   C     0.67039   0.27222   0.84867   0.00000  Uiso   1.00
C514   C     0.64991   0.30935   0.81851   0.00000  Uiso   1.00
C515   C     0.62209   0.40132   0.76288   0.00000  Uiso   1.00
C516   C     0.69027   0.02629   0.88310   0.00000  Uiso   1.00
C517   C     0.71117   0.98652   0.85662   0.00000  Uiso   1.00
C518   C     0.70933   0.89298   0.83009   0.00000  Uiso   1.00
C519   C     0.71590   0.74398   0.78118   0.00000  Uiso   1.00
C520   C     0.64776   0.03195   0.91454   0.00000  Uiso   1.00
C521   C     0.65651   0.05705   0.98184   0.00000  Uiso   1.00
C522   C     0.64472   0.03298   0.03840   0.00000  Uiso   1.00
C523   C     0.65567   0.06260   0.09506   0.00000  Uiso   1.00
C524   C     0.64616   0.12969   0.87874   0.00000  Uiso   1.00
C525   C     0.62567   0.16669   0.84862   0.00000  Uiso   1.00
C526   C     0.62791   0.25745   0.81848   0.00000  Uiso   1.00
C527   C     0.66831   0.97448   0.88307   0.00000  Uiso   1.00
C528   C     0.66644   0.88099   0.85657   0.00000  Uiso   1.00
C529   C     0.68733   0.84108   0.83006   0.00000  Uiso   1.00
H530   H     0.70528   0.16767   0.91461   0.00000  Uiso   1.00
H531   H     0.70643   0.17861   0.03846   0.00000  Uiso   1.00
H532   H     0.68739   0.31229   0.84870   0.00000  Uiso   1.00
H533   H     0.72816   0.02663   0.85665   0.00000  Uiso   1.00
H534   H     0.69802   0.16793   0.17575   0.00000  Uiso   1.00
H535   H     0.65787   0.44978   0.77562   0.00000  Uiso   1.00
H536   H     0.74383   0.84742   0.79238   0.00000  Uiso   1.00
H537   H     0.63066   0.99161   0.91452   0.00000  Uiso   1.00
H538   H     0.62772   0.99289   0.03836   0.00000  Uiso   1.00
H539   H     0.60868   0.12657   0.84860   0.00000  Uiso   1.00
H540   H     0.64945   0.84092   0.85656   0.00000  Uiso   1.00
H541   H     0.63414   0.01719   0.17567   0.00000  Uiso   1.00
H542   H     0.59399   0.29904   0.77553   0.00000  Uiso   1.00
H543   H     0.67995   0.69668   0.79230   0.00000  Uiso   1.00
O544   O     0.66549   0.09661   0.25718   0.00000  Uiso   1.00
O545   O     0.61281   0.46638   0.73221   0.00000  Uiso   1.00
O546   O     0.72559   0.67610   0.75421   0.00000  Uiso   1.00
N547   N     0.68339   0.13226   0.15874   0.00000  Uiso   1.00
N548   N     0.64585   0.39578   0.78464   0.00000  Uiso   1.00
N549   N     0.72622   0.83264   0.80030   0.00000  Uiso   1.00
N550   N     0.64902   0.05115   0.15870   0.00000  Uiso   1.00
N551   N     0.61148   0.31467   0.78460   0.00000  Uiso   1.00
N552   N     0.69185   0.75153   0.80026   0.00000  Uiso   1.00
C553   C     0.31181   0.87267   0.91459   0.00000  Uiso   1.00
C554   C     0.32153   0.89115   0.98187   0.00000  Uiso   1.00
C555   C     0.31056   0.86149   0.03846   0.00000  Uiso   1.00
C556   C     0.32233   0.88550   0.09509   0.00000  Uiso   1.00
C557   C     0.33409   0.90626   0.19956   0.00000  Uiso   1.00
C558   C     0.33188   0.81851   0.87877   0.00000  Uiso   1.00
C559   C     0.32961   0.72778   0.84867   0.00000  Uiso   1.00
C560   C     0.35009   0.69065   0.81851   0.00000  Uiso   1.00
C561   C     0.37791   0.59868   0.76288   0.00000  Uiso   1.00
C562   C     0.30973   0.97371   0.88310   0.00000  Uiso   1.00
C563   C     0.28883   0.01348   0.85662   0.00000  Uiso   1.00
C564   C     0.29067   0.10702   0.83009   0.00000  Uiso   1.00
C565   C     0.28410   0.25602   0.78118   0.00000  Uiso   1.00
C566   C     0.35224   0.96805   0.91454   0.00000  Uiso   1.00
C567   C     0.34349   0.94295   0.98184   0.00000  Uiso   1.00
C568   C     0.35528   0.96702   0.03840   0.00000  Uiso   1.00
C569   C     0.34433   0.93740   0.09506   0.00000  Uiso   1.00
C570   C     0.35384   0.87031   0.87874   0.00000  Uiso   1.00
C571   C     0.37433   0.83331   0.84862   0.00000  Uiso   1.00
C572   C     0.37209   0.74255   0.81848   0.00000  Uiso   1.00
C573   C     0.33169   0.02552   0.88307   0.00000  Uiso   1.00
C574   C     0.33356   0.11901   0.85657   0.00000  Uiso   1.00
C575   C     0.31267   0.15892   0.83006   0.00000  Uiso   1.00
H576   H     0.29472   0.83233   0.91461   0.00000  Uiso   1.00
H577   H     0.29357   0.82139   0.03846   0.00000  Uiso   1.00
H578   H     0.31261   0.68771   0.84870   0.00000  Uiso   1.00
H579   H     0.27184   0.97337   0.85665   0.00000  Uiso   1.00
H580   H     0.30198   0.83207   0.17575   0.00000  Uiso   1.00
H581   H     0.34213   0.55022   0.77562   0.00000  Uiso   1.00
H582   H     0.25617   0.15258   0.79238   0.00000  Uiso   1.00
H583   H     0.36934   0.00839   0.91452   0.00000  Uiso   1.00
H584   H     0.37228   0.00711   0.03836   0.00000  Uiso   1.00
H585   H     0.39132   0.87343   0.84860   0.00000  Uiso   1.00
H586   H     0.35055   0.15908   0.85656   0.00000  Uiso   1.00
H587   H     0.36586   0.98281   0.17567   0.00000  Uiso   1.00
H588   H     0.40601   0.70096   0.77553   0.00000  Uiso   1.00
H589   H     0.32005   0.30332   0.79230   0.00000  Uiso   1.00
O590   O     0.33451   0.90339   0.25718   0.00000  Uiso   1.00
O591   O     0.38719   0.53362   0.73221   0.00000  Uiso   1.00
O592   O     0.27441   0.32390   0.75421   0.00000  Uiso   1.00
N593   N     0.31661   0.86774   0.15874   0.00000  Uiso   1.00
N594   N     0.35415   0.60422   0.78464   0.00000  Uiso   1.00
N595   N     0.27378   0.16736   0.80030   0.00000  Uiso   1.00
N596   N     0.35098   0.94885   0.15870   0.00000  Uiso   1.00
N597   N     0.38852   0.68533   0.78460   0.00000  Uiso   1.00
N598   N     0.30815   0.24847   0.80026   0.00000  Uiso   1.00
C599   C     0.31181   0.37267   0.41459   0.00000  Uiso   1.00
C600   C     0.32153   0.39115   0.48187   0.00000  Uiso   1.00
C601   C     0.31056   0.36149   0.53846   0.00000  Uiso   1.00
C602   C     0.32233   0.38550   0.59509   0.00000  Uiso   1.00
C603   C     0.33409   0.40626   0.69956   0.00000  Uiso   1.00
C604   C     0.33188   0.31851   0.37877   0.00000  Uiso   1.00
C605   C     0.32961   0.22778   0.34867   0.00000  Uiso   1.00
C606   C     0.35009   0.19065   0.31851   0.00000  Uiso   1.00
C607   C     0.37791   0.09868   0.26288   0.00000  Uiso   1.00
C608   C     0.30973   0.47371   0.38310   0.00000  Uiso   1.00
C609   C     0.28883   0.51348   0.35662   0.00000  Uiso   1.00
C610   C     0.29067   0.60702   0.33009   0.00000  Uiso   1.00
C611   C     0.28410   0.75602   0.28118   0.00000  Uiso   1.00
C612   C     0.35224   0.46805   0.41454   0.00000  Uiso   1.00
C613   C     0.34349   0.44295   0.48184   0.00000  Uiso   1.00
C614   C     0.35528   0.46702   0.53840   0.00000  Uiso   1.00
C615   C     0.34433   0.43740   0.59506   0.00000  Uiso   1.00
C616   C     0.35384   0.37031   0.37874   0.00000  Uiso   1.00
C617   C     0.37433   0.33331   0.34862   0.00000  Uiso   1.00
C618   C     0.37209   0.24255   0.31848   0.00000  Uiso   1.00
C619   C     0.33169   0.52552   0.38307   0.00000  Uiso   1.00
C620   C     0.33356   0.61901   0.35657   0.00000  Uiso   1.00
C621   C     0.31267   0.65892   0.33006   0.00000  Uiso   1.00
H622   H     0.29472   0.33233   0.41461   0.00000  Uiso   1.00
H623   H     0.29357   0.32139   0.53846   0.00000  Uiso   1.00
H624   H     0.31261   0.18771   0.34870   0.00000  Uiso   1.00
H625   H     0.27184   0.47337   0.35665   0.00000  Uiso   1.00
H626   H     0.30198   0.33207   0.67575   0.00000  Uiso   1.00
H627   H     0.34213   0.05022   0.27562   0.00000  Uiso   1.00
H628   H     0.25617   0.65258   0.29238   0.00000  Uiso   1.00
H629   H     0.36934   0.50839   0.41452   0.00000  Uiso   1.00
H630   H     0.37228   0.50711   0.53836   0.00000  Uiso   1.00
H631   H     0.39132   0.37343   0.34860   0.00000  Uiso   1.00
H632   H     0.35055   0.65908   0.35656   0.00000  Uiso   1.00
H633   H     0.36586   0.48281   0.67567   0.00000  Uiso   1.00
H634   H     0.40601   0.20096   0.27553   0.00000  Uiso   1.00
H635   H     0.32005   0.80332   0.29230   0.00000  Uiso   1.00
O636   O     0.33451   0.40339   0.75718   0.00000  Uiso   1.00
O637   O     0.38719   0.03362   0.23221   0.00000  Uiso   1.00
O638   O     0.27441   0.82390   0.25421   0.00000  Uiso   1.00
N639   N     0.31661   0.36774   0.65874   0.00000  Uiso   1.00
N640   N     0.35415   0.10422   0.28464   0.00000  Uiso   1.00
N641   N     0.27378   0.66736   0.30030   0.00000  Uiso   1.00
N642   N     0.35098   0.44885   0.65870   0.00000  Uiso   1.00
N643   N     0.38852   0.18533   0.28460   0.00000  Uiso   1.00
N644   N     0.30815   0.74847   0.30026   0.00000  Uiso   1.00
C645   C     0.81181   0.87267   0.41459   0.00000  Uiso   1.00
C646   C     0.82153   0.89115   0.48187   0.00000  Uiso   1.00
C647   C     0.81056   0.86149   0.53846   0.00000  Uiso   1.00
C648   C     0.82233   0.88550   0.59509   0.00000  Uiso   1.00
C649   C     0.83409   0.90626   0.69956   0.00000  Uiso   1.00
C650   C     0.83188   0.81851   0.37877   0.00000  Uiso   1.00
C651   C     0.82961   0.72778   0.34867   0.00000  Uiso   1.00
C652   C     0.85009   0.69065   0.31851   0.00000  Uiso   1.00
C653   C     0.87791   0.59868   0.26288   0.00000  Uiso   1.00
C654   C     0.80973   0.97371   0.38310   0.00000  Uiso   1.00
C655   C     0.78883   0.01348   0.35662   0.00000  Uiso   1.00
C656   C     0.79067   0.10702   0.33009   0.00000  Uiso   1.00
C657   C     0.78410   0.25602   0.28118   0.00000  Uiso   1.00
C658   C     0.85224   0.96805   0.41454   0.00000  Uiso   1.00
C659   C     0.84349   0.94295   0.48184   0.00000  Uiso   1.00
C660   C     0.85528   0.96702   0.53840   0.00000  Uiso   1.00
C661   C     0.84433   0.93740   0.59506   0.00000  Uiso   1.00
C662   C     0.85384   0.87031   0.37874   0.00000  Uiso   1.00
C663   C     0.87433   0.83331   0.34862   0.00000  Uiso   1.00
C664   C     0.87209   0.74255   0.31848   0.00000  Uiso   1.00
C665   C     0.83169   0.02552   0.38307   0.00000  Uiso   1.00
C666   C     0.83356   0.11901   0.35657   0.00000  Uiso   1.00
C667   C     0.81267   0.15892   0.33006   0.00000  Uiso   1.00
H668   H     0.79472   0.83233   0.41461   0.00000  Uiso   1.00
H669   H     0.79357   0.82139   0.53846   0.00000  Uiso   1.00
H670   H     0.81261   0.68771   0.34870   0.00000  Uiso   1.00
H671   H     0.77184   0.97337   0.35665   0.00000  Uiso   1.00
H672   H     0.80198   0.83207   0.67575   0.00000  Uiso   1.00
H673   H     0.84213   0.55022   0.27562   0.00000  Uiso   1.00
H674   H     0.75617   0.15258   0.29238   0.00000  Uiso   1.00
H675   H     0.86934   0.00839   0.41452   0.00000  Uiso   1.00
H676   H     0.87228   0.00711   0.53836   0.00000  Uiso   1.00
H677   H     0.89132   0.87343   0.34860   0.00000  Uiso   1.00
H678   H     0.85055   0.15908   0.35656   0.00000  Uiso   1.00
H679   H     0.86586   0.98281   0.67567   0.00000  Uiso   1.00
H680   H     0.90601   0.70096   0.27553   0.00000  Uiso   1.00
H681   H     0.82005   0.30332   0.29230   0.00000  Uiso   1.00
O682   O     0.83451   0.90339   0.75718   0.00000  Uiso   1.00
O683   O     0.88719   0.53362   0.23221   0.00000  Uiso   1.00
O684   O     0.77441   0.32390   0.25421   0.00000  Uiso   1.00
N685   N     0.81661   0.86774   0.65874   0.00000  Uiso   1.00
N686   N     0.85415   0.60422   0.28464   0.00000  Uiso   1.00
N687   N     0.77378   0.16736   0.30030   0.00000  Uiso   1.00
N688   N     0.85098   0.94885   0.65870   0.00000  Uiso   1.00
N689   N     0.88852   0.68533   0.28460   0.00000  Uiso   1.00
N690   N     0.80815   0.24847   0.30026   0.00000  Uiso   1.00
C691   C     0.81181   0.37267   0.91459   0.00000  Uiso   1.00
C692   C     0.82153   0.39115   0.98187   0.00000  Uiso   1.00
C693   C     0.81056   0.36149   0.03846   0.00000  Uiso   1.00
C694   C     0.82233   0.38550   0.09509   0.00000  Uiso   1.00
C695   C     0.83409   0.40626   0.19956   0.00000  Uiso   1.00
C696   C     0.83188   0.31851   0.87877   0.00000  Uiso   1.00
C697   C     0.82961   0.22778   0.84867   0.00000  Uiso   1.00
C698   C     0.85009   0.19065   0.81851   0.00000  Uiso   1.00
C699   C     0.87791   0.09868   0.76288   0.00000  Uiso   1.00
C700   C     0.80973   0.47371   0.88310   0.00000  Uiso   1.00
C701   C     0.78883   0.51348   0.85662   0.00000  Uiso   1.00
C702   C     0.79067   0.60702   0.83009   0.00000  Uiso   1.00
C703   C     0.78410   0.75602   0.78118   0.00000  Uiso   1.00
C704   C     0.85224   0.46805   0.91454   0.00000  Uiso   1.00
C705   C     0.84349   0.44295   0.98184   0.00000  Uiso   1.00
C706   C     0.85528   0.46702   0.03840   0.00000  Uiso   1.00
C707   C     0.84433   0.43740   0.09506   0.00000  Uiso   1.00
C708   C     0.85384   0.37031   0.87874   0.00000  Uiso   1.00
C709   C     0.87433   0.33331   0.84862   0.00000  Uiso   1.00
C710   C     0.87209   0.24255   0.81848   0.00000  Uiso   1.00
C711   C     0.83169   0.52552   0.88307   0.00000  Uiso   1.00
C712   C     0.83356   0.61901   0.85657   0.00000  Uiso   1.00
C713   C     0.81267   0.65892   0.83006   0.00000  Uiso   1.00
H714   H     0.79472   0.33233   0.91461   0.00000  Uiso   1.00
H715   H     0.79357   0.32139   0.03846   0.00000  Uiso   1.00
H716   H     0.81261   0.18771   0.84870   0.00000  Uiso   1.00
H717   H     0.77184   0.47337   0.85665   0.00000  Uiso   1.00
H718   H     0.80198   0.33207   0.17575   0.00000  Uiso   1.00
H719   H     0.84213   0.05022   0.77562   0.00000  Uiso   1.00
H720   H     0.75617   0.65258   0.79238   0.00000  Uiso   1.00
H721   H     0.86934   0.50839   0.91452   0.00000  Uiso   1.00
H722   H     0.87228   0.50711   0.03836   0.00000  Uiso   1.00
H723   H     0.89132   0.37343   0.84860   0.00000  Uiso   1.00
H724   H     0.85055   0.65908   0.85656   0.00000  Uiso   1.00
H725   H     0.86586   0.48281   0.17567   0.00000  Uiso   1.00
H726   H     0.90601   0.20096   0.77553   0.00000  Uiso   1.00
H727   H     0.82005   0.80332   0.79230   0.00000  Uiso   1.00
O728   O     0.83451   0.40339   0.25718   0.00000  Uiso   1.00
O729   O     0.88719   0.03362   0.73221   0.00000  Uiso   1.00
O730   O     0.77441   0.82390   0.75421   0.00000  Uiso   1.00
N731   N     0.81661   0.36774   0.15874   0.00000  Uiso   1.00
N732   N     0.85415   0.10422   0.78464   0.00000  Uiso   1.00
N733   N     0.77378   0.66736   0.80030   0.00000  Uiso   1.00
N734   N     0.85098   0.44885   0.15870   0.00000  Uiso   1.00
N735   N     0.88852   0.18533   0.78460   0.00000  Uiso   1.00
N736   N     0.80815   0.74847   0.80026   0.00000  Uiso   1.00
