data_job_02624
_audit_creation_date              2018-12-19
_audit_creation_method            'Materials Studio'
_symmetry_space_group_name_H-M    'P1'
_symmetry_Int_Tables_number       1
_symmetry_cell_setting            triclinic
loop_
_symmetry_equiv_pos_as_xyz
  x,y,z
_cell_length_a                    41.5225
_cell_length_b                    23.1167
_cell_length_c                    9.2479
_cell_angle_alpha                 90.0000
_cell_angle_beta                  90.0000
_cell_angle_gamma                 90.0000
loop_
_atom_site_label
_atom_site_type_symbol
_atom_site_fract_x
_atom_site_fract_y
_atom_site_fract_z
_atom_site_U_iso_or_equiv
_atom_site_adp_type
_atom_site_occupancy
C1     C     0.30539   0.59625   0.47116   0.00000  Uiso   1.00
C2     C     0.26971   0.60785   0.49742   0.00000  Uiso   1.00
C3     C     0.25719   0.64968   0.58916   0.00000  Uiso   1.00
C4     C     0.22388   0.65343   0.59823   0.00000  Uiso   1.00
C5     C     0.17153   0.67702   0.65120   0.00000  Uiso   1.00
C6     C     0.31072   0.53256   0.50683   0.00000  Uiso   1.00
C7     C     0.33267   0.51110   0.60648   0.00000  Uiso   1.00
C8     C     0.33388   0.45146   0.62346   0.00000  Uiso   1.00
C9     C     0.34520   0.35816   0.69097   0.00000  Uiso   1.00
C10    C     0.31047   0.60190   0.30847   0.00000  Uiso   1.00
C11    C     0.33222   0.63874   0.24133   0.00000  Uiso   1.00
C12    C     0.33322   0.63748   0.09129   0.00000  Uiso   1.00
C13    C     0.34416   0.65185   0.85082   0.00000  Uiso   1.00
C14    C     0.26851   0.52850   0.32410   0.00000  Uiso   1.00
C15    C     0.24968   0.57104   0.41754   0.00000  Uiso   1.00
C16    C     0.21638   0.57473   0.42646   0.00000  Uiso   1.00
C17    C     0.20381   0.61656   0.51820   0.00000  Uiso   1.00
C18    C     0.29069   0.49576   0.42696   0.00000  Uiso   1.00
C19    C     0.29186   0.43614   0.44378   0.00000  Uiso   1.00
C20    C     0.31381   0.41459   0.54344   0.00000  Uiso   1.00
C21    C     0.29044   0.56511   0.22859   0.00000  Uiso   1.00
C22    C     0.29141   0.56378   0.07863   0.00000  Uiso   1.00
C23    C     0.31315   0.60061   0.01127   0.00000  Uiso   1.00
H24    H     0.32099   0.62489   0.53335   0.00000  Uiso   1.00
H25    H     0.27270   0.67815   0.65097   0.00000  Uiso   1.00
H26    H     0.34817   0.53958   0.66827   0.00000  Uiso   1.00
H27    H     0.34772   0.66721   0.30318   0.00000  Uiso   1.00
H28    H     0.21032   0.72096   0.74619   0.00000  Uiso   1.00
H29    H     0.36947   0.42878   0.78263   0.00000  Uiso   1.00
H30    H     0.36851   0.69790   0.01276   0.00000  Uiso   1.00
H31    H     0.25292   0.49984   0.26192   0.00000  Uiso   1.00
H32    H     0.20089   0.54624   0.36464   0.00000  Uiso   1.00
H33    H     0.27636   0.40767   0.38195   0.00000  Uiso   1.00
H34    H     0.27591   0.53530   0.01685   0.00000  Uiso   1.00
H35    H     0.15204   0.61389   0.51379   0.00000  Uiso   1.00
H36    H     0.31119   0.32171   0.55024   0.00000  Uiso   1.00
H37    H     0.31023   0.59083   0.78037   0.00000  Uiso   1.00
O38    O     0.14818   0.70019   0.70250   0.00000  Uiso   1.00
O39    O     0.35698   0.31686   0.75030   0.00000  Uiso   1.00
O40    O     0.35573   0.66995   0.74025   0.00000  Uiso   1.00
N41    N     0.20375   0.68940   0.67737   0.00000  Uiso   1.00
N42    N     0.35253   0.41623   0.71147   0.00000  Uiso   1.00
N43    N     0.35165   0.66782   0.99170   0.00000  Uiso   1.00
N44    N     0.17238   0.63179   0.55232   0.00000  Uiso   1.00
N45    N     0.32117   0.35862   0.58642   0.00000  Uiso   1.00
N46    N     0.32028   0.61021   0.86665   0.00000  Uiso   1.00
C47    C     0.30539   0.09625   0.97116   0.00000  Uiso   1.00
C48    C     0.26971   0.10785   0.99742   0.00000  Uiso   1.00
C49    C     0.25719   0.14968   0.08916   0.00000  Uiso   1.00
C50    C     0.22388   0.15343   0.09823   0.00000  Uiso   1.00
C51    C     0.17153   0.17702   0.15120   0.00000  Uiso   1.00
C52    C     0.31072   0.03256   0.00683   0.00000  Uiso   1.00
C53    C     0.33267   0.01110   0.10648   0.00000  Uiso   1.00
C54    C     0.33388   0.95146   0.12346   0.00000  Uiso   1.00
C55    C     0.34520   0.85816   0.19097   0.00000  Uiso   1.00
C56    C     0.31047   0.10190   0.80847   0.00000  Uiso   1.00
C57    C     0.33222   0.13874   0.74133   0.00000  Uiso   1.00
C58    C     0.33322   0.13748   0.59129   0.00000  Uiso   1.00
C59    C     0.34416   0.15185   0.35082   0.00000  Uiso   1.00
C60    C     0.26851   0.02850   0.82410   0.00000  Uiso   1.00
C61    C     0.24968   0.07104   0.91754   0.00000  Uiso   1.00
C62    C     0.21638   0.07473   0.92646   0.00000  Uiso   1.00
C63    C     0.20381   0.11656   0.01820   0.00000  Uiso   1.00
C64    C     0.29069   0.99576   0.92696   0.00000  Uiso   1.00
C65    C     0.29186   0.93614   0.94378   0.00000  Uiso   1.00
C66    C     0.31381   0.91459   0.04344   0.00000  Uiso   1.00
C67    C     0.29044   0.06511   0.72859   0.00000  Uiso   1.00
C68    C     0.29141   0.06378   0.57863   0.00000  Uiso   1.00
C69    C     0.31315   0.10061   0.51127   0.00000  Uiso   1.00
H70    H     0.32099   0.12489   0.03335   0.00000  Uiso   1.00
H71    H     0.27270   0.17815   0.15097   0.00000  Uiso   1.00
H72    H     0.34817   0.03958   0.16827   0.00000  Uiso   1.00
H73    H     0.34772   0.16721   0.80318   0.00000  Uiso   1.00
H74    H     0.21032   0.22096   0.24619   0.00000  Uiso   1.00
H75    H     0.36947   0.92878   0.28263   0.00000  Uiso   1.00
H76    H     0.36851   0.19790   0.51276   0.00000  Uiso   1.00
H77    H     0.25292   0.99984   0.76192   0.00000  Uiso   1.00
H78    H     0.20089   0.04624   0.86464   0.00000  Uiso   1.00
H79    H     0.27636   0.90767   0.88195   0.00000  Uiso   1.00
H80    H     0.27591   0.03530   0.51685   0.00000  Uiso   1.00
H81    H     0.15204   0.11389   0.01379   0.00000  Uiso   1.00
H82    H     0.31119   0.82171   0.05024   0.00000  Uiso   1.00
H83    H     0.31023   0.09083   0.28037   0.00000  Uiso   1.00
O84    O     0.14818   0.20019   0.20250   0.00000  Uiso   1.00
O85    O     0.35698   0.81686   0.25030   0.00000  Uiso   1.00
O86    O     0.35573   0.16995   0.24025   0.00000  Uiso   1.00
N87    N     0.20375   0.18940   0.17737   0.00000  Uiso   1.00
N88    N     0.35253   0.91623   0.21147   0.00000  Uiso   1.00
N89    N     0.35165   0.16782   0.49170   0.00000  Uiso   1.00
N90    N     0.17238   0.13179   0.05232   0.00000  Uiso   1.00
N91    N     0.32117   0.85862   0.08642   0.00000  Uiso   1.00
N92    N     0.32028   0.11021   0.36665   0.00000  Uiso   1.00
C93    C     0.80539   0.59625   0.97116   0.00000  Uiso   1.00
C94    C     0.76971   0.60785   0.99742   0.00000  Uiso   1.00
C95    C     0.75719   0.64968   0.08916   0.00000  Uiso   1.00
C96    C     0.72388   0.65343   0.09823   0.00000  Uiso   1.00
C97    C     0.67153   0.67702   0.15120   0.00000  Uiso   1.00
C98    C     0.81072   0.53256   0.00683   0.00000  Uiso   1.00
C99    C     0.83267   0.51110   0.10648   0.00000  Uiso   1.00
C100   C     0.83388   0.45146   0.12346   0.00000  Uiso   1.00
C101   C     0.84520   0.35816   0.19097   0.00000  Uiso   1.00
C102   C     0.81047   0.60190   0.80847   0.00000  Uiso   1.00
C103   C     0.83222   0.63874   0.74133   0.00000  Uiso   1.00
C104   C     0.83322   0.63748   0.59129   0.00000  Uiso   1.00
C105   C     0.84416   0.65185   0.35082   0.00000  Uiso   1.00
C106   C     0.76851   0.52850   0.82410   0.00000  Uiso   1.00
C107   C     0.74968   0.57104   0.91754   0.00000  Uiso   1.00
C108   C     0.71638   0.57473   0.92646   0.00000  Uiso   1.00
C109   C     0.70381   0.61656   0.01820   0.00000  Uiso   1.00
C110   C     0.79069   0.49576   0.92696   0.00000  Uiso   1.00
C111   C     0.79186   0.43614   0.94378   0.00000  Uiso   1.00
C112   C     0.81381   0.41459   0.04344   0.00000  Uiso   1.00
C113   C     0.79044   0.56511   0.72859   0.00000  Uiso   1.00
C114   C     0.79141   0.56378   0.57863   0.00000  Uiso   1.00
C115   C     0.81315   0.60061   0.51127   0.00000  Uiso   1.00
H116   H     0.82099   0.62489   0.03335   0.00000  Uiso   1.00
H117   H     0.77270   0.67815   0.15097   0.00000  Uiso   1.00
H118   H     0.84817   0.53958   0.16827   0.00000  Uiso   1.00
H119   H     0.84772   0.66721   0.80318   0.00000  Uiso   1.00
H120   H     0.71032   0.72096   0.24619   0.00000  Uiso   1.00
H121   H     0.86947   0.42878   0.28263   0.00000  Uiso   1.00
H122   H     0.86851   0.69790   0.51276   0.00000  Uiso   1.00
H123   H     0.75292   0.49984   0.76192   0.00000  Uiso   1.00
H124   H     0.70089   0.54624   0.86464   0.00000  Uiso   1.00
H125   H     0.77636   0.40767   0.88195   0.00000  Uiso   1.00
H126   H     0.77591   0.53530   0.51685   0.00000  Uiso   1.00
H127   H     0.65204   0.61389   0.01379   0.00000  Uiso   1.00
H128   H     0.81119   0.32171   0.05024   0.00000  Uiso   1.00
H129   H     0.81023   0.59083   0.28037   0.00000  Uiso   1.00
O130   O     0.64818   0.70019   0.20250   0.00000  Uiso   1.00
O131   O     0.85698   0.31686   0.25030   0.00000  Uiso   1.00
O132   O     0.85573   0.66995   0.24025   0.00000  Uiso   1.00
N133   N     0.70375   0.68940   0.17737   0.00000  Uiso   1.00
N134   N     0.85253   0.41623   0.21147   0.00000  Uiso   1.00
N135   N     0.85165   0.66782   0.49170   0.00000  Uiso   1.00
N136   N     0.67238   0.63179   0.05232   0.00000  Uiso   1.00
N137   N     0.82117   0.35862   0.08642   0.00000  Uiso   1.00
N138   N     0.82028   0.61021   0.36665   0.00000  Uiso   1.00
C139   C     0.80539   0.09625   0.47116   0.00000  Uiso   1.00
C140   C     0.76971   0.10785   0.49742   0.00000  Uiso   1.00
C141   C     0.75719   0.14968   0.58916   0.00000  Uiso   1.00
C142   C     0.72388   0.15343   0.59823   0.00000  Uiso   1.00
C143   C     0.67153   0.17702   0.65120   0.00000  Uiso   1.00
C144   C     0.81072   0.03256   0.50683   0.00000  Uiso   1.00
C145   C     0.83267   0.01110   0.60648   0.00000  Uiso   1.00
C146   C     0.83388   0.95146   0.62346   0.00000  Uiso   1.00
C147   C     0.84520   0.85816   0.69097   0.00000  Uiso   1.00
C148   C     0.81047   0.10190   0.30847   0.00000  Uiso   1.00
C149   C     0.83222   0.13874   0.24133   0.00000  Uiso   1.00
C150   C     0.83322   0.13748   0.09129   0.00000  Uiso   1.00
C151   C     0.84416   0.15185   0.85082   0.00000  Uiso   1.00
C152   C     0.76851   0.02850   0.32410   0.00000  Uiso   1.00
C153   C     0.74968   0.07104   0.41754   0.00000  Uiso   1.00
C154   C     0.71638   0.07473   0.42646   0.00000  Uiso   1.00
C155   C     0.70381   0.11656   0.51820   0.00000  Uiso   1.00
C156   C     0.79069   0.99576   0.42696   0.00000  Uiso   1.00
C157   C     0.79186   0.93614   0.44378   0.00000  Uiso   1.00
C158   C     0.81381   0.91459   0.54344   0.00000  Uiso   1.00
C159   C     0.79044   0.06511   0.22859   0.00000  Uiso   1.00
C160   C     0.79141   0.06378   0.07863   0.00000  Uiso   1.00
C161   C     0.81315   0.10061   0.01127   0.00000  Uiso   1.00
H162   H     0.82099   0.12489   0.53335   0.00000  Uiso   1.00
H163   H     0.77270   0.17815   0.65097   0.00000  Uiso   1.00
H164   H     0.84817   0.03958   0.66827   0.00000  Uiso   1.00
H165   H     0.84772   0.16721   0.30318   0.00000  Uiso   1.00
H166   H     0.71032   0.22096   0.74619   0.00000  Uiso   1.00
H167   H     0.86947   0.92878   0.78263   0.00000  Uiso   1.00
H168   H     0.86851   0.19790   0.01276   0.00000  Uiso   1.00
H169   H     0.75292   0.99984   0.26192   0.00000  Uiso   1.00
H170   H     0.70089   0.04624   0.36464   0.00000  Uiso   1.00
H171   H     0.77636   0.90767   0.38195   0.00000  Uiso   1.00
H172   H     0.77591   0.03530   0.01685   0.00000  Uiso   1.00
H173   H     0.65204   0.11389   0.51379   0.00000  Uiso   1.00
H174   H     0.81119   0.82171   0.55024   0.00000  Uiso   1.00
H175   H     0.81023   0.09083   0.78037   0.00000  Uiso   1.00
O176   O     0.64818   0.20019   0.70250   0.00000  Uiso   1.00
O177   O     0.85698   0.81686   0.75030   0.00000  Uiso   1.00
O178   O     0.85573   0.16995   0.74025   0.00000  Uiso   1.00
N179   N     0.70375   0.18940   0.67737   0.00000  Uiso   1.00
N180   N     0.85253   0.91623   0.71147   0.00000  Uiso   1.00
N181   N     0.85165   0.16782   0.99170   0.00000  Uiso   1.00
N182   N     0.67238   0.13179   0.55232   0.00000  Uiso   1.00
N183   N     0.82117   0.85862   0.58642   0.00000  Uiso   1.00
N184   N     0.82028   0.11021   0.86665   0.00000  Uiso   1.00
C185   C     0.69461   0.40375   0.47116   0.00000  Uiso   1.00
C186   C     0.73029   0.39215   0.49742   0.00000  Uiso   1.00
C187   C     0.74281   0.35032   0.58916   0.00000  Uiso   1.00
C188   C     0.77612   0.34657   0.59823   0.00000  Uiso   1.00
C189   C     0.82847   0.32298   0.65120   0.00000  Uiso   1.00
C190   C     0.68928   0.46744   0.50683   0.00000  Uiso   1.00
C191   C     0.66733   0.48890   0.60648   0.00000  Uiso   1.00
C192   C     0.66612   0.54854   0.62346   0.00000  Uiso   1.00
C193   C     0.65480   0.64184   0.69097   0.00000  Uiso   1.00
C194   C     0.68953   0.39810   0.30847   0.00000  Uiso   1.00
C195   C     0.66778   0.36126   0.24133   0.00000  Uiso   1.00
C196   C     0.66678   0.36252   0.09129   0.00000  Uiso   1.00
C197   C     0.65584   0.34815   0.85082   0.00000  Uiso   1.00
C198   C     0.73149   0.47150   0.32410   0.00000  Uiso   1.00
C199   C     0.75032   0.42896   0.41754   0.00000  Uiso   1.00
C200   C     0.78362   0.42527   0.42646   0.00000  Uiso   1.00
C201   C     0.79619   0.38344   0.51820   0.00000  Uiso   1.00
C202   C     0.70931   0.50424   0.42696   0.00000  Uiso   1.00
C203   C     0.70814   0.56386   0.44378   0.00000  Uiso   1.00
C204   C     0.68619   0.58541   0.54344   0.00000  Uiso   1.00
C205   C     0.70956   0.43489   0.22859   0.00000  Uiso   1.00
C206   C     0.70859   0.43622   0.07863   0.00000  Uiso   1.00
C207   C     0.68685   0.39939   0.01127   0.00000  Uiso   1.00
H208   H     0.67901   0.37511   0.53335   0.00000  Uiso   1.00
H209   H     0.72730   0.32185   0.65097   0.00000  Uiso   1.00
H210   H     0.65183   0.46042   0.66827   0.00000  Uiso   1.00
H211   H     0.65228   0.33279   0.30318   0.00000  Uiso   1.00
H212   H     0.78968   0.27904   0.74619   0.00000  Uiso   1.00
H213   H     0.63053   0.57122   0.78263   0.00000  Uiso   1.00
H214   H     0.63149   0.30210   0.01276   0.00000  Uiso   1.00
H215   H     0.74708   0.50016   0.26192   0.00000  Uiso   1.00
H216   H     0.79911   0.45376   0.36464   0.00000  Uiso   1.00
H217   H     0.72364   0.59233   0.38195   0.00000  Uiso   1.00
H218   H     0.72409   0.46470   0.01685   0.00000  Uiso   1.00
H219   H     0.84796   0.38611   0.51379   0.00000  Uiso   1.00
H220   H     0.68881   0.67829   0.55024   0.00000  Uiso   1.00
H221   H     0.68977   0.40917   0.78037   0.00000  Uiso   1.00
O222   O     0.85182   0.29981   0.70250   0.00000  Uiso   1.00
O223   O     0.64302   0.68314   0.75030   0.00000  Uiso   1.00
O224   O     0.64427   0.33005   0.74025   0.00000  Uiso   1.00
N225   N     0.79625   0.31060   0.67737   0.00000  Uiso   1.00
N226   N     0.64747   0.58377   0.71147   0.00000  Uiso   1.00
N227   N     0.64835   0.33218   0.99170   0.00000  Uiso   1.00
N228   N     0.82762   0.36821   0.55232   0.00000  Uiso   1.00
N229   N     0.67883   0.64138   0.58642   0.00000  Uiso   1.00
N230   N     0.67972   0.38979   0.86665   0.00000  Uiso   1.00
C231   C     0.69461   0.90375   0.97116   0.00000  Uiso   1.00
C232   C     0.73029   0.89215   0.99742   0.00000  Uiso   1.00
C233   C     0.74281   0.85032   0.08916   0.00000  Uiso   1.00
C234   C     0.77612   0.84657   0.09823   0.00000  Uiso   1.00
C235   C     0.82847   0.82298   0.15120   0.00000  Uiso   1.00
C236   C     0.68928   0.96744   0.00683   0.00000  Uiso   1.00
C237   C     0.66733   0.98890   0.10648   0.00000  Uiso   1.00
C238   C     0.66612   0.04854   0.12346   0.00000  Uiso   1.00
C239   C     0.65480   0.14184   0.19097   0.00000  Uiso   1.00
C240   C     0.68953   0.89810   0.80847   0.00000  Uiso   1.00
C241   C     0.66778   0.86126   0.74133   0.00000  Uiso   1.00
C242   C     0.66678   0.86252   0.59129   0.00000  Uiso   1.00
C243   C     0.65584   0.84815   0.35082   0.00000  Uiso   1.00
C244   C     0.73149   0.97150   0.82410   0.00000  Uiso   1.00
C245   C     0.75032   0.92896   0.91754   0.00000  Uiso   1.00
C246   C     0.78362   0.92527   0.92646   0.00000  Uiso   1.00
C247   C     0.79619   0.88344   0.01820   0.00000  Uiso   1.00
C248   C     0.70931   0.00424   0.92696   0.00000  Uiso   1.00
C249   C     0.70814   0.06386   0.94378   0.00000  Uiso   1.00
C250   C     0.68619   0.08541   0.04344   0.00000  Uiso   1.00
C251   C     0.70956   0.93489   0.72859   0.00000  Uiso   1.00
C252   C     0.70859   0.93622   0.57863   0.00000  Uiso   1.00
C253   C     0.68685   0.89939   0.51127   0.00000  Uiso   1.00
H254   H     0.67901   0.87511   0.03335   0.00000  Uiso   1.00
H255   H     0.72730   0.82185   0.15097   0.00000  Uiso   1.00
H256   H     0.65183   0.96042   0.16827   0.00000  Uiso   1.00
H257   H     0.65228   0.83279   0.80318   0.00000  Uiso   1.00
H258   H     0.78968   0.77904   0.24619   0.00000  Uiso   1.00
H259   H     0.63053   0.07122   0.28263   0.00000  Uiso   1.00
H260   H     0.63149   0.80210   0.51276   0.00000  Uiso   1.00
H261   H     0.74708   0.00016   0.76192   0.00000  Uiso   1.00
H262   H     0.79911   0.95376   0.86464   0.00000  Uiso   1.00
H263   H     0.72364   0.09233   0.88195   0.00000  Uiso   1.00
H264   H     0.72409   0.96470   0.51685   0.00000  Uiso   1.00
H265   H     0.84796   0.88611   0.01379   0.00000  Uiso   1.00
H266   H     0.68881   0.17829   0.05024   0.00000  Uiso   1.00
H267   H     0.68977   0.90917   0.28037   0.00000  Uiso   1.00
O268   O     0.85182   0.79981   0.20250   0.00000  Uiso   1.00
O269   O     0.64302   0.18314   0.25030   0.00000  Uiso   1.00
O270   O     0.64427   0.83005   0.24025   0.00000  Uiso   1.00
N271   N     0.79625   0.81060   0.17737   0.00000  Uiso   1.00
N272   N     0.64747   0.08377   0.21147   0.00000  Uiso   1.00
N273   N     0.64835   0.83218   0.49170   0.00000  Uiso   1.00
N274   N     0.82762   0.86821   0.05232   0.00000  Uiso   1.00
N275   N     0.67883   0.14138   0.08642   0.00000  Uiso   1.00
N276   N     0.67972   0.88979   0.36665   0.00000  Uiso   1.00
C277   C     0.19461   0.40375   0.97116   0.00000  Uiso   1.00
C278   C     0.23029   0.39215   0.99742   0.00000  Uiso   1.00
C279   C     0.24281   0.35032   0.08916   0.00000  Uiso   1.00
C280   C     0.27612   0.34657   0.09823   0.00000  Uiso   1.00
C281   C     0.32847   0.32298   0.15120   0.00000  Uiso   1.00
C282   C     0.18928   0.46744   0.00683   0.00000  Uiso   1.00
C283   C     0.16733   0.48890   0.10648   0.00000  Uiso   1.00
C284   C     0.16612   0.54854   0.12346   0.00000  Uiso   1.00
C285   C     0.15480   0.64184   0.19097   0.00000  Uiso   1.00
C286   C     0.18953   0.39810   0.80847   0.00000  Uiso   1.00
C287   C     0.16778   0.36126   0.74133   0.00000  Uiso   1.00
C288   C     0.16678   0.36252   0.59129   0.00000  Uiso   1.00
C289   C     0.15584   0.34815   0.35082   0.00000  Uiso   1.00
C290   C     0.23149   0.47150   0.82410   0.00000  Uiso   1.00
C291   C     0.25032   0.42896   0.91754   0.00000  Uiso   1.00
C292   C     0.28362   0.42527   0.92646   0.00000  Uiso   1.00
C293   C     0.29619   0.38344   0.01820   0.00000  Uiso   1.00
C294   C     0.20931   0.50424   0.92696   0.00000  Uiso   1.00
C295   C     0.20814   0.56386   0.94378   0.00000  Uiso   1.00
C296   C     0.18619   0.58541   0.04344   0.00000  Uiso   1.00
C297   C     0.20956   0.43489   0.72859   0.00000  Uiso   1.00
C298   C     0.20859   0.43622   0.57863   0.00000  Uiso   1.00
C299   C     0.18685   0.39939   0.51127   0.00000  Uiso   1.00
H300   H     0.17901   0.37511   0.03335   0.00000  Uiso   1.00
H301   H     0.22730   0.32185   0.15097   0.00000  Uiso   1.00
H302   H     0.15183   0.46042   0.16827   0.00000  Uiso   1.00
H303   H     0.15228   0.33279   0.80318   0.00000  Uiso   1.00
H304   H     0.28968   0.27904   0.24619   0.00000  Uiso   1.00
H305   H     0.13053   0.57122   0.28263   0.00000  Uiso   1.00
H306   H     0.13149   0.30210   0.51276   0.00000  Uiso   1.00
H307   H     0.24708   0.50016   0.76192   0.00000  Uiso   1.00
H308   H     0.29911   0.45376   0.86464   0.00000  Uiso   1.00
H309   H     0.22364   0.59233   0.88195   0.00000  Uiso   1.00
H310   H     0.22409   0.46470   0.51685   0.00000  Uiso   1.00
H311   H     0.34796   0.38611   0.01379   0.00000  Uiso   1.00
H312   H     0.18881   0.67829   0.05024   0.00000  Uiso   1.00
H313   H     0.18977   0.40917   0.28037   0.00000  Uiso   1.00
O314   O     0.35182   0.29981   0.20250   0.00000  Uiso   1.00
O315   O     0.14302   0.68314   0.25030   0.00000  Uiso   1.00
O316   O     0.14427   0.33005   0.24025   0.00000  Uiso   1.00
N317   N     0.29625   0.31060   0.17737   0.00000  Uiso   1.00
N318   N     0.14747   0.58377   0.21147   0.00000  Uiso   1.00
N319   N     0.14835   0.33218   0.49170   0.00000  Uiso   1.00
N320   N     0.32762   0.36821   0.05232   0.00000  Uiso   1.00
N321   N     0.17883   0.64138   0.08642   0.00000  Uiso   1.00
N322   N     0.17972   0.38979   0.36665   0.00000  Uiso   1.00
C323   C     0.19461   0.90375   0.47116   0.00000  Uiso   1.00
C324   C     0.23029   0.89215   0.49742   0.00000  Uiso   1.00
C325   C     0.24281   0.85032   0.58916   0.00000  Uiso   1.00
C326   C     0.27612   0.84657   0.59823   0.00000  Uiso   1.00
C327   C     0.32847   0.82298   0.65120   0.00000  Uiso   1.00
C328   C     0.18928   0.96744   0.50683   0.00000  Uiso   1.00
C329   C     0.16733   0.98890   0.60648   0.00000  Uiso   1.00
C330   C     0.16612   0.04854   0.62346   0.00000  Uiso   1.00
C331   C     0.15480   0.14184   0.69097   0.00000  Uiso   1.00
C332   C     0.18953   0.89810   0.30847   0.00000  Uiso   1.00
C333   C     0.16778   0.86126   0.24133   0.00000  Uiso   1.00
C334   C     0.16678   0.86252   0.09129   0.00000  Uiso   1.00
C335   C     0.15584   0.84815   0.85082   0.00000  Uiso   1.00
C336   C     0.23149   0.97150   0.32410   0.00000  Uiso   1.00
C337   C     0.25032   0.92896   0.41754   0.00000  Uiso   1.00
C338   C     0.28362   0.92527   0.42646   0.00000  Uiso   1.00
C339   C     0.29619   0.88344   0.51820   0.00000  Uiso   1.00
C340   C     0.20931   0.00424   0.42696   0.00000  Uiso   1.00
C341   C     0.20814   0.06386   0.44378   0.00000  Uiso   1.00
C342   C     0.18619   0.08541   0.54344   0.00000  Uiso   1.00
C343   C     0.20956   0.93489   0.22859   0.00000  Uiso   1.00
C344   C     0.20859   0.93622   0.07863   0.00000  Uiso   1.00
C345   C     0.18685   0.89939   0.01127   0.00000  Uiso   1.00
H346   H     0.17901   0.87511   0.53335   0.00000  Uiso   1.00
H347   H     0.22730   0.82185   0.65097   0.00000  Uiso   1.00
H348   H     0.15183   0.96042   0.66827   0.00000  Uiso   1.00
H349   H     0.15228   0.83279   0.30318   0.00000  Uiso   1.00
H350   H     0.28968   0.77904   0.74619   0.00000  Uiso   1.00
H351   H     0.13053   0.07122   0.78263   0.00000  Uiso   1.00
H352   H     0.13149   0.80210   0.01276   0.00000  Uiso   1.00
H353   H     0.24708   0.00016   0.26192   0.00000  Uiso   1.00
H354   H     0.29911   0.95376   0.36464   0.00000  Uiso   1.00
H355   H     0.22364   0.09233   0.38195   0.00000  Uiso   1.00
H356   H     0.22409   0.96470   0.01685   0.00000  Uiso   1.00
H357   H     0.34796   0.88611   0.51379   0.00000  Uiso   1.00
H358   H     0.18881   0.17829   0.55024   0.00000  Uiso   1.00
H359   H     0.18977   0.90917   0.78037   0.00000  Uiso   1.00
O360   O     0.35182   0.79981   0.70250   0.00000  Uiso   1.00
O361   O     0.14302   0.18314   0.75030   0.00000  Uiso   1.00
O362   O     0.14427   0.83005   0.74025   0.00000  Uiso   1.00
N363   N     0.29625   0.81060   0.67737   0.00000  Uiso   1.00
N364   N     0.14747   0.08377   0.71147   0.00000  Uiso   1.00
N365   N     0.14835   0.83218   0.99170   0.00000  Uiso   1.00
N366   N     0.32762   0.86821   0.55232   0.00000  Uiso   1.00
N367   N     0.17883   0.14138   0.58642   0.00000  Uiso   1.00
N368   N     0.17972   0.88979   0.86665   0.00000  Uiso   1.00
C369   C     0.55539   0.65375   0.72116   0.00000  Uiso   1.00
C370   C     0.51971   0.64215   0.74742   0.00000  Uiso   1.00
C371   C     0.50719   0.60032   0.83916   0.00000  Uiso   1.00
C372   C     0.47388   0.59657   0.84823   0.00000  Uiso   1.00
C373   C     0.42153   0.57298   0.90120   0.00000  Uiso   1.00
C374   C     0.56072   0.71744   0.75683   0.00000  Uiso   1.00
C375   C     0.58267   0.73890   0.85648   0.00000  Uiso   1.00
C376   C     0.58388   0.79854   0.87346   0.00000  Uiso   1.00
C377   C     0.59520   0.89184   0.94097   0.00000  Uiso   1.00
C378   C     0.56047   0.64810   0.55847   0.00000  Uiso   1.00
C379   C     0.58222   0.61126   0.49133   0.00000  Uiso   1.00
C380   C     0.58322   0.61252   0.34129   0.00000  Uiso   1.00
C381   C     0.59416   0.59815   0.10082   0.00000  Uiso   1.00
C382   C     0.51851   0.72150   0.57410   0.00000  Uiso   1.00
C383   C     0.49968   0.67896   0.66754   0.00000  Uiso   1.00
C384   C     0.46638   0.67527   0.67646   0.00000  Uiso   1.00
C385   C     0.45381   0.63344   0.76820   0.00000  Uiso   1.00
C386   C     0.54069   0.75424   0.67696   0.00000  Uiso   1.00
C387   C     0.54186   0.81386   0.69378   0.00000  Uiso   1.00
C388   C     0.56381   0.83541   0.79344   0.00000  Uiso   1.00
C389   C     0.54044   0.68489   0.47859   0.00000  Uiso   1.00
C390   C     0.54141   0.68622   0.32863   0.00000  Uiso   1.00
C391   C     0.56315   0.64939   0.26127   0.00000  Uiso   1.00
H392   H     0.57099   0.62511   0.78335   0.00000  Uiso   1.00
H393   H     0.52270   0.57185   0.90097   0.00000  Uiso   1.00
H394   H     0.59817   0.71042   0.91827   0.00000  Uiso   1.00
H395   H     0.59772   0.58279   0.55318   0.00000  Uiso   1.00
H396   H     0.46032   0.52904   0.99619   0.00000  Uiso   1.00
H397   H     0.61947   0.82122   0.03263   0.00000  Uiso   1.00
H398   H     0.61851   0.55210   0.26276   0.00000  Uiso   1.00
H399   H     0.50292   0.75016   0.51192   0.00000  Uiso   1.00
H400   H     0.45089   0.70376   0.61464   0.00000  Uiso   1.00
H401   H     0.52636   0.84233   0.63195   0.00000  Uiso   1.00
H402   H     0.52591   0.71470   0.26685   0.00000  Uiso   1.00
H403   H     0.40204   0.63611   0.76379   0.00000  Uiso   1.00
H404   H     0.56119   0.92829   0.80024   0.00000  Uiso   1.00
H405   H     0.56023   0.65917   0.03037   0.00000  Uiso   1.00
O406   O     0.39818   0.54981   0.95250   0.00000  Uiso   1.00
O407   O     0.60698   0.93314   0.00030   0.00000  Uiso   1.00
O408   O     0.60573   0.58005   0.99025   0.00000  Uiso   1.00
N409   N     0.45375   0.56060   0.92737   0.00000  Uiso   1.00
N410   N     0.60253   0.83377   0.96147   0.00000  Uiso   1.00
N411   N     0.60165   0.58218   0.24170   0.00000  Uiso   1.00
N412   N     0.42238   0.61821   0.80232   0.00000  Uiso   1.00
N413   N     0.57117   0.89138   0.83642   0.00000  Uiso   1.00
N414   N     0.57028   0.63979   0.11665   0.00000  Uiso   1.00
C415   C     0.55539   0.15375   0.22116   0.00000  Uiso   1.00
C416   C     0.51971   0.14215   0.24742   0.00000  Uiso   1.00
C417   C     0.50719   0.10032   0.33916   0.00000  Uiso   1.00
C418   C     0.47388   0.09657   0.34823   0.00000  Uiso   1.00
C419   C     0.42153   0.07298   0.40120   0.00000  Uiso   1.00
C420   C     0.56072   0.21744   0.25683   0.00000  Uiso   1.00
C421   C     0.58267   0.23890   0.35648   0.00000  Uiso   1.00
C422   C     0.58388   0.29854   0.37346   0.00000  Uiso   1.00
C423   C     0.59520   0.39184   0.44097   0.00000  Uiso   1.00
C424   C     0.56047   0.14810   0.05847   0.00000  Uiso   1.00
C425   C     0.58222   0.11126   0.99133   0.00000  Uiso   1.00
C426   C     0.58322   0.11252   0.84129   0.00000  Uiso   1.00
C427   C     0.59416   0.09815   0.60082   0.00000  Uiso   1.00
C428   C     0.51851   0.22150   0.07410   0.00000  Uiso   1.00
C429   C     0.49968   0.17896   0.16754   0.00000  Uiso   1.00
C430   C     0.46638   0.17527   0.17646   0.00000  Uiso   1.00
C431   C     0.45381   0.13344   0.26820   0.00000  Uiso   1.00
C432   C     0.54069   0.25424   0.17696   0.00000  Uiso   1.00
C433   C     0.54186   0.31386   0.19378   0.00000  Uiso   1.00
C434   C     0.56381   0.33541   0.29344   0.00000  Uiso   1.00
C435   C     0.54044   0.18489   0.97859   0.00000  Uiso   1.00
C436   C     0.54141   0.18622   0.82863   0.00000  Uiso   1.00
C437   C     0.56315   0.14939   0.76127   0.00000  Uiso   1.00
H438   H     0.57099   0.12511   0.28335   0.00000  Uiso   1.00
H439   H     0.52270   0.07185   0.40097   0.00000  Uiso   1.00
H440   H     0.59817   0.21042   0.41827   0.00000  Uiso   1.00
H441   H     0.59772   0.08279   0.05318   0.00000  Uiso   1.00
H442   H     0.46032   0.02904   0.49619   0.00000  Uiso   1.00
H443   H     0.61947   0.32122   0.53263   0.00000  Uiso   1.00
H444   H     0.61851   0.05210   0.76276   0.00000  Uiso   1.00
H445   H     0.50292   0.25016   0.01192   0.00000  Uiso   1.00
H446   H     0.45089   0.20376   0.11464   0.00000  Uiso   1.00
H447   H     0.52636   0.34233   0.13195   0.00000  Uiso   1.00
H448   H     0.52591   0.21470   0.76685   0.00000  Uiso   1.00
H449   H     0.40204   0.13611   0.26379   0.00000  Uiso   1.00
H450   H     0.56119   0.42829   0.30024   0.00000  Uiso   1.00
H451   H     0.56023   0.15917   0.53037   0.00000  Uiso   1.00
O452   O     0.39818   0.04981   0.45250   0.00000  Uiso   1.00
O453   O     0.60698   0.43314   0.50030   0.00000  Uiso   1.00
O454   O     0.60573   0.08005   0.49025   0.00000  Uiso   1.00
N455   N     0.45375   0.06060   0.42737   0.00000  Uiso   1.00
N456   N     0.60253   0.33377   0.46147   0.00000  Uiso   1.00
N457   N     0.60165   0.08218   0.74170   0.00000  Uiso   1.00
N458   N     0.42238   0.11821   0.30232   0.00000  Uiso   1.00
N459   N     0.57117   0.39138   0.33642   0.00000  Uiso   1.00
N460   N     0.57028   0.13979   0.61665   0.00000  Uiso   1.00
C461   C     0.05539   0.65375   0.22116   0.00000  Uiso   1.00
C462   C     0.01971   0.64215   0.24742   0.00000  Uiso   1.00
C463   C     0.00719   0.60032   0.33916   0.00000  Uiso   1.00
C464   C     0.97388   0.59657   0.34823   0.00000  Uiso   1.00
C465   C     0.92153   0.57298   0.40120   0.00000  Uiso   1.00
C466   C     0.06072   0.71744   0.25683   0.00000  Uiso   1.00
C467   C     0.08267   0.73890   0.35648   0.00000  Uiso   1.00
C468   C     0.08388   0.79854   0.37346   0.00000  Uiso   1.00
C469   C     0.09520   0.89184   0.44097   0.00000  Uiso   1.00
C470   C     0.06047   0.64810   0.05847   0.00000  Uiso   1.00
C471   C     0.08222   0.61126   0.99133   0.00000  Uiso   1.00
C472   C     0.08322   0.61252   0.84129   0.00000  Uiso   1.00
C473   C     0.09416   0.59815   0.60082   0.00000  Uiso   1.00
C474   C     0.01851   0.72150   0.07410   0.00000  Uiso   1.00
C475   C     0.99968   0.67896   0.16754   0.00000  Uiso   1.00
C476   C     0.96638   0.67527   0.17646   0.00000  Uiso   1.00
C477   C     0.95381   0.63344   0.26820   0.00000  Uiso   1.00
C478   C     0.04069   0.75424   0.17696   0.00000  Uiso   1.00
C479   C     0.04186   0.81386   0.19378   0.00000  Uiso   1.00
C480   C     0.06381   0.83541   0.29344   0.00000  Uiso   1.00
C481   C     0.04044   0.68489   0.97859   0.00000  Uiso   1.00
C482   C     0.04141   0.68622   0.82863   0.00000  Uiso   1.00
C483   C     0.06315   0.64939   0.76127   0.00000  Uiso   1.00
H484   H     0.07099   0.62511   0.28335   0.00000  Uiso   1.00
H485   H     0.02270   0.57185   0.40097   0.00000  Uiso   1.00
H486   H     0.09817   0.71042   0.41827   0.00000  Uiso   1.00
H487   H     0.09772   0.58279   0.05318   0.00000  Uiso   1.00
H488   H     0.96032   0.52904   0.49619   0.00000  Uiso   1.00
H489   H     0.11947   0.82122   0.53263   0.00000  Uiso   1.00
H490   H     0.11851   0.55210   0.76276   0.00000  Uiso   1.00
H491   H     0.00292   0.75016   0.01192   0.00000  Uiso   1.00
H492   H     0.95089   0.70376   0.11464   0.00000  Uiso   1.00
H493   H     0.02636   0.84233   0.13195   0.00000  Uiso   1.00
H494   H     0.02591   0.71470   0.76685   0.00000  Uiso   1.00
H495   H     0.90204   0.63611   0.26379   0.00000  Uiso   1.00
H496   H     0.06119   0.92829   0.30024   0.00000  Uiso   1.00
H497   H     0.06023   0.65917   0.53037   0.00000  Uiso   1.00
O498   O     0.89818   0.54981   0.45250   0.00000  Uiso   1.00
O499   O     0.10698   0.93314   0.50030   0.00000  Uiso   1.00
O500   O     0.10573   0.58005   0.49025   0.00000  Uiso   1.00
N501   N     0.95375   0.56060   0.42737   0.00000  Uiso   1.00
N502   N     0.10253   0.83377   0.46147   0.00000  Uiso   1.00
N503   N     0.10165   0.58218   0.74170   0.00000  Uiso   1.00
N504   N     0.92238   0.61821   0.30232   0.00000  Uiso   1.00
N505   N     0.07117   0.89138   0.33642   0.00000  Uiso   1.00
N506   N     0.07028   0.63979   0.61665   0.00000  Uiso   1.00
C507   C     0.05539   0.15375   0.72116   0.00000  Uiso   1.00
C508   C     0.01971   0.14215   0.74742   0.00000  Uiso   1.00
C509   C     0.00719   0.10032   0.83916   0.00000  Uiso   1.00
C510   C     0.97388   0.09657   0.84823   0.00000  Uiso   1.00
C511   C     0.92153   0.07298   0.90120   0.00000  Uiso   1.00
C512   C     0.06072   0.21744   0.75683   0.00000  Uiso   1.00
C513   C     0.08267   0.23890   0.85648   0.00000  Uiso   1.00
C514   C     0.08388   0.29854   0.87346   0.00000  Uiso   1.00
C515   C     0.09520   0.39184   0.94097   0.00000  Uiso   1.00
C516   C     0.06047   0.14810   0.55847   0.00000  Uiso   1.00
C517   C     0.08222   0.11126   0.49133   0.00000  Uiso   1.00
C518   C     0.08322   0.11252   0.34129   0.00000  Uiso   1.00
C519   C     0.09416   0.09815   0.10082   0.00000  Uiso   1.00
C520   C     0.01851   0.22150   0.57410   0.00000  Uiso   1.00
C521   C     0.99968   0.17896   0.66754   0.00000  Uiso   1.00
C522   C     0.96638   0.17527   0.67646   0.00000  Uiso   1.00
C523   C     0.95381   0.13344   0.76820   0.00000  Uiso   1.00
C524   C     0.04069   0.25424   0.67696   0.00000  Uiso   1.00
C525   C     0.04186   0.31386   0.69378   0.00000  Uiso   1.00
C526   C     0.06381   0.33541   0.79344   0.00000  Uiso   1.00
C527   C     0.04044   0.18489   0.47859   0.00000  Uiso   1.00
C528   C     0.04141   0.18622   0.32863   0.00000  Uiso   1.00
C529   C     0.06315   0.14939   0.26127   0.00000  Uiso   1.00
H530   H     0.07099   0.12511   0.78335   0.00000  Uiso   1.00
H531   H     0.02270   0.07185   0.90097   0.00000  Uiso   1.00
H532   H     0.09817   0.21042   0.91827   0.00000  Uiso   1.00
H533   H     0.09772   0.08279   0.55318   0.00000  Uiso   1.00
H534   H     0.96032   0.02904   0.99619   0.00000  Uiso   1.00
H535   H     0.11947   0.32122   0.03263   0.00000  Uiso   1.00
H536   H     0.11851   0.05210   0.26276   0.00000  Uiso   1.00
H537   H     0.00292   0.25016   0.51192   0.00000  Uiso   1.00
H538   H     0.95089   0.20376   0.61464   0.00000  Uiso   1.00
H539   H     0.02636   0.34233   0.63195   0.00000  Uiso   1.00
H540   H     0.02591   0.21470   0.26685   0.00000  Uiso   1.00
H541   H     0.90204   0.13611   0.76379   0.00000  Uiso   1.00
H542   H     0.06119   0.42829   0.80024   0.00000  Uiso   1.00
H543   H     0.06023   0.15917   0.03037   0.00000  Uiso   1.00
O544   O     0.89818   0.04981   0.95250   0.00000  Uiso   1.00
O545   O     0.10698   0.43314   0.00030   0.00000  Uiso   1.00
O546   O     0.10573   0.08005   0.99025   0.00000  Uiso   1.00
N547   N     0.95375   0.06060   0.92737   0.00000  Uiso   1.00
N548   N     0.10253   0.33377   0.96147   0.00000  Uiso   1.00
N549   N     0.10165   0.08218   0.24170   0.00000  Uiso   1.00
N550   N     0.92238   0.11821   0.80232   0.00000  Uiso   1.00
N551   N     0.07117   0.39138   0.83642   0.00000  Uiso   1.00
N552   N     0.07028   0.13979   0.11665   0.00000  Uiso   1.00
C553   C     0.94461   0.84625   0.72116   0.00000  Uiso   1.00
C554   C     0.98029   0.85785   0.74742   0.00000  Uiso   1.00
C555   C     0.99281   0.89968   0.83916   0.00000  Uiso   1.00
C556   C     0.02612   0.90343   0.84823   0.00000  Uiso   1.00
C557   C     0.07847   0.92702   0.90120   0.00000  Uiso   1.00
C558   C     0.93928   0.78256   0.75683   0.00000  Uiso   1.00
C559   C     0.91733   0.76110   0.85648   0.00000  Uiso   1.00
C560   C     0.91612   0.70146   0.87346   0.00000  Uiso   1.00
C561   C     0.90480   0.60816   0.94097   0.00000  Uiso   1.00
C562   C     0.93953   0.85190   0.55847   0.00000  Uiso   1.00
C563   C     0.91778   0.88874   0.49133   0.00000  Uiso   1.00
C564   C     0.91678   0.88748   0.34129   0.00000  Uiso   1.00
C565   C     0.90584   0.90185   0.10082   0.00000  Uiso   1.00
C566   C     0.98149   0.77850   0.57410   0.00000  Uiso   1.00
C567   C     0.00032   0.82104   0.66754   0.00000  Uiso   1.00
C568   C     0.03362   0.82473   0.67646   0.00000  Uiso   1.00
C569   C     0.04619   0.86656   0.76820   0.00000  Uiso   1.00
C570   C     0.95931   0.74576   0.67696   0.00000  Uiso   1.00
C571   C     0.95814   0.68614   0.69378   0.00000  Uiso   1.00
C572   C     0.93619   0.66459   0.79344   0.00000  Uiso   1.00
C573   C     0.95956   0.81511   0.47859   0.00000  Uiso   1.00
C574   C     0.95859   0.81378   0.32863   0.00000  Uiso   1.00
C575   C     0.93685   0.85061   0.26127   0.00000  Uiso   1.00
H576   H     0.92901   0.87489   0.78335   0.00000  Uiso   1.00
H577   H     0.97730   0.92815   0.90097   0.00000  Uiso   1.00
H578   H     0.90183   0.78958   0.91827   0.00000  Uiso   1.00
H579   H     0.90228   0.91721   0.55318   0.00000  Uiso   1.00
H580   H     0.03968   0.97096   0.99619   0.00000  Uiso   1.00
H581   H     0.88053   0.67878   0.03263   0.00000  Uiso   1.00
H582   H     0.88149   0.94790   0.26276   0.00000  Uiso   1.00
H583   H     0.99708   0.74984   0.51192   0.00000  Uiso   1.00
H584   H     0.04911   0.79624   0.61464   0.00000  Uiso   1.00
H585   H     0.97364   0.65767   0.63195   0.00000  Uiso   1.00
H586   H     0.97409   0.78530   0.26685   0.00000  Uiso   1.00
H587   H     0.09796   0.86389   0.76379   0.00000  Uiso   1.00
H588   H     0.93881   0.57171   0.80024   0.00000  Uiso   1.00
H589   H     0.93977   0.84083   0.03037   0.00000  Uiso   1.00
O590   O     0.10182   0.95019   0.95250   0.00000  Uiso   1.00
O591   O     0.89302   0.56686   0.00030   0.00000  Uiso   1.00
O592   O     0.89427   0.91995   0.99025   0.00000  Uiso   1.00
N593   N     0.04625   0.93940   0.92737   0.00000  Uiso   1.00
N594   N     0.89747   0.66623   0.96147   0.00000  Uiso   1.00
N595   N     0.89835   0.91782   0.24170   0.00000  Uiso   1.00
N596   N     0.07762   0.88179   0.80232   0.00000  Uiso   1.00
N597   N     0.92883   0.60862   0.83642   0.00000  Uiso   1.00
N598   N     0.92972   0.86021   0.11665   0.00000  Uiso   1.00
C599   C     0.94461   0.34625   0.22116   0.00000  Uiso   1.00
C600   C     0.98029   0.35785   0.24742   0.00000  Uiso   1.00
C601   C     0.99281   0.39968   0.33916   0.00000  Uiso   1.00
C602   C     0.02612   0.40343   0.34823   0.00000  Uiso   1.00
C603   C     0.07847   0.42702   0.40120   0.00000  Uiso   1.00
C604   C     0.93928   0.28256   0.25683   0.00000  Uiso   1.00
C605   C     0.91733   0.26110   0.35648   0.00000  Uiso   1.00
C606   C     0.91612   0.20146   0.37346   0.00000  Uiso   1.00
C607   C     0.90480   0.10816   0.44097   0.00000  Uiso   1.00
C608   C     0.93953   0.35190   0.05847   0.00000  Uiso   1.00
C609   C     0.91778   0.38874   0.99133   0.00000  Uiso   1.00
C610   C     0.91678   0.38748   0.84129   0.00000  Uiso   1.00
C611   C     0.90584   0.40185   0.60082   0.00000  Uiso   1.00
C612   C     0.98149   0.27850   0.07410   0.00000  Uiso   1.00
C613   C     0.00032   0.32104   0.16754   0.00000  Uiso   1.00
C614   C     0.03362   0.32473   0.17646   0.00000  Uiso   1.00
C615   C     0.04619   0.36656   0.26820   0.00000  Uiso   1.00
C616   C     0.95931   0.24576   0.17696   0.00000  Uiso   1.00
C617   C     0.95814   0.18614   0.19378   0.00000  Uiso   1.00
C618   C     0.93619   0.16459   0.29344   0.00000  Uiso   1.00
C619   C     0.95956   0.31511   0.97859   0.00000  Uiso   1.00
C620   C     0.95859   0.31378   0.82863   0.00000  Uiso   1.00
C621   C     0.93685   0.35061   0.76127   0.00000  Uiso   1.00
H622   H     0.92901   0.37489   0.28335   0.00000  Uiso   1.00
H623   H     0.97730   0.42815   0.40097   0.00000  Uiso   1.00
H624   H     0.90183   0.28958   0.41827   0.00000  Uiso   1.00
H625   H     0.90228   0.41721   0.05318   0.00000  Uiso   1.00
H626   H     0.03968   0.47096   0.49619   0.00000  Uiso   1.00
H627   H     0.88053   0.17878   0.53263   0.00000  Uiso   1.00
H628   H     0.88149   0.44790   0.76276   0.00000  Uiso   1.00
H629   H     0.99708   0.24984   0.01192   0.00000  Uiso   1.00
H630   H     0.04911   0.29624   0.11464   0.00000  Uiso   1.00
H631   H     0.97364   0.15767   0.13195   0.00000  Uiso   1.00
H632   H     0.97409   0.28530   0.76685   0.00000  Uiso   1.00
H633   H     0.09796   0.36389   0.26379   0.00000  Uiso   1.00
H634   H     0.93881   0.07171   0.30024   0.00000  Uiso   1.00
H635   H     0.93977   0.34083   0.53037   0.00000  Uiso   1.00
O636   O     0.10182   0.45019   0.45250   0.00000  Uiso   1.00
O637   O     0.89302   0.06686   0.50030   0.00000  Uiso   1.00
O638   O     0.89427   0.41995   0.49025   0.00000  Uiso   1.00
N639   N     0.04625   0.43940   0.42737   0.00000  Uiso   1.00
N640   N     0.89747   0.16623   0.46147   0.00000  Uiso   1.00
N641   N     0.89835   0.41782   0.74170   0.00000  Uiso   1.00
N642   N     0.07762   0.38179   0.30232   0.00000  Uiso   1.00
N643   N     0.92883   0.10862   0.33642   0.00000  Uiso   1.00
N644   N     0.92972   0.36021   0.61665   0.00000  Uiso   1.00
C645   C     0.44461   0.84625   0.22116   0.00000  Uiso   1.00
C646   C     0.48029   0.85785   0.24742   0.00000  Uiso   1.00
C647   C     0.49281   0.89968   0.33916   0.00000  Uiso   1.00
C648   C     0.52612   0.90343   0.34823   0.00000  Uiso   1.00
C649   C     0.57847   0.92702   0.40120   0.00000  Uiso   1.00
C650   C     0.43928   0.78256   0.25683   0.00000  Uiso   1.00
C651   C     0.41733   0.76110   0.35648   0.00000  Uiso   1.00
C652   C     0.41612   0.70146   0.37346   0.00000  Uiso   1.00
C653   C     0.40480   0.60816   0.44097   0.00000  Uiso   1.00
C654   C     0.43953   0.85190   0.05847   0.00000  Uiso   1.00
C655   C     0.41778   0.88874   0.99133   0.00000  Uiso   1.00
C656   C     0.41678   0.88748   0.84129   0.00000  Uiso   1.00
C657   C     0.40584   0.90185   0.60082   0.00000  Uiso   1.00
C658   C     0.48149   0.77850   0.07410   0.00000  Uiso   1.00
C659   C     0.50032   0.82104   0.16754   0.00000  Uiso   1.00
C660   C     0.53362   0.82473   0.17646   0.00000  Uiso   1.00
C661   C     0.54619   0.86656   0.26820   0.00000  Uiso   1.00
C662   C     0.45931   0.74576   0.17696   0.00000  Uiso   1.00
C663   C     0.45814   0.68614   0.19378   0.00000  Uiso   1.00
C664   C     0.43619   0.66459   0.29344   0.00000  Uiso   1.00
C665   C     0.45956   0.81511   0.97859   0.00000  Uiso   1.00
C666   C     0.45859   0.81378   0.82863   0.00000  Uiso   1.00
C667   C     0.43685   0.85061   0.76127   0.00000  Uiso   1.00
H668   H     0.42901   0.87489   0.28335   0.00000  Uiso   1.00
H669   H     0.47730   0.92815   0.40097   0.00000  Uiso   1.00
H670   H     0.40183   0.78958   0.41827   0.00000  Uiso   1.00
H671   H     0.40228   0.91721   0.05318   0.00000  Uiso   1.00
H672   H     0.53968   0.97096   0.49619   0.00000  Uiso   1.00
H673   H     0.38053   0.67878   0.53263   0.00000  Uiso   1.00
H674   H     0.38149   0.94790   0.76276   0.00000  Uiso   1.00
H675   H     0.49708   0.74984   0.01192   0.00000  Uiso   1.00
H676   H     0.54911   0.79624   0.11464   0.00000  Uiso   1.00
H677   H     0.47364   0.65767   0.13195   0.00000  Uiso   1.00
H678   H     0.47409   0.78530   0.76685   0.00000  Uiso   1.00
H679   H     0.59796   0.86389   0.26379   0.00000  Uiso   1.00
H680   H     0.43881   0.57171   0.30024   0.00000  Uiso   1.00
H681   H     0.43977   0.84083   0.53037   0.00000  Uiso   1.00
O682   O     0.60182   0.95019   0.45250   0.00000  Uiso   1.00
O683   O     0.39302   0.56686   0.50030   0.00000  Uiso   1.00
O684   O     0.39427   0.91995   0.49025   0.00000  Uiso   1.00
N685   N     0.54625   0.93940   0.42737   0.00000  Uiso   1.00
N686   N     0.39747   0.66623   0.46147   0.00000  Uiso   1.00
N687   N     0.39835   0.91782   0.74170   0.00000  Uiso   1.00
N688   N     0.57762   0.88179   0.30232   0.00000  Uiso   1.00
N689   N     0.42883   0.60862   0.33642   0.00000  Uiso   1.00
N690   N     0.42972   0.86021   0.61665   0.00000  Uiso   1.00
C691   C     0.44461   0.34625   0.72116   0.00000  Uiso   1.00
C692   C     0.48029   0.35785   0.74742   0.00000  Uiso   1.00
C693   C     0.49281   0.39968   0.83916   0.00000  Uiso   1.00
C694   C     0.52612   0.40343   0.84823   0.00000  Uiso   1.00
C695   C     0.57847   0.42702   0.90120   0.00000  Uiso   1.00
C696   C     0.43928   0.28256   0.75683   0.00000  Uiso   1.00
C697   C     0.41733   0.26110   0.85648   0.00000  Uiso   1.00
C698   C     0.41612   0.20146   0.87346   0.00000  Uiso   1.00
C699   C     0.40480   0.10816   0.94097   0.00000  Uiso   1.00
C700   C     0.43953   0.35190   0.55847   0.00000  Uiso   1.00
C701   C     0.41778   0.38874   0.49133   0.00000  Uiso   1.00
C702   C     0.41678   0.38748   0.34129   0.00000  Uiso   1.00
C703   C     0.40584   0.40185   0.10082   0.00000  Uiso   1.00
C704   C     0.48149   0.27850   0.57410   0.00000  Uiso   1.00
C705   C     0.50032   0.32104   0.66754   0.00000  Uiso   1.00
C706   C     0.53362   0.32473   0.67646   0.00000  Uiso   1.00
C707   C     0.54619   0.36656   0.76820   0.00000  Uiso   1.00
C708   C     0.45931   0.24576   0.67696   0.00000  Uiso   1.00
C709   C     0.45814   0.18614   0.69378   0.00000  Uiso   1.00
C710   C     0.43619   0.16459   0.79344   0.00000  Uiso   1.00
C711   C     0.45956   0.31511   0.47859   0.00000  Uiso   1.00
C712   C     0.45859   0.31378   0.32863   0.00000  Uiso   1.00
C713   C     0.43685   0.35061   0.26127   0.00000  Uiso   1.00
H714   H     0.42901   0.37489   0.78335   0.00000  Uiso   1.00
H715   H     0.47730   0.42815   0.90097   0.00000  Uiso   1.00
H716   H     0.40183   0.28958   0.91827   0.00000  Uiso   1.00
H717   H     0.40228   0.41721   0.55318   0.00000  Uiso   1.00
H718   H     0.53968   0.47096   0.99619   0.00000  Uiso   1.00
H719   H     0.38053   0.17878   0.03263   0.00000  Uiso   1.00
H720   H     0.38149   0.44790   0.26276   0.00000  Uiso   1.00
H721   H     0.49708   0.24984   0.51192   0.00000  Uiso   1.00
H722   H     0.54911   0.29624   0.61464   0.00000  Uiso   1.00
H723   H     0.47364   0.15767   0.63195   0.00000  Uiso   1.00
H724   H     0.47409   0.28530   0.26685   0.00000  Uiso   1.00
H725   H     0.59796   0.36389   0.76379   0.00000  Uiso   1.00
H726   H     0.43881   0.07171   0.80024   0.00000  Uiso   1.00
H727   H     0.43977   0.34083   0.03037   0.00000  Uiso   1.00
O728   O     0.60182   0.45019   0.95250   0.00000  Uiso   1.00
O729   O     0.39302   0.06686   0.00030   0.00000  Uiso   1.00
O730   O     0.39427   0.41995   0.99025   0.00000  Uiso   1.00
N731   N     0.54625   0.43940   0.92737   0.00000  Uiso   1.00
N732   N     0.39747   0.16623   0.96147   0.00000  Uiso   1.00
N733   N     0.39835   0.41782   0.24170   0.00000  Uiso   1.00
N734   N     0.57762   0.38179   0.80232   0.00000  Uiso   1.00
N735   N     0.42883   0.10862   0.83642   0.00000  Uiso   1.00
N736   N     0.42972   0.36021   0.11665   0.00000  Uiso   1.00
