data_job_00415
_audit_creation_date              2018-12-19
_audit_creation_method            'Materials Studio'
_symmetry_space_group_name_H-M    'P1'
_symmetry_Int_Tables_number       1
_symmetry_cell_setting            triclinic
loop_
_symmetry_equiv_pos_as_xyz
  x,y,z
_cell_length_a                    27.9788
_cell_length_b                    30.7359
_cell_length_c                    10.3431
_cell_angle_alpha                 90.0000
_cell_angle_beta                  90.0000
_cell_angle_gamma                 90.0000
loop_
_atom_site_label
_atom_site_type_symbol
_atom_site_fract_x
_atom_site_fract_y
_atom_site_fract_z
_atom_site_U_iso_or_equiv
_atom_site_adp_type
_atom_site_occupancy
C1     C     0.21341   0.52287   0.15353   0.00000  Uiso   1.00
C2     C     0.17124   0.51434   0.06363   0.00000  Uiso   1.00
C3     C     0.17014   0.52275   0.93184   0.00000  Uiso   1.00
C4     C     0.12820   0.51265   0.86670   0.00000  Uiso   1.00
C5     C     0.06870   0.50214   0.71732   0.00000  Uiso   1.00
C6     C     0.19448   0.55231   0.26060   0.00000  Uiso   1.00
C7     C     0.21293   0.59265   0.29442   0.00000  Uiso   1.00
C8     C     0.19056   0.61451   0.39510   0.00000  Uiso   1.00
C9     C     0.16717   0.66294   0.55156   0.00000  Uiso   1.00
C10    C     0.22480   0.47942   0.21769   0.00000  Uiso   1.00
C11    C     0.26873   0.45848   0.21547   0.00000  Uiso   1.00
C12    C     0.27188   0.41898   0.28004   0.00000  Uiso   1.00
C13    C     0.29556   0.35424   0.36988   0.00000  Uiso   1.00
C14    C     0.14088   0.48997   0.27219   0.00000  Uiso   1.00
C15    C     0.13184   0.49647   0.12809   0.00000  Uiso   1.00
C16    C     0.08989   0.48635   0.06313   0.00000  Uiso   1.00
C17    C     0.08873   0.49475   0.93126   0.00000  Uiso   1.00
C18    C     0.15509   0.53444   0.32505   0.00000  Uiso   1.00
C19    C     0.13268   0.55625   0.42570   0.00000  Uiso   1.00
C20    C     0.15109   0.59661   0.45966   0.00000  Uiso   1.00
C21    C     0.18540   0.46155   0.28214   0.00000  Uiso   1.00
C22    C     0.18848   0.42208   0.34674   0.00000  Uiso   1.00
C23    C     0.23241   0.40108   0.34461   0.00000  Uiso   1.00
H24    H     0.24408   0.53679   0.10336   0.00000  Uiso   1.00
H25    H     0.20064   0.53659   0.88200   0.00000  Uiso   1.00
H26    H     0.24342   0.60647   0.24453   0.00000  Uiso   1.00
H27    H     0.29921   0.47232   0.16558   0.00000  Uiso   1.00
H28    H     0.13509   0.52850   0.66502   0.00000  Uiso   1.00
H29    H     0.22532   0.67585   0.42946   0.00000  Uiso   1.00
H30    H     0.34296   0.39297   0.26298   0.00000  Uiso   1.00
H31    H     0.11020   0.47605   0.32237   0.00000  Uiso   1.00
H32    H     0.05941   0.47252   0.11303   0.00000  Uiso   1.00
H33    H     0.10220   0.54240   0.47556   0.00000  Uiso   1.00
H34    H     0.15799   0.40826   0.39661   0.00000  Uiso   1.00
H35    H     0.02046   0.47650   0.85253   0.00000  Uiso   1.00
H36    H     0.11069   0.62385   0.61698   0.00000  Uiso   1.00
H37    H     0.22834   0.34097   0.45049   0.00000  Uiso   1.00
O38    O     0.04677   0.50129   0.61712   0.00000  Uiso   1.00
O39    O     0.16515   0.69459   0.62005   0.00000  Uiso   1.00
O40    O     0.31950   0.32346   0.40162   0.00000  Uiso   1.00
N41    N     0.11508   0.51674   0.73788   0.00000  Uiso   1.00
N42    N     0.19944   0.65450   0.45257   0.00000  Uiso   1.00
N43    N     0.30943   0.39004   0.29695   0.00000  Uiso   1.00
N44    N     0.05340   0.48876   0.83877   0.00000  Uiso   1.00
N45    N     0.13776   0.62652   0.55347   0.00000  Uiso   1.00
N46    N     0.24775   0.36206   0.39785   0.00000  Uiso   1.00
C47    C     0.46799   0.72044   0.21220   0.00000  Uiso   1.00
C48    C     0.47450   0.68167   0.12189   0.00000  Uiso   1.00
C49    C     0.46485   0.68130   0.99029   0.00000  Uiso   1.00
C50    C     0.47315   0.64261   0.92470   0.00000  Uiso   1.00
C51    C     0.48060   0.58803   0.77478   0.00000  Uiso   1.00
C52    C     0.43483   0.70498   0.31981   0.00000  Uiso   1.00
C53    C     0.39183   0.72421   0.35461   0.00000  Uiso   1.00
C54    C     0.36675   0.70515   0.45564   0.00000  Uiso   1.00
C55    C     0.31262   0.68677   0.61305   0.00000  Uiso   1.00
C56    C     0.51651   0.72804   0.27546   0.00000  Uiso   1.00
C57    C     0.54218   0.76667   0.27301   0.00000  Uiso   1.00
C58    C     0.58586   0.76703   0.33673   0.00000  Uiso   1.00
C59    C     0.65855   0.78447   0.42528   0.00000  Uiso   1.00
C60    C     0.49990   0.65240   0.32975   0.00000  Uiso   1.00
C61    C     0.49183   0.64472   0.18575   0.00000  Uiso   1.00
C62    C     0.50015   0.60603   0.12035   0.00000  Uiso   1.00
C63    C     0.49052   0.60560   0.98867   0.00000  Uiso   1.00
C64    C     0.45216   0.66803   0.38366   0.00000  Uiso   1.00
C65    C     0.42713   0.64894   0.48467   0.00000  Uiso   1.00
C66    C     0.38411   0.66813   0.51961   0.00000  Uiso   1.00
C67    C     0.53384   0.69109   0.33931   0.00000  Uiso   1.00
C68    C     0.57748   0.69140   0.40306   0.00000  Uiso   1.00
C69    C     0.60322   0.73001   0.40070   0.00000  Uiso   1.00
H70    H     0.45450   0.74921   0.16250   0.00000  Uiso   1.00
H71    H     0.45143   0.70990   0.94091   0.00000  Uiso   1.00
H72    H     0.37843   0.75280   0.30519   0.00000  Uiso   1.00
H73    H     0.52876   0.79526   0.22359   0.00000  Uiso   1.00
H74    H     0.45566   0.65002   0.72342   0.00000  Uiso   1.00
H75    H     0.30175   0.74050   0.49154   0.00000  Uiso   1.00
H76    H     0.61873   0.83002   0.31948   0.00000  Uiso   1.00
H77    H     0.51339   0.62363   0.37947   0.00000  Uiso   1.00
H78    H     0.51356   0.57743   0.16979   0.00000  Uiso   1.00
H79    H     0.44056   0.62034   0.53406   0.00000  Uiso   1.00
H80    H     0.59088   0.66279   0.45246   0.00000  Uiso   1.00
H81    H     0.50608   0.54250   0.90918   0.00000  Uiso   1.00
H82    H     0.35216   0.63299   0.67731   0.00000  Uiso   1.00
H83    H     0.66915   0.72250   0.50524   0.00000  Uiso   1.00
O84    O     0.47991   0.56813   0.67445   0.00000  Uiso   1.00
O85    O     0.27798   0.68684   0.68222   0.00000  Uiso   1.00
O86    O     0.69386   0.80429   0.45647   0.00000  Uiso   1.00
N87    N     0.46752   0.63106   0.79591   0.00000  Uiso   1.00
N88    N     0.32361   0.71565   0.51404   0.00000  Uiso   1.00
N89    N     0.61996   0.79934   0.35321   0.00000  Uiso   1.00
N90    N     0.49465   0.57321   0.89586   0.00000  Uiso   1.00
N91    N     0.35074   0.65780   0.61400   0.00000  Uiso   1.00
N92    N     0.64709   0.74149   0.45316   0.00000  Uiso   1.00
C93    C     0.28659   0.97713   0.15353   0.00000  Uiso   1.00
C94    C     0.32876   0.98566   0.06363   0.00000  Uiso   1.00
C95    C     0.32986   0.97725   0.93184   0.00000  Uiso   1.00
C96    C     0.37180   0.98735   0.86670   0.00000  Uiso   1.00
C97    C     0.43130   0.99786   0.71732   0.00000  Uiso   1.00
C98    C     0.30552   0.94769   0.26060   0.00000  Uiso   1.00
C99    C     0.28707   0.90735   0.29442   0.00000  Uiso   1.00
C100   C     0.30944   0.88549   0.39510   0.00000  Uiso   1.00
C101   C     0.33283   0.83706   0.55156   0.00000  Uiso   1.00
C102   C     0.27520   0.02058   0.21769   0.00000  Uiso   1.00
C103   C     0.23127   0.04152   0.21547   0.00000  Uiso   1.00
C104   C     0.22812   0.08102   0.28004   0.00000  Uiso   1.00
C105   C     0.20444   0.14576   0.36988   0.00000  Uiso   1.00
C106   C     0.35912   0.01003   0.27219   0.00000  Uiso   1.00
C107   C     0.36816   0.00353   0.12809   0.00000  Uiso   1.00
C108   C     0.41011   0.01365   0.06313   0.00000  Uiso   1.00
C109   C     0.41127   0.00525   0.93126   0.00000  Uiso   1.00
C110   C     0.34491   0.96556   0.32505   0.00000  Uiso   1.00
C111   C     0.36732   0.94375   0.42570   0.00000  Uiso   1.00
C112   C     0.34891   0.90339   0.45966   0.00000  Uiso   1.00
C113   C     0.31460   0.03845   0.28214   0.00000  Uiso   1.00
C114   C     0.31152   0.07792   0.34674   0.00000  Uiso   1.00
C115   C     0.26759   0.09892   0.34461   0.00000  Uiso   1.00
H116   H     0.25592   0.96321   0.10336   0.00000  Uiso   1.00
H117   H     0.29936   0.96341   0.88200   0.00000  Uiso   1.00
H118   H     0.25658   0.89353   0.24453   0.00000  Uiso   1.00
H119   H     0.20079   0.02768   0.16558   0.00000  Uiso   1.00
H120   H     0.36491   0.97150   0.66502   0.00000  Uiso   1.00
H121   H     0.27468   0.82415   0.42946   0.00000  Uiso   1.00
H122   H     0.15704   0.10703   0.26298   0.00000  Uiso   1.00
H123   H     0.38980   0.02395   0.32237   0.00000  Uiso   1.00
H124   H     0.44059   0.02748   0.11303   0.00000  Uiso   1.00
H125   H     0.39780   0.95760   0.47556   0.00000  Uiso   1.00
H126   H     0.34201   0.09174   0.39661   0.00000  Uiso   1.00
H127   H     0.47954   0.02350   0.85253   0.00000  Uiso   1.00
H128   H     0.38931   0.87615   0.61698   0.00000  Uiso   1.00
H129   H     0.27166   0.15903   0.45049   0.00000  Uiso   1.00
O130   O     0.45323   0.99871   0.61712   0.00000  Uiso   1.00
O131   O     0.33485   0.80541   0.62005   0.00000  Uiso   1.00
O132   O     0.18050   0.17654   0.40162   0.00000  Uiso   1.00
N133   N     0.38492   0.98326   0.73788   0.00000  Uiso   1.00
N134   N     0.30056   0.84550   0.45257   0.00000  Uiso   1.00
N135   N     0.19057   0.10996   0.29695   0.00000  Uiso   1.00
N136   N     0.44660   0.01124   0.83877   0.00000  Uiso   1.00
N137   N     0.36224   0.87348   0.55347   0.00000  Uiso   1.00
N138   N     0.25225   0.13794   0.39785   0.00000  Uiso   1.00
C139   C     0.03201   0.77956   0.21220   0.00000  Uiso   1.00
C140   C     0.02550   0.81833   0.12189   0.00000  Uiso   1.00
C141   C     0.03515   0.81870   0.99029   0.00000  Uiso   1.00
C142   C     0.02685   0.85739   0.92470   0.00000  Uiso   1.00
C143   C     0.01940   0.91197   0.77478   0.00000  Uiso   1.00
C144   C     0.06517   0.79502   0.31981   0.00000  Uiso   1.00
C145   C     0.10817   0.77579   0.35461   0.00000  Uiso   1.00
C146   C     0.13325   0.79485   0.45564   0.00000  Uiso   1.00
C147   C     0.18738   0.81323   0.61305   0.00000  Uiso   1.00
C148   C     0.98349   0.77196   0.27546   0.00000  Uiso   1.00
C149   C     0.95782   0.73333   0.27301   0.00000  Uiso   1.00
C150   C     0.91414   0.73297   0.33673   0.00000  Uiso   1.00
C151   C     0.84145   0.71553   0.42528   0.00000  Uiso   1.00
C152   C     0.00010   0.84760   0.32975   0.00000  Uiso   1.00
C153   C     0.00817   0.85528   0.18575   0.00000  Uiso   1.00
C154   C     0.99985   0.89397   0.12035   0.00000  Uiso   1.00
C155   C     0.00948   0.89440   0.98867   0.00000  Uiso   1.00
C156   C     0.04784   0.83197   0.38366   0.00000  Uiso   1.00
C157   C     0.07287   0.85106   0.48467   0.00000  Uiso   1.00
C158   C     0.11589   0.83187   0.51961   0.00000  Uiso   1.00
C159   C     0.96616   0.80891   0.33931   0.00000  Uiso   1.00
C160   C     0.92252   0.80860   0.40306   0.00000  Uiso   1.00
C161   C     0.89678   0.76999   0.40070   0.00000  Uiso   1.00
H162   H     0.04550   0.75079   0.16250   0.00000  Uiso   1.00
H163   H     0.04857   0.79010   0.94091   0.00000  Uiso   1.00
H164   H     0.12157   0.74720   0.30519   0.00000  Uiso   1.00
H165   H     0.97124   0.70474   0.22359   0.00000  Uiso   1.00
H166   H     0.04434   0.84998   0.72342   0.00000  Uiso   1.00
H167   H     0.19825   0.75950   0.49154   0.00000  Uiso   1.00
H168   H     0.88127   0.66998   0.31948   0.00000  Uiso   1.00
H169   H     0.98661   0.87637   0.37947   0.00000  Uiso   1.00
H170   H     0.98644   0.92257   0.16979   0.00000  Uiso   1.00
H171   H     0.05944   0.87966   0.53406   0.00000  Uiso   1.00
H172   H     0.90912   0.83721   0.45246   0.00000  Uiso   1.00
H173   H     0.99392   0.95750   0.90918   0.00000  Uiso   1.00
H174   H     0.14784   0.86701   0.67731   0.00000  Uiso   1.00
H175   H     0.83085   0.77750   0.50524   0.00000  Uiso   1.00
O176   O     0.02009   0.93187   0.67445   0.00000  Uiso   1.00
O177   O     0.22202   0.81316   0.68222   0.00000  Uiso   1.00
O178   O     0.80614   0.69571   0.45647   0.00000  Uiso   1.00
N179   N     0.03248   0.86894   0.79591   0.00000  Uiso   1.00
N180   N     0.17639   0.78435   0.51404   0.00000  Uiso   1.00
N181   N     0.88004   0.70066   0.35321   0.00000  Uiso   1.00
N182   N     0.00535   0.92679   0.89586   0.00000  Uiso   1.00
N183   N     0.14926   0.84220   0.61400   0.00000  Uiso   1.00
N184   N     0.85291   0.75851   0.45316   0.00000  Uiso   1.00
C185   C     0.78659   0.02287   0.34647   0.00000  Uiso   1.00
C186   C     0.82876   0.01434   0.43637   0.00000  Uiso   1.00
C187   C     0.82986   0.02275   0.56816   0.00000  Uiso   1.00
C188   C     0.87180   0.01265   0.63330   0.00000  Uiso   1.00
C189   C     0.93130   0.00214   0.78268   0.00000  Uiso   1.00
C190   C     0.80552   0.05231   0.23940   0.00000  Uiso   1.00
C191   C     0.78707   0.09265   0.20558   0.00000  Uiso   1.00
C192   C     0.80944   0.11451   0.10490   0.00000  Uiso   1.00
C193   C     0.83283   0.16294   0.94844   0.00000  Uiso   1.00
C194   C     0.77520   0.97942   0.28231   0.00000  Uiso   1.00
C195   C     0.73127   0.95848   0.28453   0.00000  Uiso   1.00
C196   C     0.72812   0.91898   0.21996   0.00000  Uiso   1.00
C197   C     0.70444   0.85424   0.13012   0.00000  Uiso   1.00
C198   C     0.85912   0.98997   0.22781   0.00000  Uiso   1.00
C199   C     0.86816   0.99647   0.37191   0.00000  Uiso   1.00
C200   C     0.91011   0.98635   0.43687   0.00000  Uiso   1.00
C201   C     0.91127   0.99475   0.56874   0.00000  Uiso   1.00
C202   C     0.84491   0.03444   0.17495   0.00000  Uiso   1.00
C203   C     0.86732   0.05625   0.07430   0.00000  Uiso   1.00
C204   C     0.84891   0.09661   0.04034   0.00000  Uiso   1.00
C205   C     0.81460   0.96155   0.21786   0.00000  Uiso   1.00
C206   C     0.81152   0.92208   0.15326   0.00000  Uiso   1.00
C207   C     0.76759   0.90108   0.15539   0.00000  Uiso   1.00
H208   H     0.75592   0.03679   0.39664   0.00000  Uiso   1.00
H209   H     0.79936   0.03659   0.61800   0.00000  Uiso   1.00
H210   H     0.75658   0.10647   0.25547   0.00000  Uiso   1.00
H211   H     0.70079   0.97232   0.33442   0.00000  Uiso   1.00
H212   H     0.86491   0.02850   0.83498   0.00000  Uiso   1.00
H213   H     0.77468   0.17585   0.07054   0.00000  Uiso   1.00
H214   H     0.65704   0.89297   0.23702   0.00000  Uiso   1.00
H215   H     0.88980   0.97605   0.17763   0.00000  Uiso   1.00
H216   H     0.94059   0.97252   0.38697   0.00000  Uiso   1.00
H217   H     0.89780   0.04240   0.02444   0.00000  Uiso   1.00
H218   H     0.84201   0.90826   0.10339   0.00000  Uiso   1.00
H219   H     0.97954   0.97650   0.64747   0.00000  Uiso   1.00
H220   H     0.88931   0.12385   0.88302   0.00000  Uiso   1.00
H221   H     0.77166   0.84097   0.04951   0.00000  Uiso   1.00
O222   O     0.95323   0.00129   0.88288   0.00000  Uiso   1.00
O223   O     0.83485   0.19459   0.87995   0.00000  Uiso   1.00
O224   O     0.68050   0.82346   0.09838   0.00000  Uiso   1.00
N225   N     0.88492   0.01674   0.76212   0.00000  Uiso   1.00
N226   N     0.80056   0.15450   0.04743   0.00000  Uiso   1.00
N227   N     0.69057   0.89004   0.20305   0.00000  Uiso   1.00
N228   N     0.94660   0.98876   0.66123   0.00000  Uiso   1.00
N229   N     0.86224   0.12652   0.94653   0.00000  Uiso   1.00
N230   N     0.75225   0.86206   0.10215   0.00000  Uiso   1.00
C231   C     0.53201   0.22044   0.28780   0.00000  Uiso   1.00
C232   C     0.52550   0.18167   0.37811   0.00000  Uiso   1.00
C233   C     0.53515   0.18130   0.50971   0.00000  Uiso   1.00
C234   C     0.52685   0.14261   0.57530   0.00000  Uiso   1.00
C235   C     0.51940   0.08803   0.72522   0.00000  Uiso   1.00
C236   C     0.56517   0.20498   0.18019   0.00000  Uiso   1.00
C237   C     0.60817   0.22421   0.14539   0.00000  Uiso   1.00
C238   C     0.63325   0.20515   0.04436   0.00000  Uiso   1.00
C239   C     0.68738   0.18677   0.88695   0.00000  Uiso   1.00
C240   C     0.48349   0.22804   0.22454   0.00000  Uiso   1.00
C241   C     0.45782   0.26667   0.22699   0.00000  Uiso   1.00
C242   C     0.41414   0.26703   0.16327   0.00000  Uiso   1.00
C243   C     0.34145   0.28447   0.07472   0.00000  Uiso   1.00
C244   C     0.50010   0.15240   0.17025   0.00000  Uiso   1.00
C245   C     0.50817   0.14472   0.31425   0.00000  Uiso   1.00
C246   C     0.49985   0.10603   0.37965   0.00000  Uiso   1.00
C247   C     0.50948   0.10560   0.51133   0.00000  Uiso   1.00
C248   C     0.54784   0.16803   0.11634   0.00000  Uiso   1.00
C249   C     0.57287   0.14894   0.01533   0.00000  Uiso   1.00
C250   C     0.61589   0.16813   0.98039   0.00000  Uiso   1.00
C251   C     0.46616   0.19109   0.16069   0.00000  Uiso   1.00
C252   C     0.42252   0.19140   0.09694   0.00000  Uiso   1.00
C253   C     0.39678   0.23001   0.09930   0.00000  Uiso   1.00
H254   H     0.54550   0.24921   0.33750   0.00000  Uiso   1.00
H255   H     0.54857   0.20990   0.55909   0.00000  Uiso   1.00
H256   H     0.62157   0.25280   0.19481   0.00000  Uiso   1.00
H257   H     0.47124   0.29526   0.27641   0.00000  Uiso   1.00
H258   H     0.54434   0.15002   0.77658   0.00000  Uiso   1.00
H259   H     0.69825   0.24050   0.00846   0.00000  Uiso   1.00
H260   H     0.38127   0.33002   0.18052   0.00000  Uiso   1.00
H261   H     0.48661   0.12363   0.12053   0.00000  Uiso   1.00
H262   H     0.48644   0.07743   0.33021   0.00000  Uiso   1.00
H263   H     0.55944   0.12034   0.96594   0.00000  Uiso   1.00
H264   H     0.40912   0.16279   0.04754   0.00000  Uiso   1.00
H265   H     0.49392   0.04250   0.59082   0.00000  Uiso   1.00
H266   H     0.64784   0.13299   0.82269   0.00000  Uiso   1.00
H267   H     0.33085   0.22250   0.99476   0.00000  Uiso   1.00
O268   O     0.52009   0.06813   0.82555   0.00000  Uiso   1.00
O269   O     0.72202   0.18684   0.81778   0.00000  Uiso   1.00
O270   O     0.30614   0.30429   0.04353   0.00000  Uiso   1.00
N271   N     0.53248   0.13106   0.70409   0.00000  Uiso   1.00
N272   N     0.67639   0.21565   0.98596   0.00000  Uiso   1.00
N273   N     0.38004   0.29934   0.14679   0.00000  Uiso   1.00
N274   N     0.50535   0.07321   0.60414   0.00000  Uiso   1.00
N275   N     0.64926   0.15780   0.88600   0.00000  Uiso   1.00
N276   N     0.35291   0.24149   0.04684   0.00000  Uiso   1.00
C277   C     0.71341   0.47713   0.34647   0.00000  Uiso   1.00
C278   C     0.67124   0.48566   0.43637   0.00000  Uiso   1.00
C279   C     0.67014   0.47725   0.56816   0.00000  Uiso   1.00
C280   C     0.62820   0.48735   0.63330   0.00000  Uiso   1.00
C281   C     0.56870   0.49786   0.78268   0.00000  Uiso   1.00
C282   C     0.69448   0.44769   0.23940   0.00000  Uiso   1.00
C283   C     0.71293   0.40735   0.20558   0.00000  Uiso   1.00
C284   C     0.69056   0.38549   0.10490   0.00000  Uiso   1.00
C285   C     0.66717   0.33706   0.94844   0.00000  Uiso   1.00
C286   C     0.72480   0.52058   0.28231   0.00000  Uiso   1.00
C287   C     0.76873   0.54152   0.28453   0.00000  Uiso   1.00
C288   C     0.77188   0.58102   0.21996   0.00000  Uiso   1.00
C289   C     0.79556   0.64576   0.13012   0.00000  Uiso   1.00
C290   C     0.64088   0.51003   0.22781   0.00000  Uiso   1.00
C291   C     0.63184   0.50353   0.37191   0.00000  Uiso   1.00
C292   C     0.58989   0.51365   0.43687   0.00000  Uiso   1.00
C293   C     0.58873   0.50525   0.56874   0.00000  Uiso   1.00
C294   C     0.65509   0.46556   0.17495   0.00000  Uiso   1.00
C295   C     0.63268   0.44375   0.07430   0.00000  Uiso   1.00
C296   C     0.65109   0.40339   0.04034   0.00000  Uiso   1.00
C297   C     0.68540   0.53845   0.21786   0.00000  Uiso   1.00
C298   C     0.68848   0.57792   0.15326   0.00000  Uiso   1.00
C299   C     0.73241   0.59892   0.15539   0.00000  Uiso   1.00
H300   H     0.74408   0.46321   0.39664   0.00000  Uiso   1.00
H301   H     0.70064   0.46341   0.61800   0.00000  Uiso   1.00
H302   H     0.74342   0.39353   0.25547   0.00000  Uiso   1.00
H303   H     0.79921   0.52768   0.33442   0.00000  Uiso   1.00
H304   H     0.63509   0.47150   0.83498   0.00000  Uiso   1.00
H305   H     0.72532   0.32415   0.07054   0.00000  Uiso   1.00
H306   H     0.84296   0.60703   0.23702   0.00000  Uiso   1.00
H307   H     0.61020   0.52395   0.17763   0.00000  Uiso   1.00
H308   H     0.55941   0.52748   0.38697   0.00000  Uiso   1.00
H309   H     0.60220   0.45760   0.02444   0.00000  Uiso   1.00
H310   H     0.65799   0.59174   0.10339   0.00000  Uiso   1.00
H311   H     0.52046   0.52350   0.64747   0.00000  Uiso   1.00
H312   H     0.61069   0.37615   0.88302   0.00000  Uiso   1.00
H313   H     0.72834   0.65903   0.04951   0.00000  Uiso   1.00
O314   O     0.54677   0.49871   0.88288   0.00000  Uiso   1.00
O315   O     0.66515   0.30541   0.87995   0.00000  Uiso   1.00
O316   O     0.81950   0.67654   0.09838   0.00000  Uiso   1.00
N317   N     0.61508   0.48326   0.76212   0.00000  Uiso   1.00
N318   N     0.69944   0.34550   0.04743   0.00000  Uiso   1.00
N319   N     0.80943   0.60996   0.20305   0.00000  Uiso   1.00
N320   N     0.55340   0.51124   0.66123   0.00000  Uiso   1.00
N321   N     0.63776   0.37348   0.94653   0.00000  Uiso   1.00
N322   N     0.74775   0.63794   0.10215   0.00000  Uiso   1.00
C323   C     0.96799   0.27956   0.28780   0.00000  Uiso   1.00
C324   C     0.97450   0.31833   0.37811   0.00000  Uiso   1.00
C325   C     0.96485   0.31870   0.50971   0.00000  Uiso   1.00
C326   C     0.97315   0.35739   0.57530   0.00000  Uiso   1.00
C327   C     0.98060   0.41197   0.72522   0.00000  Uiso   1.00
C328   C     0.93483   0.29502   0.18019   0.00000  Uiso   1.00
C329   C     0.89183   0.27579   0.14539   0.00000  Uiso   1.00
C330   C     0.86675   0.29485   0.04436   0.00000  Uiso   1.00
C331   C     0.81262   0.31323   0.88695   0.00000  Uiso   1.00
C332   C     0.01651   0.27196   0.22454   0.00000  Uiso   1.00
C333   C     0.04218   0.23333   0.22699   0.00000  Uiso   1.00
C334   C     0.08586   0.23297   0.16327   0.00000  Uiso   1.00
C335   C     0.15855   0.21553   0.07472   0.00000  Uiso   1.00
C336   C     0.99990   0.34760   0.17025   0.00000  Uiso   1.00
C337   C     0.99183   0.35528   0.31425   0.00000  Uiso   1.00
C338   C     0.00015   0.39397   0.37965   0.00000  Uiso   1.00
C339   C     0.99052   0.39440   0.51133   0.00000  Uiso   1.00
C340   C     0.95216   0.33197   0.11634   0.00000  Uiso   1.00
C341   C     0.92713   0.35106   0.01533   0.00000  Uiso   1.00
C342   C     0.88411   0.33187   0.98039   0.00000  Uiso   1.00
C343   C     0.03384   0.30891   0.16069   0.00000  Uiso   1.00
C344   C     0.07748   0.30860   0.09694   0.00000  Uiso   1.00
C345   C     0.10322   0.26999   0.09930   0.00000  Uiso   1.00
H346   H     0.95450   0.25079   0.33750   0.00000  Uiso   1.00
H347   H     0.95143   0.29010   0.55909   0.00000  Uiso   1.00
H348   H     0.87843   0.24720   0.19481   0.00000  Uiso   1.00
H349   H     0.02876   0.20474   0.27641   0.00000  Uiso   1.00
H350   H     0.95566   0.34998   0.77658   0.00000  Uiso   1.00
H351   H     0.80175   0.25950   0.00846   0.00000  Uiso   1.00
H352   H     0.11873   0.16998   0.18052   0.00000  Uiso   1.00
H353   H     0.01339   0.37637   0.12053   0.00000  Uiso   1.00
H354   H     0.01356   0.42257   0.33021   0.00000  Uiso   1.00
H355   H     0.94056   0.37966   0.96594   0.00000  Uiso   1.00
H356   H     0.09088   0.33721   0.04754   0.00000  Uiso   1.00
H357   H     0.00608   0.45750   0.59082   0.00000  Uiso   1.00
H358   H     0.85216   0.36701   0.82269   0.00000  Uiso   1.00
H359   H     0.16915   0.27750   0.99476   0.00000  Uiso   1.00
O360   O     0.97991   0.43187   0.82555   0.00000  Uiso   1.00
O361   O     0.77798   0.31316   0.81778   0.00000  Uiso   1.00
O362   O     0.19386   0.19571   0.04353   0.00000  Uiso   1.00
N363   N     0.96752   0.36894   0.70409   0.00000  Uiso   1.00
N364   N     0.82361   0.28435   0.98596   0.00000  Uiso   1.00
N365   N     0.11996   0.20066   0.14679   0.00000  Uiso   1.00
N366   N     0.99465   0.42679   0.60414   0.00000  Uiso   1.00
N367   N     0.85074   0.34220   0.88600   0.00000  Uiso   1.00
N368   N     0.14709   0.25851   0.04684   0.00000  Uiso   1.00
C369   C     0.78659   0.47713   0.84647   0.00000  Uiso   1.00
C370   C     0.82876   0.48566   0.93637   0.00000  Uiso   1.00
C371   C     0.82986   0.47725   0.06816   0.00000  Uiso   1.00
C372   C     0.87180   0.48735   0.13330   0.00000  Uiso   1.00
C373   C     0.93130   0.49786   0.28268   0.00000  Uiso   1.00
C374   C     0.80552   0.44769   0.73940   0.00000  Uiso   1.00
C375   C     0.78707   0.40735   0.70558   0.00000  Uiso   1.00
C376   C     0.80944   0.38549   0.60490   0.00000  Uiso   1.00
C377   C     0.83283   0.33706   0.44844   0.00000  Uiso   1.00
C378   C     0.77520   0.52058   0.78231   0.00000  Uiso   1.00
C379   C     0.73127   0.54152   0.78453   0.00000  Uiso   1.00
C380   C     0.72812   0.58102   0.71996   0.00000  Uiso   1.00
C381   C     0.70444   0.64576   0.63012   0.00000  Uiso   1.00
C382   C     0.85912   0.51003   0.72781   0.00000  Uiso   1.00
C383   C     0.86816   0.50353   0.87191   0.00000  Uiso   1.00
C384   C     0.91011   0.51365   0.93687   0.00000  Uiso   1.00
C385   C     0.91127   0.50525   0.06874   0.00000  Uiso   1.00
C386   C     0.84491   0.46556   0.67495   0.00000  Uiso   1.00
C387   C     0.86732   0.44375   0.57430   0.00000  Uiso   1.00
C388   C     0.84891   0.40339   0.54034   0.00000  Uiso   1.00
C389   C     0.81460   0.53845   0.71786   0.00000  Uiso   1.00
C390   C     0.81152   0.57792   0.65326   0.00000  Uiso   1.00
C391   C     0.76759   0.59892   0.65539   0.00000  Uiso   1.00
H392   H     0.75592   0.46321   0.89664   0.00000  Uiso   1.00
H393   H     0.79936   0.46341   0.11800   0.00000  Uiso   1.00
H394   H     0.75658   0.39353   0.75547   0.00000  Uiso   1.00
H395   H     0.70079   0.52768   0.83442   0.00000  Uiso   1.00
H396   H     0.86491   0.47150   0.33498   0.00000  Uiso   1.00
H397   H     0.77468   0.32415   0.57054   0.00000  Uiso   1.00
H398   H     0.65704   0.60703   0.73702   0.00000  Uiso   1.00
H399   H     0.88980   0.52395   0.67763   0.00000  Uiso   1.00
H400   H     0.94059   0.52748   0.88697   0.00000  Uiso   1.00
H401   H     0.89780   0.45760   0.52444   0.00000  Uiso   1.00
H402   H     0.84201   0.59174   0.60339   0.00000  Uiso   1.00
H403   H     0.97954   0.52350   0.14747   0.00000  Uiso   1.00
H404   H     0.88931   0.37615   0.38302   0.00000  Uiso   1.00
H405   H     0.77166   0.65903   0.54951   0.00000  Uiso   1.00
O406   O     0.95323   0.49871   0.38288   0.00000  Uiso   1.00
O407   O     0.83485   0.30541   0.37995   0.00000  Uiso   1.00
O408   O     0.68050   0.67654   0.59838   0.00000  Uiso   1.00
N409   N     0.88492   0.48326   0.26212   0.00000  Uiso   1.00
N410   N     0.80056   0.34550   0.54743   0.00000  Uiso   1.00
N411   N     0.69057   0.60996   0.70305   0.00000  Uiso   1.00
N412   N     0.94660   0.51124   0.16123   0.00000  Uiso   1.00
N413   N     0.86224   0.37348   0.44653   0.00000  Uiso   1.00
N414   N     0.75225   0.63794   0.60215   0.00000  Uiso   1.00
C415   C     0.53201   0.27956   0.78780   0.00000  Uiso   1.00
C416   C     0.52550   0.31833   0.87811   0.00000  Uiso   1.00
C417   C     0.53515   0.31870   0.00971   0.00000  Uiso   1.00
C418   C     0.52685   0.35739   0.07530   0.00000  Uiso   1.00
C419   C     0.51940   0.41197   0.22522   0.00000  Uiso   1.00
C420   C     0.56517   0.29502   0.68019   0.00000  Uiso   1.00
C421   C     0.60817   0.27579   0.64539   0.00000  Uiso   1.00
C422   C     0.63325   0.29485   0.54436   0.00000  Uiso   1.00
C423   C     0.68738   0.31323   0.38695   0.00000  Uiso   1.00
C424   C     0.48349   0.27196   0.72454   0.00000  Uiso   1.00
C425   C     0.45782   0.23333   0.72699   0.00000  Uiso   1.00
C426   C     0.41414   0.23297   0.66327   0.00000  Uiso   1.00
C427   C     0.34145   0.21553   0.57472   0.00000  Uiso   1.00
C428   C     0.50010   0.34760   0.67025   0.00000  Uiso   1.00
C429   C     0.50817   0.35528   0.81425   0.00000  Uiso   1.00
C430   C     0.49985   0.39397   0.87965   0.00000  Uiso   1.00
C431   C     0.50948   0.39440   0.01133   0.00000  Uiso   1.00
C432   C     0.54784   0.33197   0.61634   0.00000  Uiso   1.00
C433   C     0.57287   0.35106   0.51533   0.00000  Uiso   1.00
C434   C     0.61589   0.33187   0.48039   0.00000  Uiso   1.00
C435   C     0.46616   0.30891   0.66069   0.00000  Uiso   1.00
C436   C     0.42252   0.30860   0.59694   0.00000  Uiso   1.00
C437   C     0.39678   0.26999   0.59930   0.00000  Uiso   1.00
H438   H     0.54550   0.25079   0.83750   0.00000  Uiso   1.00
H439   H     0.54857   0.29010   0.05909   0.00000  Uiso   1.00
H440   H     0.62157   0.24720   0.69481   0.00000  Uiso   1.00
H441   H     0.47124   0.20474   0.77641   0.00000  Uiso   1.00
H442   H     0.54434   0.34998   0.27658   0.00000  Uiso   1.00
H443   H     0.69825   0.25950   0.50846   0.00000  Uiso   1.00
H444   H     0.38127   0.16998   0.68052   0.00000  Uiso   1.00
H445   H     0.48661   0.37637   0.62053   0.00000  Uiso   1.00
H446   H     0.48644   0.42257   0.83021   0.00000  Uiso   1.00
H447   H     0.55944   0.37966   0.46594   0.00000  Uiso   1.00
H448   H     0.40912   0.33721   0.54754   0.00000  Uiso   1.00
H449   H     0.49392   0.45750   0.09082   0.00000  Uiso   1.00
H450   H     0.64784   0.36701   0.32269   0.00000  Uiso   1.00
H451   H     0.33085   0.27750   0.49476   0.00000  Uiso   1.00
O452   O     0.52009   0.43187   0.32555   0.00000  Uiso   1.00
O453   O     0.72202   0.31316   0.31778   0.00000  Uiso   1.00
O454   O     0.30614   0.19571   0.54353   0.00000  Uiso   1.00
N455   N     0.53248   0.36894   0.20409   0.00000  Uiso   1.00
N456   N     0.67639   0.28435   0.48596   0.00000  Uiso   1.00
N457   N     0.38004   0.20066   0.64679   0.00000  Uiso   1.00
N458   N     0.50535   0.42679   0.10414   0.00000  Uiso   1.00
N459   N     0.64926   0.34220   0.38600   0.00000  Uiso   1.00
N460   N     0.35291   0.25851   0.54684   0.00000  Uiso   1.00
C461   C     0.71341   0.02287   0.84647   0.00000  Uiso   1.00
C462   C     0.67124   0.01434   0.93637   0.00000  Uiso   1.00
C463   C     0.67014   0.02275   0.06816   0.00000  Uiso   1.00
C464   C     0.62820   0.01265   0.13330   0.00000  Uiso   1.00
C465   C     0.56870   0.00214   0.28268   0.00000  Uiso   1.00
C466   C     0.69448   0.05231   0.73940   0.00000  Uiso   1.00
C467   C     0.71293   0.09265   0.70558   0.00000  Uiso   1.00
C468   C     0.69056   0.11451   0.60490   0.00000  Uiso   1.00
C469   C     0.66717   0.16294   0.44844   0.00000  Uiso   1.00
C470   C     0.72480   0.97942   0.78231   0.00000  Uiso   1.00
C471   C     0.76873   0.95848   0.78453   0.00000  Uiso   1.00
C472   C     0.77188   0.91898   0.71996   0.00000  Uiso   1.00
C473   C     0.79556   0.85424   0.63012   0.00000  Uiso   1.00
C474   C     0.64088   0.98997   0.72781   0.00000  Uiso   1.00
C475   C     0.63184   0.99647   0.87191   0.00000  Uiso   1.00
C476   C     0.58989   0.98635   0.93687   0.00000  Uiso   1.00
C477   C     0.58873   0.99475   0.06874   0.00000  Uiso   1.00
C478   C     0.65509   0.03444   0.67495   0.00000  Uiso   1.00
C479   C     0.63268   0.05625   0.57430   0.00000  Uiso   1.00
C480   C     0.65109   0.09661   0.54034   0.00000  Uiso   1.00
C481   C     0.68540   0.96155   0.71786   0.00000  Uiso   1.00
C482   C     0.68848   0.92208   0.65326   0.00000  Uiso   1.00
C483   C     0.73241   0.90108   0.65539   0.00000  Uiso   1.00
H484   H     0.74408   0.03679   0.89664   0.00000  Uiso   1.00
H485   H     0.70064   0.03659   0.11800   0.00000  Uiso   1.00
H486   H     0.74342   0.10647   0.75547   0.00000  Uiso   1.00
H487   H     0.79921   0.97232   0.83442   0.00000  Uiso   1.00
H488   H     0.63509   0.02850   0.33498   0.00000  Uiso   1.00
H489   H     0.72532   0.17585   0.57054   0.00000  Uiso   1.00
H490   H     0.84296   0.89297   0.73702   0.00000  Uiso   1.00
H491   H     0.61020   0.97605   0.67763   0.00000  Uiso   1.00
H492   H     0.55941   0.97252   0.88697   0.00000  Uiso   1.00
H493   H     0.60220   0.04240   0.52444   0.00000  Uiso   1.00
H494   H     0.65799   0.90826   0.60339   0.00000  Uiso   1.00
H495   H     0.52046   0.97650   0.14747   0.00000  Uiso   1.00
H496   H     0.61069   0.12385   0.38302   0.00000  Uiso   1.00
H497   H     0.72834   0.84097   0.54951   0.00000  Uiso   1.00
O498   O     0.54677   0.00129   0.38288   0.00000  Uiso   1.00
O499   O     0.66515   0.19459   0.37995   0.00000  Uiso   1.00
O500   O     0.81950   0.82346   0.59838   0.00000  Uiso   1.00
N501   N     0.61508   0.01674   0.26212   0.00000  Uiso   1.00
N502   N     0.69944   0.15450   0.54743   0.00000  Uiso   1.00
N503   N     0.80943   0.89004   0.70305   0.00000  Uiso   1.00
N504   N     0.55340   0.98876   0.16123   0.00000  Uiso   1.00
N505   N     0.63776   0.12652   0.44653   0.00000  Uiso   1.00
N506   N     0.74775   0.86206   0.60215   0.00000  Uiso   1.00
C507   C     0.96799   0.22044   0.78780   0.00000  Uiso   1.00
C508   C     0.97450   0.18167   0.87811   0.00000  Uiso   1.00
C509   C     0.96485   0.18130   0.00971   0.00000  Uiso   1.00
C510   C     0.97315   0.14261   0.07530   0.00000  Uiso   1.00
C511   C     0.98060   0.08803   0.22522   0.00000  Uiso   1.00
C512   C     0.93483   0.20498   0.68019   0.00000  Uiso   1.00
C513   C     0.89183   0.22421   0.64539   0.00000  Uiso   1.00
C514   C     0.86675   0.20515   0.54436   0.00000  Uiso   1.00
C515   C     0.81262   0.18677   0.38695   0.00000  Uiso   1.00
C516   C     0.01651   0.22804   0.72454   0.00000  Uiso   1.00
C517   C     0.04218   0.26667   0.72699   0.00000  Uiso   1.00
C518   C     0.08586   0.26703   0.66327   0.00000  Uiso   1.00
C519   C     0.15855   0.28447   0.57472   0.00000  Uiso   1.00
C520   C     0.99990   0.15240   0.67025   0.00000  Uiso   1.00
C521   C     0.99183   0.14472   0.81425   0.00000  Uiso   1.00
C522   C     0.00015   0.10603   0.87965   0.00000  Uiso   1.00
C523   C     0.99052   0.10560   0.01133   0.00000  Uiso   1.00
C524   C     0.95216   0.16803   0.61634   0.00000  Uiso   1.00
C525   C     0.92713   0.14894   0.51533   0.00000  Uiso   1.00
C526   C     0.88411   0.16813   0.48039   0.00000  Uiso   1.00
C527   C     0.03384   0.19109   0.66069   0.00000  Uiso   1.00
C528   C     0.07748   0.19140   0.59694   0.00000  Uiso   1.00
C529   C     0.10322   0.23001   0.59930   0.00000  Uiso   1.00
H530   H     0.95450   0.24921   0.83750   0.00000  Uiso   1.00
H531   H     0.95143   0.20990   0.05909   0.00000  Uiso   1.00
H532   H     0.87843   0.25280   0.69481   0.00000  Uiso   1.00
H533   H     0.02876   0.29526   0.77641   0.00000  Uiso   1.00
H534   H     0.95566   0.15002   0.27658   0.00000  Uiso   1.00
H535   H     0.80175   0.24050   0.50846   0.00000  Uiso   1.00
H536   H     0.11873   0.33002   0.68052   0.00000  Uiso   1.00
H537   H     0.01339   0.12363   0.62053   0.00000  Uiso   1.00
H538   H     0.01356   0.07743   0.83021   0.00000  Uiso   1.00
H539   H     0.94056   0.12034   0.46594   0.00000  Uiso   1.00
H540   H     0.09088   0.16279   0.54754   0.00000  Uiso   1.00
H541   H     0.00608   0.04250   0.09082   0.00000  Uiso   1.00
H542   H     0.85216   0.13299   0.32269   0.00000  Uiso   1.00
H543   H     0.16915   0.22250   0.49476   0.00000  Uiso   1.00
O544   O     0.97991   0.06813   0.32555   0.00000  Uiso   1.00
O545   O     0.77798   0.18684   0.31778   0.00000  Uiso   1.00
O546   O     0.19386   0.30429   0.54353   0.00000  Uiso   1.00
N547   N     0.96752   0.13106   0.20409   0.00000  Uiso   1.00
N548   N     0.82361   0.21565   0.48596   0.00000  Uiso   1.00
N549   N     0.11996   0.29934   0.64679   0.00000  Uiso   1.00
N550   N     0.99465   0.07321   0.10414   0.00000  Uiso   1.00
N551   N     0.85074   0.15780   0.38600   0.00000  Uiso   1.00
N552   N     0.14709   0.24149   0.54684   0.00000  Uiso   1.00
C553   C     0.21341   0.97713   0.65353   0.00000  Uiso   1.00
C554   C     0.17124   0.98566   0.56363   0.00000  Uiso   1.00
C555   C     0.17014   0.97725   0.43184   0.00000  Uiso   1.00
C556   C     0.12820   0.98735   0.36670   0.00000  Uiso   1.00
C557   C     0.06870   0.99786   0.21732   0.00000  Uiso   1.00
C558   C     0.19448   0.94769   0.76060   0.00000  Uiso   1.00
C559   C     0.21293   0.90735   0.79442   0.00000  Uiso   1.00
C560   C     0.19056   0.88549   0.89510   0.00000  Uiso   1.00
C561   C     0.16717   0.83706   0.05156   0.00000  Uiso   1.00
C562   C     0.22480   0.02058   0.71769   0.00000  Uiso   1.00
C563   C     0.26873   0.04152   0.71547   0.00000  Uiso   1.00
C564   C     0.27188   0.08102   0.78004   0.00000  Uiso   1.00
C565   C     0.29556   0.14576   0.86988   0.00000  Uiso   1.00
C566   C     0.14088   0.01003   0.77219   0.00000  Uiso   1.00
C567   C     0.13184   0.00353   0.62809   0.00000  Uiso   1.00
C568   C     0.08989   0.01365   0.56313   0.00000  Uiso   1.00
C569   C     0.08873   0.00525   0.43126   0.00000  Uiso   1.00
C570   C     0.15509   0.96556   0.82505   0.00000  Uiso   1.00
C571   C     0.13268   0.94375   0.92570   0.00000  Uiso   1.00
C572   C     0.15109   0.90339   0.95966   0.00000  Uiso   1.00
C573   C     0.18540   0.03845   0.78214   0.00000  Uiso   1.00
C574   C     0.18848   0.07792   0.84674   0.00000  Uiso   1.00
C575   C     0.23241   0.09892   0.84461   0.00000  Uiso   1.00
H576   H     0.24408   0.96321   0.60336   0.00000  Uiso   1.00
H577   H     0.20064   0.96341   0.38200   0.00000  Uiso   1.00
H578   H     0.24342   0.89353   0.74453   0.00000  Uiso   1.00
H579   H     0.29921   0.02768   0.66558   0.00000  Uiso   1.00
H580   H     0.13509   0.97150   0.16502   0.00000  Uiso   1.00
H581   H     0.22532   0.82415   0.92946   0.00000  Uiso   1.00
H582   H     0.34296   0.10703   0.76298   0.00000  Uiso   1.00
H583   H     0.11020   0.02395   0.82237   0.00000  Uiso   1.00
H584   H     0.05941   0.02748   0.61303   0.00000  Uiso   1.00
H585   H     0.10220   0.95760   0.97556   0.00000  Uiso   1.00
H586   H     0.15799   0.09174   0.89661   0.00000  Uiso   1.00
H587   H     0.02046   0.02350   0.35253   0.00000  Uiso   1.00
H588   H     0.11069   0.87615   0.11698   0.00000  Uiso   1.00
H589   H     0.22834   0.15903   0.95049   0.00000  Uiso   1.00
O590   O     0.04677   0.99871   0.11712   0.00000  Uiso   1.00
O591   O     0.16515   0.80541   0.12005   0.00000  Uiso   1.00
O592   O     0.31950   0.17654   0.90162   0.00000  Uiso   1.00
N593   N     0.11508   0.98326   0.23788   0.00000  Uiso   1.00
N594   N     0.19944   0.84550   0.95257   0.00000  Uiso   1.00
N595   N     0.30943   0.10996   0.79695   0.00000  Uiso   1.00
N596   N     0.05340   0.01124   0.33877   0.00000  Uiso   1.00
N597   N     0.13776   0.87348   0.05347   0.00000  Uiso   1.00
N598   N     0.24775   0.13794   0.89785   0.00000  Uiso   1.00
C599   C     0.46799   0.77956   0.71220   0.00000  Uiso   1.00
C600   C     0.47450   0.81833   0.62189   0.00000  Uiso   1.00
C601   C     0.46485   0.81870   0.49029   0.00000  Uiso   1.00
C602   C     0.47315   0.85739   0.42470   0.00000  Uiso   1.00
C603   C     0.48060   0.91197   0.27478   0.00000  Uiso   1.00
C604   C     0.43483   0.79502   0.81981   0.00000  Uiso   1.00
C605   C     0.39183   0.77579   0.85461   0.00000  Uiso   1.00
C606   C     0.36675   0.79485   0.95564   0.00000  Uiso   1.00
C607   C     0.31262   0.81323   0.11305   0.00000  Uiso   1.00
C608   C     0.51651   0.77196   0.77546   0.00000  Uiso   1.00
C609   C     0.54218   0.73333   0.77301   0.00000  Uiso   1.00
C610   C     0.58586   0.73297   0.83673   0.00000  Uiso   1.00
C611   C     0.65855   0.71553   0.92528   0.00000  Uiso   1.00
C612   C     0.49990   0.84760   0.82975   0.00000  Uiso   1.00
C613   C     0.49183   0.85528   0.68575   0.00000  Uiso   1.00
C614   C     0.50015   0.89397   0.62035   0.00000  Uiso   1.00
C615   C     0.49052   0.89440   0.48867   0.00000  Uiso   1.00
C616   C     0.45216   0.83197   0.88366   0.00000  Uiso   1.00
C617   C     0.42713   0.85106   0.98467   0.00000  Uiso   1.00
C618   C     0.38411   0.83187   0.01961   0.00000  Uiso   1.00
C619   C     0.53384   0.80891   0.83931   0.00000  Uiso   1.00
C620   C     0.57748   0.80860   0.90306   0.00000  Uiso   1.00
C621   C     0.60322   0.76999   0.90070   0.00000  Uiso   1.00
H622   H     0.45450   0.75079   0.66250   0.00000  Uiso   1.00
H623   H     0.45143   0.79010   0.44091   0.00000  Uiso   1.00
H624   H     0.37843   0.74720   0.80519   0.00000  Uiso   1.00
H625   H     0.52876   0.70474   0.72359   0.00000  Uiso   1.00
H626   H     0.45566   0.84998   0.22342   0.00000  Uiso   1.00
H627   H     0.30175   0.75950   0.99154   0.00000  Uiso   1.00
H628   H     0.61873   0.66998   0.81948   0.00000  Uiso   1.00
H629   H     0.51339   0.87637   0.87947   0.00000  Uiso   1.00
H630   H     0.51356   0.92257   0.66979   0.00000  Uiso   1.00
H631   H     0.44056   0.87966   0.03406   0.00000  Uiso   1.00
H632   H     0.59088   0.83721   0.95246   0.00000  Uiso   1.00
H633   H     0.50608   0.95750   0.40918   0.00000  Uiso   1.00
H634   H     0.35216   0.86701   0.17731   0.00000  Uiso   1.00
H635   H     0.66915   0.77750   0.00524   0.00000  Uiso   1.00
O636   O     0.47991   0.93187   0.17445   0.00000  Uiso   1.00
O637   O     0.27798   0.81316   0.18222   0.00000  Uiso   1.00
O638   O     0.69386   0.69571   0.95647   0.00000  Uiso   1.00
N639   N     0.46752   0.86894   0.29591   0.00000  Uiso   1.00
N640   N     0.32361   0.78435   0.01404   0.00000  Uiso   1.00
N641   N     0.61996   0.70066   0.85321   0.00000  Uiso   1.00
N642   N     0.49465   0.92679   0.39586   0.00000  Uiso   1.00
N643   N     0.35074   0.84220   0.11400   0.00000  Uiso   1.00
N644   N     0.64709   0.75851   0.95316   0.00000  Uiso   1.00
C645   C     0.28659   0.52287   0.65353   0.00000  Uiso   1.00
C646   C     0.32876   0.51434   0.56363   0.00000  Uiso   1.00
C647   C     0.32986   0.52275   0.43184   0.00000  Uiso   1.00
C648   C     0.37180   0.51265   0.36670   0.00000  Uiso   1.00
C649   C     0.43130   0.50214   0.21732   0.00000  Uiso   1.00
C650   C     0.30552   0.55231   0.76060   0.00000  Uiso   1.00
C651   C     0.28707   0.59265   0.79442   0.00000  Uiso   1.00
C652   C     0.30944   0.61451   0.89510   0.00000  Uiso   1.00
C653   C     0.33283   0.66294   0.05156   0.00000  Uiso   1.00
C654   C     0.27520   0.47942   0.71769   0.00000  Uiso   1.00
C655   C     0.23127   0.45848   0.71547   0.00000  Uiso   1.00
C656   C     0.22812   0.41898   0.78004   0.00000  Uiso   1.00
C657   C     0.20444   0.35424   0.86988   0.00000  Uiso   1.00
C658   C     0.35912   0.48997   0.77219   0.00000  Uiso   1.00
C659   C     0.36816   0.49647   0.62809   0.00000  Uiso   1.00
C660   C     0.41011   0.48635   0.56313   0.00000  Uiso   1.00
C661   C     0.41127   0.49475   0.43126   0.00000  Uiso   1.00
C662   C     0.34491   0.53444   0.82505   0.00000  Uiso   1.00
C663   C     0.36732   0.55625   0.92570   0.00000  Uiso   1.00
C664   C     0.34891   0.59661   0.95966   0.00000  Uiso   1.00
C665   C     0.31460   0.46155   0.78214   0.00000  Uiso   1.00
C666   C     0.31152   0.42208   0.84674   0.00000  Uiso   1.00
C667   C     0.26759   0.40108   0.84461   0.00000  Uiso   1.00
H668   H     0.25592   0.53679   0.60336   0.00000  Uiso   1.00
H669   H     0.29936   0.53659   0.38200   0.00000  Uiso   1.00
H670   H     0.25658   0.60647   0.74453   0.00000  Uiso   1.00
H671   H     0.20079   0.47232   0.66558   0.00000  Uiso   1.00
H672   H     0.36491   0.52850   0.16502   0.00000  Uiso   1.00
H673   H     0.27468   0.67585   0.92946   0.00000  Uiso   1.00
H674   H     0.15704   0.39297   0.76298   0.00000  Uiso   1.00
H675   H     0.38980   0.47605   0.82237   0.00000  Uiso   1.00
H676   H     0.44059   0.47252   0.61303   0.00000  Uiso   1.00
H677   H     0.39780   0.54240   0.97556   0.00000  Uiso   1.00
H678   H     0.34201   0.40826   0.89661   0.00000  Uiso   1.00
H679   H     0.47954   0.47650   0.35253   0.00000  Uiso   1.00
H680   H     0.38931   0.62385   0.11698   0.00000  Uiso   1.00
H681   H     0.27166   0.34097   0.95049   0.00000  Uiso   1.00
O682   O     0.45323   0.50129   0.11712   0.00000  Uiso   1.00
O683   O     0.33485   0.69459   0.12005   0.00000  Uiso   1.00
O684   O     0.18050   0.32346   0.90162   0.00000  Uiso   1.00
N685   N     0.38492   0.51674   0.23788   0.00000  Uiso   1.00
N686   N     0.30056   0.65450   0.95257   0.00000  Uiso   1.00
N687   N     0.19057   0.39004   0.79695   0.00000  Uiso   1.00
N688   N     0.44660   0.48876   0.33877   0.00000  Uiso   1.00
N689   N     0.36224   0.62652   0.05347   0.00000  Uiso   1.00
N690   N     0.25225   0.36206   0.89785   0.00000  Uiso   1.00
C691   C     0.03201   0.72044   0.71220   0.00000  Uiso   1.00
C692   C     0.02550   0.68167   0.62189   0.00000  Uiso   1.00
C693   C     0.03515   0.68130   0.49029   0.00000  Uiso   1.00
C694   C     0.02685   0.64261   0.42470   0.00000  Uiso   1.00
C695   C     0.01940   0.58803   0.27478   0.00000  Uiso   1.00
C696   C     0.06517   0.70498   0.81981   0.00000  Uiso   1.00
C697   C     0.10817   0.72421   0.85461   0.00000  Uiso   1.00
C698   C     0.13325   0.70515   0.95564   0.00000  Uiso   1.00
C699   C     0.18738   0.68677   0.11305   0.00000  Uiso   1.00
C700   C     0.98349   0.72804   0.77546   0.00000  Uiso   1.00
C701   C     0.95782   0.76667   0.77301   0.00000  Uiso   1.00
C702   C     0.91414   0.76703   0.83673   0.00000  Uiso   1.00
C703   C     0.84145   0.78447   0.92528   0.00000  Uiso   1.00
C704   C     0.00010   0.65240   0.82975   0.00000  Uiso   1.00
C705   C     0.00817   0.64472   0.68575   0.00000  Uiso   1.00
C706   C     0.99985   0.60603   0.62035   0.00000  Uiso   1.00
C707   C     0.00948   0.60560   0.48867   0.00000  Uiso   1.00
C708   C     0.04784   0.66803   0.88366   0.00000  Uiso   1.00
C709   C     0.07287   0.64894   0.98467   0.00000  Uiso   1.00
C710   C     0.11589   0.66813   0.01961   0.00000  Uiso   1.00
C711   C     0.96616   0.69109   0.83931   0.00000  Uiso   1.00
C712   C     0.92252   0.69140   0.90306   0.00000  Uiso   1.00
C713   C     0.89678   0.73001   0.90070   0.00000  Uiso   1.00
H714   H     0.04550   0.74921   0.66250   0.00000  Uiso   1.00
H715   H     0.04857   0.70990   0.44091   0.00000  Uiso   1.00
H716   H     0.12157   0.75280   0.80519   0.00000  Uiso   1.00
H717   H     0.97124   0.79526   0.72359   0.00000  Uiso   1.00
H718   H     0.04434   0.65002   0.22342   0.00000  Uiso   1.00
H719   H     0.19825   0.74050   0.99154   0.00000  Uiso   1.00
H720   H     0.88127   0.83002   0.81948   0.00000  Uiso   1.00
H721   H     0.98661   0.62363   0.87947   0.00000  Uiso   1.00
H722   H     0.98644   0.57743   0.66979   0.00000  Uiso   1.00
H723   H     0.05944   0.62034   0.03406   0.00000  Uiso   1.00
H724   H     0.90912   0.66279   0.95246   0.00000  Uiso   1.00
H725   H     0.99392   0.54250   0.40918   0.00000  Uiso   1.00
H726   H     0.14784   0.63299   0.17731   0.00000  Uiso   1.00
H727   H     0.83085   0.72250   0.00524   0.00000  Uiso   1.00
O728   O     0.02009   0.56813   0.17445   0.00000  Uiso   1.00
O729   O     0.22202   0.68684   0.18222   0.00000  Uiso   1.00
O730   O     0.80614   0.80429   0.95647   0.00000  Uiso   1.00
N731   N     0.03248   0.63106   0.29591   0.00000  Uiso   1.00
N732   N     0.17639   0.71565   0.01404   0.00000  Uiso   1.00
N733   N     0.88004   0.79934   0.85321   0.00000  Uiso   1.00
N734   N     0.00535   0.57321   0.39586   0.00000  Uiso   1.00
N735   N     0.14926   0.65780   0.11400   0.00000  Uiso   1.00
N736   N     0.85291   0.74149   0.95316   0.00000  Uiso   1.00
