data_job_06843
_audit_creation_date              2018-12-19
_audit_creation_method            'Materials Studio'
_symmetry_space_group_name_H-M    'P1'
_symmetry_Int_Tables_number       1
_symmetry_cell_setting            triclinic
loop_
_symmetry_equiv_pos_as_xyz
  x,y,z
_cell_length_a                    38.9231
_cell_length_b                    27.3877
_cell_length_c                    21.1324
_cell_angle_alpha                 90.0000
_cell_angle_beta                  121.7629
_cell_angle_gamma                 90.0000
loop_
_atom_site_label
_atom_site_type_symbol
_atom_site_fract_x
_atom_site_fract_y
_atom_site_fract_z
_atom_site_U_iso_or_equiv
_atom_site_adp_type
_atom_site_occupancy
C1     C     0.72964   0.05495   0.42877   0.00000  Uiso   1.00
C2     C     0.72000   0.04703   0.48924   0.00000  Uiso   1.00
C3     C     0.68270   0.05446   0.48149   0.00000  Uiso   1.00
C4     C     0.68005   0.04516   0.54338   0.00000  Uiso   1.00
C5     C     0.65999   0.03534   0.62705   0.00000  Uiso   1.00
C6     C     0.76480   0.09092   0.46102   0.00000  Uiso   1.00
C7     C     0.76517   0.13524   0.42955   0.00000  Uiso   1.00
C8     C     0.80024   0.16288   0.46769   0.00000  Uiso   1.00
C9     C     0.84974   0.22118   0.50753   0.00000  Uiso   1.00
C10    C     0.74637   0.00654   0.42082   0.00000  Uiso   1.00
C11    C     0.73125   0.97992   0.35554   0.00000  Uiso   1.00
C12    C     0.75081   0.93652   0.35983   0.00000  Uiso   1.00
C13    C     0.77169   0.86381   0.33726   0.00000  Uiso   1.00
C14    C     0.79128   0.02522   0.55245   0.00000  Uiso   1.00
C15    C     0.75348   0.03089   0.55641   0.00000  Uiso   1.00
C16    C     0.75089   0.02157   0.61833   0.00000  Uiso   1.00
C17    C     0.71359   0.02898   0.61068   0.00000  Uiso   1.00
C18    C     0.79827   0.07477   0.52820   0.00000  Uiso   1.00
C19    C     0.83336   0.10235   0.56639   0.00000  Uiso   1.00
C20    C     0.83378   0.14670   0.53498   0.00000  Uiso   1.00
C21    C     0.77984   0.99039   0.48800   0.00000  Uiso   1.00
C22    C     0.79943   0.94703   0.49238   0.00000  Uiso   1.00
C23    C     0.78435   0.92035   0.42713   0.00000  Uiso   1.00
H24    H     0.70358   0.06752   0.37647   0.00000  Uiso   1.00
H25    H     0.65680   0.06696   0.42950   0.00000  Uiso   1.00
H26    H     0.73926   0.14772   0.37756   0.00000  Uiso   1.00
H27    H     0.70534   0.99242   0.30357   0.00000  Uiso   1.00
H28    H     0.61970   0.05923   0.51791   0.00000  Uiso   1.00
H29    H     0.79357   0.22952   0.40839   0.00000  Uiso   1.00
H30    H     0.72205   0.90204   0.25237   0.00000  Uiso   1.00
H31    H     0.81734   0.01265   0.60475   0.00000  Uiso   1.00
H32    H     0.77680   0.00908   0.67031   0.00000  Uiso   1.00
H33    H     0.85926   0.08984   0.61837   0.00000  Uiso   1.00
H34    H     0.82534   0.93455   0.54438   0.00000  Uiso   1.00
H35    H     0.71709   0.01225   0.71336   0.00000  Uiso   1.00
H36    H     0.89097   0.18254   0.60384   0.00000  Uiso   1.00
H37    H     0.81945   0.85507   0.44782   0.00000  Uiso   1.00
O38    O     0.63968   0.03440   0.65465   0.00000  Uiso   1.00
O39    O     0.86779   0.25780   0.51095   0.00000  Uiso   1.00
O40    O     0.77396   0.82816   0.30625   0.00000  Uiso   1.00
N41    N     0.64818   0.04866   0.55491   0.00000  Uiso   1.00
N42    N     0.81074   0.20787   0.45252   0.00000  Uiso   1.00
N43    N     0.74388   0.90171   0.30665   0.00000  Uiso   1.00
N44    N     0.70059   0.02338   0.66008   0.00000  Uiso   1.00
N45    N     0.86315   0.18259   0.55769   0.00000  Uiso   1.00
N46    N     0.79629   0.87644   0.41182   0.00000  Uiso   1.00
C47    C     0.95098   0.92225   0.87566   0.00000  Uiso   1.00
C48    C     0.90849   0.90803   0.85545   0.00000  Uiso   1.00
C49    C     0.89220   0.91568   0.89935   0.00000  Uiso   1.00
C50    C     0.85279   0.90003   0.87092   0.00000  Uiso   1.00
C51    C     0.79021   0.88135   0.85018   0.00000  Uiso   1.00
C52    C     0.97069   0.87544   0.87081   0.00000  Uiso   1.00
C53    C     0.00669   0.85569   0.92761   0.00000  Uiso   1.00
C54    C     0.01964   0.81260   0.91211   0.00000  Uiso   1.00
C55    C     0.55364   0.24334   0.91519   0.00000  Uiso   1.00
C56    C     0.94566   0.95489   0.81265   0.00000  Uiso   1.00
C57    C     0.96062   0.00196   0.82055   0.00000  Uiso   1.00
C58    C     0.95250   0.02576   0.75608   0.00000  Uiso   1.00
C59    C     0.94763   0.07988   0.66885   0.00000  Uiso   1.00
C60    C     0.90997   0.88084   0.74713   0.00000  Uiso   1.00
C61    C     0.88622   0.88553   0.78564   0.00000  Uiso   1.00
C62    C     0.84682   0.86987   0.75714   0.00000  Uiso   1.00
C63    C     0.83047   0.87749   0.80098   0.00000  Uiso   1.00
C64    C     0.94841   0.85294   0.80100   0.00000  Uiso   1.00
C65    C     0.96131   0.80988   0.78541   0.00000  Uiso   1.00
C66    C     0.99732   0.79007   0.84217   0.00000  Uiso   1.00
C67    C     0.92338   0.93240   0.74283   0.00000  Uiso   1.00
C68    C     0.91524   0.95614   0.67834   0.00000  Uiso   1.00
C69    C     0.93018   0.00323   0.68614   0.00000  Uiso   1.00
H70    H     0.96833   0.93976   0.93002   0.00000  Uiso   1.00
H71    H     0.90945   0.93309   0.95338   0.00000  Uiso   1.00
H72    H     0.02393   0.87311   0.98163   0.00000  Uiso   1.00
H73    H     0.97786   0.01935   0.87458   0.00000  Uiso   1.00
H74    H     0.83436   0.91575   0.94850   0.00000  Uiso   1.00
H75    H     0.57574   0.28930   0.00807   0.00000  Uiso   1.00
H76    H     0.97860   0.09768   0.78233   0.00000  Uiso   1.00
H77    H     0.89262   0.86332   0.69277   0.00000  Uiso   1.00
H78    H     0.82959   0.85246   0.70311   0.00000  Uiso   1.00
H79    H     0.94406   0.79248   0.73137   0.00000  Uiso   1.00
H80    H     0.89800   0.93872   0.62432   0.00000  Uiso   1.00
H81    H     0.76954   0.85031   0.74537   0.00000  Uiso   1.00
H82    H     0.51092   0.22386   0.80495   0.00000  Uiso   1.00
H83    H     0.91378   0.03224   0.57921   0.00000  Uiso   1.00
O84    O     0.76185   0.87725   0.85803   0.00000  Uiso   1.00
O85    O     0.57854   0.21135   0.93618   0.00000  Uiso   1.00
O86    O     0.95110   0.11594   0.64002   0.00000  Uiso   1.00
N87    N     0.82775   0.90185   0.89927   0.00000  Uiso   1.00
N88    N     0.55343   0.28362   0.95497   0.00000  Uiso   1.00
N89    N     0.96262   0.07192   0.74393   0.00000  Uiso   1.00
N90    N     0.79287   0.86664   0.78997   0.00000  Uiso   1.00
N91    N     0.51855   0.24841   0.84567   0.00000  Uiso   1.00
N92    N     0.92774   0.03671   0.63463   0.00000  Uiso   1.00
C93    C     0.42931   0.19830   0.58629   0.00000  Uiso   1.00
C94    C     0.89632   0.71704   0.59844   0.00000  Uiso   1.00
C95    C     0.87883   0.69098   0.63070   0.00000  Uiso   1.00
C96    C     0.84913   0.71458   0.63679   0.00000  Uiso   1.00
C97    C     0.79967   0.73637   0.65947   0.00000  Uiso   1.00
C98    C     0.91269   0.70375   0.50324   0.00000  Uiso   1.00
C99    C     0.40897   0.16653   0.45546   0.00000  Uiso   1.00
C100   C     0.89305   0.67895   0.38141   0.00000  Uiso   1.00
C101   C     0.86904   0.68012   0.25630   0.00000  Uiso   1.00
C102   C     0.46409   0.23460   0.62527   0.00000  Uiso   1.00
C103   C     0.50358   0.22332   0.68009   0.00000  Uiso   1.00
C104   C     0.53094   0.26172   0.70877   0.00000  Uiso   1.00
C105   C     0.58673   0.31079   0.77314   0.00000  Uiso   1.00
C106   C     0.90766   0.78656   0.53974   0.00000  Uiso   1.00
C107   C     0.88456   0.76497   0.57316   0.00000  Uiso   1.00
C108   C     0.85488   0.78863   0.57920   0.00000  Uiso   1.00
C109   C     0.83735   0.76261   0.61146   0.00000  Uiso   1.00
C110   C     0.90093   0.75169   0.47796   0.00000  Uiso   1.00
C111   C     0.88502   0.76417   0.40396   0.00000  Uiso   1.00
C112   C     0.88127   0.72698   0.35608   0.00000  Uiso   1.00
C113   C     0.95233   0.78254   0.59999   0.00000  Uiso   1.00
C114   C     0.97963   0.82097   0.62859   0.00000  Uiso   1.00
C115   C     0.01916   0.80974   0.68344   0.00000  Uiso   1.00
H116   H     0.43846   0.16098   0.60596   0.00000  Uiso   1.00
H117   H     0.38793   0.15388   0.65025   0.00000  Uiso   1.00
H118   H     0.41807   0.12943   0.47504   0.00000  Uiso   1.00
H119   H     0.51267   0.18622   0.69964   0.00000  Uiso   1.00
H120   H     0.82672   0.66714   0.68817   0.00000  Uiso   1.00
H121   H     0.39028   0.11560   0.31874   0.00000  Uiso   1.00
H122   H     0.58976   0.23534   0.79234   0.00000  Uiso   1.00
H123   H     0.89851   0.82389   0.52006   0.00000  Uiso   1.00
H124   H     0.84579   0.82572   0.55963   0.00000  Uiso   1.00
H125   H     0.87592   0.80127   0.38442   0.00000  Uiso   1.00
H126   H     0.97052   0.85806   0.60901   0.00000  Uiso   1.00
H127   H     0.79251   0.80661   0.61462   0.00000  Uiso   1.00
H128   H     0.85607   0.75507   0.24518   0.00000  Uiso   1.00
H129   H     0.05555   0.87481   0.71879   0.00000  Uiso   1.00
O130   O     0.77564   0.73514   0.67896   0.00000  Uiso   1.00
O131   O     0.85904   0.66752   0.19428   0.00000  Uiso   1.00
O132   O     0.62075   0.32461   0.81564   0.00000  Uiso   1.00
N133   N     0.82591   0.69972   0.66545   0.00000  Uiso   1.00
N134   N     0.38533   0.15152   0.32004   0.00000  Uiso   1.00
N135   N     0.57183   0.26347   0.76281   0.00000  Uiso   1.00
N136   N     0.80750   0.77477   0.62587   0.00000  Uiso   1.00
N137   N     0.86692   0.72657   0.28046   0.00000  Uiso   1.00
N138   N     0.05342   0.83852   0.72323   0.00000  Uiso   1.00
C139   C     0.74012   0.18150   0.94629   0.00000  Uiso   1.00
C140   C     0.72921   0.19320   0.00417   0.00000  Uiso   1.00
C141   C     0.69053   0.19309   0.99200   0.00000  Uiso   1.00
C142   C     0.68688   0.20480   0.05213   0.00000  Uiso   1.00
C143   C     0.66480   0.22121   0.13140   0.00000  Uiso   1.00
C144   C     0.77069   0.13989   0.97880   0.00000  Uiso   1.00
C145   C     0.76687   0.09497   0.94531   0.00000  Uiso   1.00
C146   C     0.79814   0.06180   0.98409   0.00000  Uiso   1.00
C147   C     0.84046   0.99546   0.02395   0.00000  Uiso   1.00
C148   C     0.76317   0.22577   0.94390   0.00000  Uiso   1.00
C149   C     0.75304   0.25306   0.88106   0.00000  Uiso   1.00
C150   C     0.77798   0.29219   0.89046   0.00000  Uiso   1.00
C151   C     0.80862   0.35921   0.87613   0.00000  Uiso   1.00
C152   C     0.80243   0.20248   0.07471   0.00000  Uiso   1.00
C153   C     0.76306   0.20459   0.07392   0.00000  Uiso   1.00
C154   C     0.75947   0.21630   0.13408   0.00000  Uiso   1.00
C155   C     0.72079   0.21622   0.12201   0.00000  Uiso   1.00
C156   C     0.80453   0.15128   0.04855   0.00000  Uiso   1.00
C157   C     0.83581   0.11818   0.08739   0.00000  Uiso   1.00
C158   C     0.83205   0.07321   0.05397   0.00000  Uiso   1.00
C159   C     0.79701   0.23717   0.01365   0.00000  Uiso   1.00
C160   C     0.82198   0.27627   0.02314   0.00000  Uiso   1.00
C161   C     0.81188   0.30361   0.96033   0.00000  Uiso   1.00
H162   H     0.71377   0.17262   0.89199   0.00000  Uiso   1.00
H163   H     0.66434   0.18427   0.93802   0.00000  Uiso   1.00
H164   H     0.74068   0.08616   0.89133   0.00000  Uiso   1.00
H165   H     0.72684   0.24423   0.82710   0.00000  Uiso   1.00
H166   H     0.62447   0.20219   0.01982   0.00000  Uiso   1.00
H167   H     0.78543   0.99533   0.92136   0.00000  Uiso   1.00
H168   H     0.75626   0.32864   0.78591   0.00000  Uiso   1.00
H169   H     0.82879   0.21135   0.12901   0.00000  Uiso   1.00
H170   H     0.78567   0.22512   0.18805   0.00000  Uiso   1.00
H171   H     0.86200   0.12701   0.14136   0.00000  Uiso   1.00
H172   H     0.84817   0.28508   0.07713   0.00000  Uiso   1.00
H173   H     0.72294   0.23534   0.22276   0.00000  Uiso   1.00
H174   H     0.88390   0.02848   0.12430   0.00000  Uiso   1.00
H175   H     0.85473   0.36180   0.98885   0.00000  Uiso   1.00
O176   O     0.64327   0.22711   0.15586   0.00000  Uiso   1.00
O177   O     0.85444   0.95572   0.02668   0.00000  Uiso   1.00
O178   O     0.81616   0.39302   0.84897   0.00000  Uiso   1.00
N179   N     0.65356   0.20811   0.05947   0.00000  Uiso   1.00
N180   N     0.80405   0.01470   0.96743   0.00000  Uiso   1.00
N181   N     0.77678   0.32632   0.84079   0.00000  Uiso   1.00
N182   N     0.70655   0.22595   0.16867   0.00000  Uiso   1.00
N183   N     0.85703   0.03254   0.07663   0.00000  Uiso   1.00
N184   N     0.82976   0.34416   0.94999   0.00000  Uiso   1.00
C185   C     0.46925   0.82468   0.38036   0.00000  Uiso   1.00
C186   C     0.42472   0.83002   0.35437   0.00000  Uiso   1.00
C187   C     0.40726   0.81654   0.39453   0.00000  Uiso   1.00
C188   C     0.86602   0.32441   0.36104   0.00000  Uiso   1.00
C189   C     0.80036   0.32959   0.33151   0.00000  Uiso   1.00
C190   C     0.48372   0.87561   0.37606   0.00000  Uiso   1.00
C191   C     0.51587   0.90046   0.43446   0.00000  Uiso   1.00
C192   C     0.52431   0.94672   0.41921   0.00000  Uiso   1.00
C193   C     0.55027   0.02267   0.42335   0.00000  Uiso   1.00
C194   C     0.47041   0.79442   0.32094   0.00000  Uiso   1.00
C195   C     0.49138   0.75100   0.33299   0.00000  Uiso   1.00
C196   C     0.48862   0.72890   0.27134   0.00000  Uiso   1.00
C197   C     0.99391   0.17878   0.18990   0.00000  Uiso   1.00
C198   C     0.42707   0.86263   0.24945   0.00000  Uiso   1.00
C199   C     0.40181   0.85064   0.28327   0.00000  Uiso   1.00
C200   C     0.36059   0.85853   0.24970   0.00000  Uiso   1.00
C201   C     0.84307   0.34507   0.28980   0.00000  Uiso   1.00
C202   C     0.46081   0.89623   0.30496   0.00000  Uiso   1.00
C203   C     0.46920   0.94246   0.28962   0.00000  Uiso   1.00
C204   C     0.50136   0.96737   0.34798   0.00000  Uiso   1.00
C205   C     0.44750   0.81503   0.24984   0.00000  Uiso   1.00
C206   C     0.44471   0.79299   0.18816   0.00000  Uiso   1.00
C207   C     0.96567   0.24955   0.20011   0.00000  Uiso   1.00
H208   H     0.48709   0.80863   0.43572   0.00000  Uiso   1.00
H209   H     0.42500   0.80059   0.44956   0.00000  Uiso   1.00
H210   H     0.53360   0.88450   0.48947   0.00000  Uiso   1.00
H211   H     0.50911   0.73506   0.38803   0.00000  Uiso   1.00
H212   H     0.84606   0.30078   0.43356   0.00000  Uiso   1.00
H213   H     0.57506   0.97770   0.51771   0.00000  Uiso   1.00
H214   H     0.02341   0.16258   0.30379   0.00000  Uiso   1.00
H215   H     0.40924   0.87869   0.19409   0.00000  Uiso   1.00
H216   H     0.34287   0.87449   0.19467   0.00000  Uiso   1.00
H217   H     0.45147   0.95840   0.23459   0.00000  Uiso   1.00
H218   H     0.42698   0.80896   0.13314   0.00000  Uiso   1.00
H219   H     0.77940   0.36077   0.22669   0.00000  Uiso   1.00
H220   H     0.50840   0.03768   0.31084   0.00000  Uiso   1.00
H221   H     0.95675   0.22256   0.09692   0.00000  Uiso   1.00
O222   O     0.77048   0.32676   0.33488   0.00000  Uiso   1.00
O223   O     0.57092   0.05887   0.44528   0.00000  Uiso   1.00
O224   O     0.00316   0.14543   0.16462   0.00000  Uiso   1.00
N225   N     0.83948   0.31547   0.38479   0.00000  Uiso   1.00
N226   N     0.55357   0.98088   0.46347   0.00000  Uiso   1.00
N227   N     0.00530   0.18627   0.26347   0.00000  Uiso   1.00
N228   N     0.80360   0.34774   0.27347   0.00000  Uiso   1.00
N229   N     0.51770   0.01315   0.35215   0.00000  Uiso   1.00
N230   N     0.96943   0.21855   0.15215   0.00000  Uiso   1.00
C231   C     0.42875   0.06432   0.09884   0.00000  Uiso   1.00
C232   C     0.39760   0.03934   0.11082   0.00000  Uiso   1.00
C233   C     0.37851   0.06023   0.14413   0.00000  Uiso   1.00
C234   C     0.35095   0.03135   0.14984   0.00000  Uiso   1.00
C235   C     0.30380   0.99987   0.17247   0.00000  Uiso   1.00
C236   C     0.41220   0.06115   0.01557   0.00000  Uiso   1.00
C237   C     0.40539   0.10039   0.96880   0.00000  Uiso   1.00
C238   C     0.39012   0.08987   0.89434   0.00000  Uiso   1.00
C239   C     0.36568   0.09226   0.76910   0.00000  Uiso   1.00
C240   C     0.46618   0.03185   0.13649   0.00000  Uiso   1.00
C241   C     0.50475   0.04646   0.19138   0.00000  Uiso   1.00
C242   C     0.53493   0.01127   0.21871   0.00000  Uiso   1.00
C243   C     0.59428   0.96817   0.28121   0.00000  Uiso   1.00
C244   C     0.41376   0.97587   0.04977   0.00000  Uiso   1.00
C245   C     0.38946   0.99129   0.08416   0.00000  Uiso   1.00
C246   C     0.36192   0.96237   0.08983   0.00000  Uiso   1.00
C247   C     0.34279   0.98322   0.12315   0.00000  Uiso   1.00
C248   C     0.40406   0.01311   0.98892   0.00000  Uiso   1.00
C249   C     0.38880   0.00253   0.91451   0.00000  Uiso   1.00
C250   C     0.38197   0.04174   0.86764   0.00000  Uiso   1.00
C251   C     0.45803   0.98381   0.10984   0.00000  Uiso   1.00
C252   C     0.48816   0.94859   0.13709   0.00000  Uiso   1.00
C253   C     0.52677   0.96314   0.19201   0.00000  Uiso   1.00
H254   H     0.43509   0.10172   0.11959   0.00000  Uiso   1.00
H255   H     0.38482   0.09742   0.16474   0.00000  Uiso   1.00
H256   H     0.41170   0.13757   0.98945   0.00000  Uiso   1.00
H257   H     0.51104   0.08364   0.21199   0.00000  Uiso   1.00
H258   H     0.32548   0.07146   0.20302   0.00000  Uiso   1.00
H259   H     0.38217   0.15612   0.83341   0.00000  Uiso   1.00
H260   H     0.59165   0.04240   0.30268   0.00000  Uiso   1.00
H261   H     0.40742   0.93846   0.02901   0.00000  Uiso   1.00
H262   H     0.35563   0.92519   0.06920   0.00000  Uiso   1.00
H263   H     0.38251   0.96534   0.89391   0.00000  Uiso   1.00
H264   H     0.48185   0.91142   0.11645   0.00000  Uiso   1.00
H265   H     0.30178   0.93167   0.12548   0.00000  Uiso   1.00
H266   H     0.35848   0.01633   0.75586   0.00000  Uiso   1.00
H267   H     0.56795   0.90262   0.22514   0.00000  Uiso   1.00
O268   O     0.28005   0.99579   0.19230   0.00000  Uiso   1.00
O269   O     0.35443   0.10686   0.70739   0.00000  Uiso   1.00
O270   O     0.62926   0.95767   0.32306   0.00000  Uiso   1.00
N271   N     0.32701   0.04038   0.17927   0.00000  Uiso   1.00
N272   N     0.38001   0.11953   0.83370   0.00000  Uiso   1.00
N273   N     0.57586   0.01322   0.27242   0.00000  Uiso   1.00
N274   N     0.31426   0.96516   0.13755   0.00000  Uiso   1.00
N275   N     0.36726   0.04431   0.79198   0.00000  Uiso   1.00
N276   N     0.56311   0.93800   0.23069   0.00000  Uiso   1.00
C277   C     0.22964   0.55495   0.42877   0.00000  Uiso   1.00
C278   C     0.22000   0.54703   0.48924   0.00000  Uiso   1.00
C279   C     0.18270   0.55446   0.48149   0.00000  Uiso   1.00
C280   C     0.18005   0.54516   0.54338   0.00000  Uiso   1.00
C281   C     0.15999   0.53534   0.62705   0.00000  Uiso   1.00
C282   C     0.26480   0.59092   0.46102   0.00000  Uiso   1.00
C283   C     0.26517   0.63524   0.42955   0.00000  Uiso   1.00
C284   C     0.30024   0.66288   0.46769   0.00000  Uiso   1.00
C285   C     0.34974   0.72118   0.50753   0.00000  Uiso   1.00
C286   C     0.24637   0.50654   0.42082   0.00000  Uiso   1.00
C287   C     0.23125   0.47992   0.35554   0.00000  Uiso   1.00
C288   C     0.25081   0.43652   0.35983   0.00000  Uiso   1.00
C289   C     0.27169   0.36381   0.33726   0.00000  Uiso   1.00
C290   C     0.29128   0.52522   0.55245   0.00000  Uiso   1.00
C291   C     0.25348   0.53089   0.55641   0.00000  Uiso   1.00
C292   C     0.25089   0.52157   0.61833   0.00000  Uiso   1.00
C293   C     0.21359   0.52898   0.61068   0.00000  Uiso   1.00
C294   C     0.29827   0.57477   0.52820   0.00000  Uiso   1.00
C295   C     0.33336   0.60235   0.56639   0.00000  Uiso   1.00
C296   C     0.33378   0.64670   0.53498   0.00000  Uiso   1.00
C297   C     0.27984   0.49039   0.48800   0.00000  Uiso   1.00
C298   C     0.29943   0.44703   0.49238   0.00000  Uiso   1.00
C299   C     0.28435   0.42035   0.42713   0.00000  Uiso   1.00
H300   H     0.20358   0.56752   0.37647   0.00000  Uiso   1.00
H301   H     0.15680   0.56696   0.42950   0.00000  Uiso   1.00
H302   H     0.23926   0.64772   0.37756   0.00000  Uiso   1.00
H303   H     0.20534   0.49242   0.30357   0.00000  Uiso   1.00
H304   H     0.11970   0.55923   0.51791   0.00000  Uiso   1.00
H305   H     0.29357   0.72952   0.40839   0.00000  Uiso   1.00
H306   H     0.22205   0.40204   0.25237   0.00000  Uiso   1.00
H307   H     0.31734   0.51265   0.60475   0.00000  Uiso   1.00
H308   H     0.27680   0.50908   0.67031   0.00000  Uiso   1.00
H309   H     0.35926   0.58984   0.61837   0.00000  Uiso   1.00
H310   H     0.32534   0.43455   0.54438   0.00000  Uiso   1.00
H311   H     0.21709   0.51225   0.71336   0.00000  Uiso   1.00
H312   H     0.39097   0.68254   0.60384   0.00000  Uiso   1.00
H313   H     0.31945   0.35507   0.44782   0.00000  Uiso   1.00
O314   O     0.13968   0.53440   0.65465   0.00000  Uiso   1.00
O315   O     0.36779   0.75780   0.51095   0.00000  Uiso   1.00
O316   O     0.27396   0.32816   0.30625   0.00000  Uiso   1.00
N317   N     0.14818   0.54866   0.55491   0.00000  Uiso   1.00
N318   N     0.31074   0.70787   0.45252   0.00000  Uiso   1.00
N319   N     0.24388   0.40171   0.30665   0.00000  Uiso   1.00
N320   N     0.20059   0.52338   0.66008   0.00000  Uiso   1.00
N321   N     0.36315   0.68259   0.55769   0.00000  Uiso   1.00
N322   N     0.29629   0.37644   0.41182   0.00000  Uiso   1.00
C323   C     0.45098   0.42225   0.87566   0.00000  Uiso   1.00
C324   C     0.40849   0.40803   0.85545   0.00000  Uiso   1.00
C325   C     0.39220   0.41568   0.89935   0.00000  Uiso   1.00
C326   C     0.35279   0.40003   0.87092   0.00000  Uiso   1.00
C327   C     0.29021   0.38135   0.85018   0.00000  Uiso   1.00
C328   C     0.47069   0.37544   0.87081   0.00000  Uiso   1.00
C329   C     0.50669   0.35569   0.92761   0.00000  Uiso   1.00
C330   C     0.51964   0.31260   0.91211   0.00000  Uiso   1.00
C331   C     0.05364   0.74334   0.91519   0.00000  Uiso   1.00
C332   C     0.44566   0.45489   0.81265   0.00000  Uiso   1.00
C333   C     0.46062   0.50196   0.82055   0.00000  Uiso   1.00
C334   C     0.45250   0.52576   0.75608   0.00000  Uiso   1.00
C335   C     0.44763   0.57988   0.66885   0.00000  Uiso   1.00
C336   C     0.40997   0.38084   0.74713   0.00000  Uiso   1.00
C337   C     0.38622   0.38553   0.78564   0.00000  Uiso   1.00
C338   C     0.34682   0.36987   0.75714   0.00000  Uiso   1.00
C339   C     0.33047   0.37749   0.80098   0.00000  Uiso   1.00
C340   C     0.44841   0.35294   0.80100   0.00000  Uiso   1.00
C341   C     0.46131   0.30988   0.78541   0.00000  Uiso   1.00
C342   C     0.49732   0.29007   0.84217   0.00000  Uiso   1.00
C343   C     0.42338   0.43240   0.74283   0.00000  Uiso   1.00
C344   C     0.41524   0.45614   0.67834   0.00000  Uiso   1.00
C345   C     0.43018   0.50323   0.68614   0.00000  Uiso   1.00
H346   H     0.46833   0.43976   0.93002   0.00000  Uiso   1.00
H347   H     0.40945   0.43309   0.95338   0.00000  Uiso   1.00
H348   H     0.52393   0.37311   0.98163   0.00000  Uiso   1.00
H349   H     0.47786   0.51935   0.87458   0.00000  Uiso   1.00
H350   H     0.33436   0.41575   0.94850   0.00000  Uiso   1.00
H351   H     0.07574   0.78930   0.00807   0.00000  Uiso   1.00
H352   H     0.47860   0.59768   0.78233   0.00000  Uiso   1.00
H353   H     0.39262   0.36332   0.69277   0.00000  Uiso   1.00
H354   H     0.32959   0.35246   0.70311   0.00000  Uiso   1.00
H355   H     0.44406   0.29248   0.73137   0.00000  Uiso   1.00
H356   H     0.39800   0.43872   0.62432   0.00000  Uiso   1.00
H357   H     0.26954   0.35031   0.74537   0.00000  Uiso   1.00
H358   H     0.01092   0.72386   0.80495   0.00000  Uiso   1.00
H359   H     0.41378   0.53224   0.57921   0.00000  Uiso   1.00
O360   O     0.26185   0.37725   0.85803   0.00000  Uiso   1.00
O361   O     0.07854   0.71135   0.93618   0.00000  Uiso   1.00
O362   O     0.45110   0.61594   0.64002   0.00000  Uiso   1.00
N363   N     0.32775   0.40185   0.89927   0.00000  Uiso   1.00
N364   N     0.05343   0.78362   0.95497   0.00000  Uiso   1.00
N365   N     0.46262   0.57192   0.74393   0.00000  Uiso   1.00
N366   N     0.29287   0.36664   0.78997   0.00000  Uiso   1.00
N367   N     0.01855   0.74841   0.84567   0.00000  Uiso   1.00
N368   N     0.42774   0.53671   0.63463   0.00000  Uiso   1.00
C369   C     0.92931   0.69830   0.58629   0.00000  Uiso   1.00
C370   C     0.39632   0.21704   0.59844   0.00000  Uiso   1.00
C371   C     0.37883   0.19098   0.63070   0.00000  Uiso   1.00
C372   C     0.34913   0.21458   0.63679   0.00000  Uiso   1.00
C373   C     0.29967   0.23637   0.65947   0.00000  Uiso   1.00
C374   C     0.41269   0.20375   0.50324   0.00000  Uiso   1.00
C375   C     0.90897   0.66653   0.45546   0.00000  Uiso   1.00
C376   C     0.39305   0.17895   0.38141   0.00000  Uiso   1.00
C377   C     0.36904   0.18012   0.25630   0.00000  Uiso   1.00
C378   C     0.96409   0.73460   0.62527   0.00000  Uiso   1.00
C379   C     0.00358   0.72332   0.68009   0.00000  Uiso   1.00
C380   C     0.03094   0.76172   0.70877   0.00000  Uiso   1.00
C381   C     0.08673   0.81079   0.77314   0.00000  Uiso   1.00
C382   C     0.40766   0.28656   0.53974   0.00000  Uiso   1.00
C383   C     0.38456   0.26497   0.57316   0.00000  Uiso   1.00
C384   C     0.35488   0.28863   0.57920   0.00000  Uiso   1.00
C385   C     0.33735   0.26261   0.61146   0.00000  Uiso   1.00
C386   C     0.40093   0.25169   0.47796   0.00000  Uiso   1.00
C387   C     0.38502   0.26417   0.40396   0.00000  Uiso   1.00
C388   C     0.38127   0.22698   0.35608   0.00000  Uiso   1.00
C389   C     0.45233   0.28254   0.59999   0.00000  Uiso   1.00
C390   C     0.47963   0.32097   0.62859   0.00000  Uiso   1.00
C391   C     0.51916   0.30974   0.68344   0.00000  Uiso   1.00
H392   H     0.93846   0.66098   0.60596   0.00000  Uiso   1.00
H393   H     0.88793   0.65388   0.65025   0.00000  Uiso   1.00
H394   H     0.91807   0.62943   0.47504   0.00000  Uiso   1.00
H395   H     0.01267   0.68622   0.69964   0.00000  Uiso   1.00
H396   H     0.32672   0.16714   0.68817   0.00000  Uiso   1.00
H397   H     0.89028   0.61560   0.31874   0.00000  Uiso   1.00
H398   H     0.08976   0.73534   0.79234   0.00000  Uiso   1.00
H399   H     0.39851   0.32389   0.52006   0.00000  Uiso   1.00
H400   H     0.34579   0.32572   0.55963   0.00000  Uiso   1.00
H401   H     0.37592   0.30127   0.38442   0.00000  Uiso   1.00
H402   H     0.47052   0.35806   0.60901   0.00000  Uiso   1.00
H403   H     0.29251   0.30661   0.61462   0.00000  Uiso   1.00
H404   H     0.35607   0.25507   0.24518   0.00000  Uiso   1.00
H405   H     0.55555   0.37481   0.71879   0.00000  Uiso   1.00
O406   O     0.27564   0.23514   0.67896   0.00000  Uiso   1.00
O407   O     0.35904   0.16752   0.19428   0.00000  Uiso   1.00
O408   O     0.12075   0.82461   0.81564   0.00000  Uiso   1.00
N409   N     0.32591   0.19972   0.66545   0.00000  Uiso   1.00
N410   N     0.88533   0.65152   0.32004   0.00000  Uiso   1.00
N411   N     0.07183   0.76347   0.76281   0.00000  Uiso   1.00
N412   N     0.30750   0.27477   0.62587   0.00000  Uiso   1.00
N413   N     0.36692   0.22657   0.28046   0.00000  Uiso   1.00
N414   N     0.55342   0.33852   0.72323   0.00000  Uiso   1.00
C415   C     0.24012   0.68150   0.94629   0.00000  Uiso   1.00
C416   C     0.22921   0.69320   0.00417   0.00000  Uiso   1.00
C417   C     0.19053   0.69309   0.99200   0.00000  Uiso   1.00
C418   C     0.18688   0.70480   0.05213   0.00000  Uiso   1.00
C419   C     0.16480   0.72121   0.13140   0.00000  Uiso   1.00
C420   C     0.27069   0.63989   0.97880   0.00000  Uiso   1.00
C421   C     0.26687   0.59497   0.94531   0.00000  Uiso   1.00
C422   C     0.29814   0.56180   0.98409   0.00000  Uiso   1.00
C423   C     0.34046   0.49546   0.02395   0.00000  Uiso   1.00
C424   C     0.26317   0.72577   0.94390   0.00000  Uiso   1.00
C425   C     0.25304   0.75306   0.88106   0.00000  Uiso   1.00
C426   C     0.27798   0.79219   0.89046   0.00000  Uiso   1.00
C427   C     0.30862   0.85921   0.87613   0.00000  Uiso   1.00
C428   C     0.30243   0.70248   0.07471   0.00000  Uiso   1.00
C429   C     0.26306   0.70459   0.07392   0.00000  Uiso   1.00
C430   C     0.25947   0.71630   0.13408   0.00000  Uiso   1.00
C431   C     0.22079   0.71622   0.12201   0.00000  Uiso   1.00
C432   C     0.30453   0.65128   0.04855   0.00000  Uiso   1.00
C433   C     0.33581   0.61818   0.08739   0.00000  Uiso   1.00
C434   C     0.33205   0.57321   0.05397   0.00000  Uiso   1.00
C435   C     0.29701   0.73717   0.01365   0.00000  Uiso   1.00
C436   C     0.32198   0.77627   0.02314   0.00000  Uiso   1.00
C437   C     0.31188   0.80361   0.96033   0.00000  Uiso   1.00
H438   H     0.21377   0.67262   0.89199   0.00000  Uiso   1.00
H439   H     0.16434   0.68427   0.93802   0.00000  Uiso   1.00
H440   H     0.24068   0.58616   0.89133   0.00000  Uiso   1.00
H441   H     0.22684   0.74423   0.82710   0.00000  Uiso   1.00
H442   H     0.12447   0.70219   0.01982   0.00000  Uiso   1.00
H443   H     0.28543   0.49533   0.92136   0.00000  Uiso   1.00
H444   H     0.25626   0.82864   0.78591   0.00000  Uiso   1.00
H445   H     0.32879   0.71135   0.12901   0.00000  Uiso   1.00
H446   H     0.28567   0.72512   0.18805   0.00000  Uiso   1.00
H447   H     0.36200   0.62701   0.14136   0.00000  Uiso   1.00
H448   H     0.34817   0.78508   0.07713   0.00000  Uiso   1.00
H449   H     0.22294   0.73534   0.22276   0.00000  Uiso   1.00
H450   H     0.38390   0.52848   0.12430   0.00000  Uiso   1.00
H451   H     0.35473   0.86180   0.98885   0.00000  Uiso   1.00
O452   O     0.14327   0.72711   0.15586   0.00000  Uiso   1.00
O453   O     0.35444   0.45572   0.02668   0.00000  Uiso   1.00
O454   O     0.31616   0.89302   0.84897   0.00000  Uiso   1.00
N455   N     0.15356   0.70811   0.05947   0.00000  Uiso   1.00
N456   N     0.30405   0.51470   0.96743   0.00000  Uiso   1.00
N457   N     0.27678   0.82632   0.84079   0.00000  Uiso   1.00
N458   N     0.20655   0.72595   0.16867   0.00000  Uiso   1.00
N459   N     0.35703   0.53254   0.07663   0.00000  Uiso   1.00
N460   N     0.32976   0.84416   0.94999   0.00000  Uiso   1.00
C461   C     0.96925   0.32468   0.38036   0.00000  Uiso   1.00
C462   C     0.92472   0.33002   0.35437   0.00000  Uiso   1.00
C463   C     0.90726   0.31654   0.39453   0.00000  Uiso   1.00
C464   C     0.36602   0.82441   0.36104   0.00000  Uiso   1.00
C465   C     0.30036   0.82959   0.33151   0.00000  Uiso   1.00
C466   C     0.98372   0.37561   0.37606   0.00000  Uiso   1.00
C467   C     0.01587   0.40046   0.43446   0.00000  Uiso   1.00
C468   C     0.02431   0.44672   0.41921   0.00000  Uiso   1.00
C469   C     0.05027   0.52267   0.42335   0.00000  Uiso   1.00
C470   C     0.97041   0.29442   0.32094   0.00000  Uiso   1.00
C471   C     0.99138   0.25100   0.33299   0.00000  Uiso   1.00
C472   C     0.98862   0.22890   0.27134   0.00000  Uiso   1.00
C473   C     0.49391   0.67878   0.18990   0.00000  Uiso   1.00
C474   C     0.92707   0.36263   0.24945   0.00000  Uiso   1.00
C475   C     0.90181   0.35064   0.28327   0.00000  Uiso   1.00
C476   C     0.86059   0.35853   0.24970   0.00000  Uiso   1.00
C477   C     0.34307   0.84507   0.28980   0.00000  Uiso   1.00
C478   C     0.96081   0.39623   0.30496   0.00000  Uiso   1.00
C479   C     0.96920   0.44246   0.28962   0.00000  Uiso   1.00
C480   C     0.00136   0.46737   0.34798   0.00000  Uiso   1.00
C481   C     0.94750   0.31503   0.24984   0.00000  Uiso   1.00
C482   C     0.94471   0.29299   0.18816   0.00000  Uiso   1.00
C483   C     0.46567   0.74955   0.20011   0.00000  Uiso   1.00
H484   H     0.98709   0.30863   0.43572   0.00000  Uiso   1.00
H485   H     0.92500   0.30059   0.44956   0.00000  Uiso   1.00
H486   H     0.03360   0.38450   0.48947   0.00000  Uiso   1.00
H487   H     0.00911   0.23506   0.38803   0.00000  Uiso   1.00
H488   H     0.34606   0.80078   0.43356   0.00000  Uiso   1.00
H489   H     0.07506   0.47770   0.51771   0.00000  Uiso   1.00
H490   H     0.52341   0.66258   0.30379   0.00000  Uiso   1.00
H491   H     0.90924   0.37869   0.19409   0.00000  Uiso   1.00
H492   H     0.84287   0.37449   0.19467   0.00000  Uiso   1.00
H493   H     0.95147   0.45840   0.23459   0.00000  Uiso   1.00
H494   H     0.92698   0.30896   0.13314   0.00000  Uiso   1.00
H495   H     0.27940   0.86077   0.22669   0.00000  Uiso   1.00
H496   H     0.00840   0.53768   0.31084   0.00000  Uiso   1.00
H497   H     0.45675   0.72256   0.09692   0.00000  Uiso   1.00
O498   O     0.27048   0.82676   0.33488   0.00000  Uiso   1.00
O499   O     0.07092   0.55887   0.44528   0.00000  Uiso   1.00
O500   O     0.50316   0.64543   0.16462   0.00000  Uiso   1.00
N501   N     0.33948   0.81547   0.38479   0.00000  Uiso   1.00
N502   N     0.05357   0.48088   0.46347   0.00000  Uiso   1.00
N503   N     0.50530   0.68627   0.26347   0.00000  Uiso   1.00
N504   N     0.30360   0.84774   0.27347   0.00000  Uiso   1.00
N505   N     0.01770   0.51315   0.35215   0.00000  Uiso   1.00
N506   N     0.46943   0.71855   0.15215   0.00000  Uiso   1.00
C507   C     0.92875   0.56432   0.09884   0.00000  Uiso   1.00
C508   C     0.89760   0.53934   0.11082   0.00000  Uiso   1.00
C509   C     0.87851   0.56023   0.14413   0.00000  Uiso   1.00
C510   C     0.85095   0.53135   0.14984   0.00000  Uiso   1.00
C511   C     0.80380   0.49987   0.17247   0.00000  Uiso   1.00
C512   C     0.91220   0.56115   0.01557   0.00000  Uiso   1.00
C513   C     0.90539   0.60039   0.96880   0.00000  Uiso   1.00
C514   C     0.89012   0.58987   0.89434   0.00000  Uiso   1.00
C515   C     0.86568   0.59226   0.76910   0.00000  Uiso   1.00
C516   C     0.96618   0.53185   0.13649   0.00000  Uiso   1.00
C517   C     0.00475   0.54646   0.19138   0.00000  Uiso   1.00
C518   C     0.03493   0.51127   0.21871   0.00000  Uiso   1.00
C519   C     0.09428   0.46817   0.28121   0.00000  Uiso   1.00
C520   C     0.91376   0.47587   0.04977   0.00000  Uiso   1.00
C521   C     0.88946   0.49129   0.08416   0.00000  Uiso   1.00
C522   C     0.86192   0.46237   0.08983   0.00000  Uiso   1.00
C523   C     0.84279   0.48322   0.12315   0.00000  Uiso   1.00
C524   C     0.90406   0.51311   0.98892   0.00000  Uiso   1.00
C525   C     0.88880   0.50253   0.91451   0.00000  Uiso   1.00
C526   C     0.88197   0.54174   0.86764   0.00000  Uiso   1.00
C527   C     0.95803   0.48381   0.10984   0.00000  Uiso   1.00
C528   C     0.98816   0.44859   0.13709   0.00000  Uiso   1.00
C529   C     0.02677   0.46314   0.19201   0.00000  Uiso   1.00
H530   H     0.93509   0.60172   0.11959   0.00000  Uiso   1.00
H531   H     0.88482   0.59742   0.16474   0.00000  Uiso   1.00
H532   H     0.91170   0.63757   0.98945   0.00000  Uiso   1.00
H533   H     0.01104   0.58364   0.21199   0.00000  Uiso   1.00
H534   H     0.82548   0.57146   0.20302   0.00000  Uiso   1.00
H535   H     0.88217   0.65612   0.83341   0.00000  Uiso   1.00
H536   H     0.09165   0.54240   0.30268   0.00000  Uiso   1.00
H537   H     0.90742   0.43846   0.02901   0.00000  Uiso   1.00
H538   H     0.85563   0.42519   0.06920   0.00000  Uiso   1.00
H539   H     0.88251   0.46534   0.89391   0.00000  Uiso   1.00
H540   H     0.98185   0.41142   0.11645   0.00000  Uiso   1.00
H541   H     0.80178   0.43167   0.12548   0.00000  Uiso   1.00
H542   H     0.85848   0.51633   0.75586   0.00000  Uiso   1.00
H543   H     0.06795   0.40262   0.22514   0.00000  Uiso   1.00
O544   O     0.78005   0.49579   0.19230   0.00000  Uiso   1.00
O545   O     0.85443   0.60686   0.70739   0.00000  Uiso   1.00
O546   O     0.12926   0.45767   0.32306   0.00000  Uiso   1.00
N547   N     0.82701   0.54038   0.17927   0.00000  Uiso   1.00
N548   N     0.88001   0.61953   0.83370   0.00000  Uiso   1.00
N549   N     0.07586   0.51322   0.27242   0.00000  Uiso   1.00
N550   N     0.81426   0.46516   0.13755   0.00000  Uiso   1.00
N551   N     0.86726   0.54431   0.79198   0.00000  Uiso   1.00
N552   N     0.06311   0.43800   0.23069   0.00000  Uiso   1.00
C553   C     0.27036   0.05495   0.57123   0.00000  Uiso   1.00
C554   C     0.28000   0.04703   0.51076   0.00000  Uiso   1.00
C555   C     0.31730   0.05446   0.51851   0.00000  Uiso   1.00
C556   C     0.31995   0.04516   0.45662   0.00000  Uiso   1.00
C557   C     0.34001   0.03534   0.37295   0.00000  Uiso   1.00
C558   C     0.23520   0.09092   0.53898   0.00000  Uiso   1.00
C559   C     0.23483   0.13524   0.57045   0.00000  Uiso   1.00
C560   C     0.19976   0.16288   0.53231   0.00000  Uiso   1.00
C561   C     0.15026   0.22118   0.49247   0.00000  Uiso   1.00
C562   C     0.25363   0.00654   0.57918   0.00000  Uiso   1.00
C563   C     0.26875   0.97992   0.64446   0.00000  Uiso   1.00
C564   C     0.24919   0.93652   0.64017   0.00000  Uiso   1.00
C565   C     0.22831   0.86381   0.66274   0.00000  Uiso   1.00
C566   C     0.20872   0.02522   0.44755   0.00000  Uiso   1.00
C567   C     0.24652   0.03089   0.44359   0.00000  Uiso   1.00
C568   C     0.24911   0.02157   0.38167   0.00000  Uiso   1.00
C569   C     0.28641   0.02898   0.38932   0.00000  Uiso   1.00
C570   C     0.20173   0.07477   0.47180   0.00000  Uiso   1.00
C571   C     0.16664   0.10235   0.43361   0.00000  Uiso   1.00
C572   C     0.16622   0.14670   0.46502   0.00000  Uiso   1.00
C573   C     0.22016   0.99039   0.51200   0.00000  Uiso   1.00
C574   C     0.20057   0.94703   0.50762   0.00000  Uiso   1.00
C575   C     0.21565   0.92035   0.57287   0.00000  Uiso   1.00
H576   H     0.29642   0.06752   0.62353   0.00000  Uiso   1.00
H577   H     0.34320   0.06696   0.57050   0.00000  Uiso   1.00
H578   H     0.26074   0.14772   0.62244   0.00000  Uiso   1.00
H579   H     0.29466   0.99242   0.69643   0.00000  Uiso   1.00
H580   H     0.38030   0.05923   0.48209   0.00000  Uiso   1.00
H581   H     0.20643   0.22952   0.59161   0.00000  Uiso   1.00
H582   H     0.27795   0.90204   0.74763   0.00000  Uiso   1.00
H583   H     0.18266   0.01265   0.39525   0.00000  Uiso   1.00
H584   H     0.22320   0.00908   0.32969   0.00000  Uiso   1.00
H585   H     0.14074   0.08984   0.38163   0.00000  Uiso   1.00
H586   H     0.17466   0.93455   0.45562   0.00000  Uiso   1.00
H587   H     0.28291   0.01225   0.28664   0.00000  Uiso   1.00
H588   H     0.10903   0.18254   0.39616   0.00000  Uiso   1.00
H589   H     0.18055   0.85507   0.55218   0.00000  Uiso   1.00
O590   O     0.36032   0.03440   0.34535   0.00000  Uiso   1.00
O591   O     0.13221   0.25780   0.48905   0.00000  Uiso   1.00
O592   O     0.22604   0.82816   0.69375   0.00000  Uiso   1.00
N593   N     0.35182   0.04866   0.44509   0.00000  Uiso   1.00
N594   N     0.18926   0.20787   0.54748   0.00000  Uiso   1.00
N595   N     0.25612   0.90171   0.69335   0.00000  Uiso   1.00
N596   N     0.29941   0.02338   0.33992   0.00000  Uiso   1.00
N597   N     0.13685   0.18259   0.44231   0.00000  Uiso   1.00
N598   N     0.20371   0.87644   0.58818   0.00000  Uiso   1.00
C599   C     0.04902   0.92225   0.12434   0.00000  Uiso   1.00
C600   C     0.09151   0.90803   0.14455   0.00000  Uiso   1.00
C601   C     0.10780   0.91568   0.10065   0.00000  Uiso   1.00
C602   C     0.14721   0.90003   0.12908   0.00000  Uiso   1.00
C603   C     0.20979   0.88135   0.14982   0.00000  Uiso   1.00
C604   C     0.02931   0.87544   0.12919   0.00000  Uiso   1.00
C605   C     0.99331   0.85569   0.07239   0.00000  Uiso   1.00
C606   C     0.98036   0.81260   0.08789   0.00000  Uiso   1.00
C607   C     0.44636   0.24334   0.08481   0.00000  Uiso   1.00
C608   C     0.05434   0.95489   0.18735   0.00000  Uiso   1.00
C609   C     0.03938   0.00196   0.17945   0.00000  Uiso   1.00
C610   C     0.04750   0.02576   0.24392   0.00000  Uiso   1.00
C611   C     0.05237   0.07988   0.33115   0.00000  Uiso   1.00
C612   C     0.09003   0.88084   0.25287   0.00000  Uiso   1.00
C613   C     0.11378   0.88553   0.21436   0.00000  Uiso   1.00
C614   C     0.15318   0.86987   0.24286   0.00000  Uiso   1.00
C615   C     0.16953   0.87749   0.19902   0.00000  Uiso   1.00
C616   C     0.05159   0.85294   0.19900   0.00000  Uiso   1.00
C617   C     0.03869   0.80988   0.21459   0.00000  Uiso   1.00
C618   C     0.00268   0.79007   0.15783   0.00000  Uiso   1.00
C619   C     0.07662   0.93240   0.25717   0.00000  Uiso   1.00
C620   C     0.08476   0.95614   0.32166   0.00000  Uiso   1.00
C621   C     0.06982   0.00323   0.31386   0.00000  Uiso   1.00
H622   H     0.03167   0.93976   0.06998   0.00000  Uiso   1.00
H623   H     0.09055   0.93309   0.04662   0.00000  Uiso   1.00
H624   H     0.97607   0.87311   0.01837   0.00000  Uiso   1.00
H625   H     0.02214   0.01935   0.12542   0.00000  Uiso   1.00
H626   H     0.16564   0.91575   0.05150   0.00000  Uiso   1.00
H627   H     0.42426   0.28930   0.99193   0.00000  Uiso   1.00
H628   H     0.02140   0.09768   0.21767   0.00000  Uiso   1.00
H629   H     0.10738   0.86332   0.30723   0.00000  Uiso   1.00
H630   H     0.17041   0.85246   0.29689   0.00000  Uiso   1.00
H631   H     0.05594   0.79248   0.26863   0.00000  Uiso   1.00
H632   H     0.10200   0.93872   0.37568   0.00000  Uiso   1.00
H633   H     0.23046   0.85031   0.25463   0.00000  Uiso   1.00
H634   H     0.48908   0.22386   0.19505   0.00000  Uiso   1.00
H635   H     0.08622   0.03224   0.42079   0.00000  Uiso   1.00
O636   O     0.23815   0.87725   0.14197   0.00000  Uiso   1.00
O637   O     0.42146   0.21135   0.06382   0.00000  Uiso   1.00
O638   O     0.04890   0.11594   0.35998   0.00000  Uiso   1.00
N639   N     0.17225   0.90185   0.10073   0.00000  Uiso   1.00
N640   N     0.44657   0.28362   0.04503   0.00000  Uiso   1.00
N641   N     0.03738   0.07192   0.25607   0.00000  Uiso   1.00
N642   N     0.20713   0.86664   0.21003   0.00000  Uiso   1.00
N643   N     0.48145   0.24841   0.15433   0.00000  Uiso   1.00
N644   N     0.07226   0.03671   0.36537   0.00000  Uiso   1.00
C645   C     0.57069   0.19830   0.41371   0.00000  Uiso   1.00
C646   C     0.10368   0.71704   0.40156   0.00000  Uiso   1.00
C647   C     0.12117   0.69098   0.36930   0.00000  Uiso   1.00
C648   C     0.15087   0.71458   0.36321   0.00000  Uiso   1.00
C649   C     0.20033   0.73637   0.34053   0.00000  Uiso   1.00
C650   C     0.08731   0.70375   0.49676   0.00000  Uiso   1.00
C651   C     0.59103   0.16653   0.54454   0.00000  Uiso   1.00
C652   C     0.10695   0.67895   0.61859   0.00000  Uiso   1.00
C653   C     0.13096   0.68012   0.74370   0.00000  Uiso   1.00
C654   C     0.53591   0.23460   0.37473   0.00000  Uiso   1.00
C655   C     0.49642   0.22332   0.31991   0.00000  Uiso   1.00
C656   C     0.46906   0.26172   0.29123   0.00000  Uiso   1.00
C657   C     0.41327   0.31079   0.22686   0.00000  Uiso   1.00
C658   C     0.09234   0.78656   0.46026   0.00000  Uiso   1.00
C659   C     0.11544   0.76497   0.42684   0.00000  Uiso   1.00
C660   C     0.14512   0.78863   0.42080   0.00000  Uiso   1.00
C661   C     0.16265   0.76261   0.38854   0.00000  Uiso   1.00
C662   C     0.09907   0.75169   0.52204   0.00000  Uiso   1.00
C663   C     0.11498   0.76417   0.59604   0.00000  Uiso   1.00
C664   C     0.11873   0.72698   0.64392   0.00000  Uiso   1.00
C665   C     0.04767   0.78254   0.40001   0.00000  Uiso   1.00
C666   C     0.02037   0.82097   0.37141   0.00000  Uiso   1.00
C667   C     0.98084   0.80974   0.31656   0.00000  Uiso   1.00
H668   H     0.56154   0.16098   0.39404   0.00000  Uiso   1.00
H669   H     0.61207   0.15388   0.34975   0.00000  Uiso   1.00
H670   H     0.58193   0.12943   0.52496   0.00000  Uiso   1.00
H671   H     0.48733   0.18622   0.30036   0.00000  Uiso   1.00
H672   H     0.17328   0.66714   0.31183   0.00000  Uiso   1.00
H673   H     0.60972   0.11560   0.68126   0.00000  Uiso   1.00
H674   H     0.41024   0.23534   0.20766   0.00000  Uiso   1.00
H675   H     0.10149   0.82389   0.47994   0.00000  Uiso   1.00
H676   H     0.15421   0.82572   0.44037   0.00000  Uiso   1.00
H677   H     0.12408   0.80127   0.61558   0.00000  Uiso   1.00
H678   H     0.02948   0.85806   0.39099   0.00000  Uiso   1.00
H679   H     0.20749   0.80661   0.38538   0.00000  Uiso   1.00
H680   H     0.14393   0.75507   0.75482   0.00000  Uiso   1.00
H681   H     0.94445   0.87481   0.28121   0.00000  Uiso   1.00
O682   O     0.22436   0.73514   0.32104   0.00000  Uiso   1.00
O683   O     0.14096   0.66752   0.80572   0.00000  Uiso   1.00
O684   O     0.37925   0.32461   0.18436   0.00000  Uiso   1.00
N685   N     0.17409   0.69972   0.33455   0.00000  Uiso   1.00
N686   N     0.61467   0.15152   0.67996   0.00000  Uiso   1.00
N687   N     0.42817   0.26347   0.23719   0.00000  Uiso   1.00
N688   N     0.19250   0.77477   0.37413   0.00000  Uiso   1.00
N689   N     0.13308   0.72657   0.71954   0.00000  Uiso   1.00
N690   N     0.94658   0.83852   0.27677   0.00000  Uiso   1.00
C691   C     0.25988   0.18150   0.05371   0.00000  Uiso   1.00
C692   C     0.27079   0.19320   0.99583   0.00000  Uiso   1.00
C693   C     0.30947   0.19309   0.00800   0.00000  Uiso   1.00
C694   C     0.31312   0.20480   0.94787   0.00000  Uiso   1.00
C695   C     0.33520   0.22121   0.86860   0.00000  Uiso   1.00
C696   C     0.22931   0.13989   0.02120   0.00000  Uiso   1.00
C697   C     0.23313   0.09497   0.05469   0.00000  Uiso   1.00
C698   C     0.20186   0.06180   0.01591   0.00000  Uiso   1.00
C699   C     0.15954   0.99546   0.97605   0.00000  Uiso   1.00
C700   C     0.23683   0.22577   0.05610   0.00000  Uiso   1.00
C701   C     0.24696   0.25306   0.11894   0.00000  Uiso   1.00
C702   C     0.22202   0.29219   0.10954   0.00000  Uiso   1.00
C703   C     0.19138   0.35921   0.12387   0.00000  Uiso   1.00
C704   C     0.19757   0.20248   0.92529   0.00000  Uiso   1.00
C705   C     0.23694   0.20459   0.92608   0.00000  Uiso   1.00
C706   C     0.24053   0.21630   0.86592   0.00000  Uiso   1.00
C707   C     0.27921   0.21622   0.87799   0.00000  Uiso   1.00
C708   C     0.19547   0.15128   0.95145   0.00000  Uiso   1.00
C709   C     0.16419   0.11818   0.91261   0.00000  Uiso   1.00
C710   C     0.16795   0.07321   0.94603   0.00000  Uiso   1.00
C711   C     0.20299   0.23717   0.98635   0.00000  Uiso   1.00
C712   C     0.17802   0.27627   0.97686   0.00000  Uiso   1.00
C713   C     0.18812   0.30361   0.03967   0.00000  Uiso   1.00
H714   H     0.28623   0.17262   0.10801   0.00000  Uiso   1.00
H715   H     0.33566   0.18427   0.06198   0.00000  Uiso   1.00
H716   H     0.25932   0.08616   0.10867   0.00000  Uiso   1.00
H717   H     0.27316   0.24423   0.17290   0.00000  Uiso   1.00
H718   H     0.37553   0.20219   0.98018   0.00000  Uiso   1.00
H719   H     0.21457   0.99533   0.07864   0.00000  Uiso   1.00
H720   H     0.24374   0.32864   0.21409   0.00000  Uiso   1.00
H721   H     0.17121   0.21135   0.87099   0.00000  Uiso   1.00
H722   H     0.21433   0.22512   0.81195   0.00000  Uiso   1.00
H723   H     0.13800   0.12701   0.85864   0.00000  Uiso   1.00
H724   H     0.15183   0.28508   0.92287   0.00000  Uiso   1.00
H725   H     0.27706   0.23534   0.77724   0.00000  Uiso   1.00
H726   H     0.11610   0.02848   0.87570   0.00000  Uiso   1.00
H727   H     0.14527   0.36180   0.01115   0.00000  Uiso   1.00
O728   O     0.35673   0.22711   0.84414   0.00000  Uiso   1.00
O729   O     0.14556   0.95572   0.97332   0.00000  Uiso   1.00
O730   O     0.18384   0.39302   0.15103   0.00000  Uiso   1.00
N731   N     0.34644   0.20811   0.94053   0.00000  Uiso   1.00
N732   N     0.19595   0.01470   0.03257   0.00000  Uiso   1.00
N733   N     0.22322   0.32632   0.15921   0.00000  Uiso   1.00
N734   N     0.29345   0.22595   0.83133   0.00000  Uiso   1.00
N735   N     0.14297   0.03254   0.92337   0.00000  Uiso   1.00
N736   N     0.17024   0.34416   0.05001   0.00000  Uiso   1.00
C737   C     0.53075   0.82468   0.61964   0.00000  Uiso   1.00
C738   C     0.57528   0.83002   0.64563   0.00000  Uiso   1.00
C739   C     0.59274   0.81654   0.60547   0.00000  Uiso   1.00
C740   C     0.13398   0.32441   0.63896   0.00000  Uiso   1.00
C741   C     0.19964   0.32959   0.66849   0.00000  Uiso   1.00
C742   C     0.51628   0.87561   0.62394   0.00000  Uiso   1.00
C743   C     0.48413   0.90046   0.56554   0.00000  Uiso   1.00
C744   C     0.47569   0.94672   0.58079   0.00000  Uiso   1.00
C745   C     0.44973   0.02267   0.57665   0.00000  Uiso   1.00
C746   C     0.52959   0.79442   0.67906   0.00000  Uiso   1.00
C747   C     0.50862   0.75100   0.66701   0.00000  Uiso   1.00
C748   C     0.51138   0.72890   0.72866   0.00000  Uiso   1.00
C749   C     0.00609   0.17878   0.81010   0.00000  Uiso   1.00
C750   C     0.57293   0.86263   0.75055   0.00000  Uiso   1.00
C751   C     0.59819   0.85064   0.71673   0.00000  Uiso   1.00
C752   C     0.63941   0.85853   0.75030   0.00000  Uiso   1.00
C753   C     0.15693   0.34507   0.71020   0.00000  Uiso   1.00
C754   C     0.53919   0.89623   0.69504   0.00000  Uiso   1.00
C755   C     0.53080   0.94246   0.71038   0.00000  Uiso   1.00
C756   C     0.49864   0.96737   0.65202   0.00000  Uiso   1.00
C757   C     0.55250   0.81503   0.75016   0.00000  Uiso   1.00
C758   C     0.55529   0.79299   0.81184   0.00000  Uiso   1.00
C759   C     0.03433   0.24955   0.79989   0.00000  Uiso   1.00
H760   H     0.51291   0.80863   0.56428   0.00000  Uiso   1.00
H761   H     0.57500   0.80059   0.55044   0.00000  Uiso   1.00
H762   H     0.46640   0.88450   0.51053   0.00000  Uiso   1.00
H763   H     0.49089   0.73506   0.61197   0.00000  Uiso   1.00
H764   H     0.15394   0.30078   0.56644   0.00000  Uiso   1.00
H765   H     0.42494   0.97770   0.48229   0.00000  Uiso   1.00
H766   H     0.97659   0.16258   0.69621   0.00000  Uiso   1.00
H767   H     0.59076   0.87869   0.80591   0.00000  Uiso   1.00
H768   H     0.65713   0.87449   0.80533   0.00000  Uiso   1.00
H769   H     0.54853   0.95840   0.76541   0.00000  Uiso   1.00
H770   H     0.57302   0.80896   0.86686   0.00000  Uiso   1.00
H771   H     0.22060   0.36077   0.77331   0.00000  Uiso   1.00
H772   H     0.49160   0.03768   0.68916   0.00000  Uiso   1.00
H773   H     0.04325   0.22256   0.90308   0.00000  Uiso   1.00
O774   O     0.22952   0.32676   0.66512   0.00000  Uiso   1.00
O775   O     0.42908   0.05887   0.55472   0.00000  Uiso   1.00
O776   O     0.99684   0.14543   0.83538   0.00000  Uiso   1.00
N777   N     0.16052   0.31547   0.61521   0.00000  Uiso   1.00
N778   N     0.44643   0.98088   0.53653   0.00000  Uiso   1.00
N779   N     0.99470   0.18627   0.73653   0.00000  Uiso   1.00
N780   N     0.19640   0.34774   0.72653   0.00000  Uiso   1.00
N781   N     0.48230   0.01315   0.64785   0.00000  Uiso   1.00
N782   N     0.03057   0.21855   0.84785   0.00000  Uiso   1.00
C783   C     0.57125   0.06432   0.90116   0.00000  Uiso   1.00
C784   C     0.60240   0.03934   0.88918   0.00000  Uiso   1.00
C785   C     0.62149   0.06023   0.85587   0.00000  Uiso   1.00
C786   C     0.64905   0.03135   0.85016   0.00000  Uiso   1.00
C787   C     0.69620   0.99987   0.82753   0.00000  Uiso   1.00
C788   C     0.58780   0.06115   0.98443   0.00000  Uiso   1.00
C789   C     0.59461   0.10039   0.03120   0.00000  Uiso   1.00
C790   C     0.60988   0.08987   0.10566   0.00000  Uiso   1.00
C791   C     0.63432   0.09226   0.23090   0.00000  Uiso   1.00
C792   C     0.53382   0.03185   0.86351   0.00000  Uiso   1.00
C793   C     0.49525   0.04646   0.80862   0.00000  Uiso   1.00
C794   C     0.46507   0.01127   0.78129   0.00000  Uiso   1.00
C795   C     0.40572   0.96817   0.71879   0.00000  Uiso   1.00
C796   C     0.58624   0.97587   0.95023   0.00000  Uiso   1.00
C797   C     0.61054   0.99129   0.91584   0.00000  Uiso   1.00
C798   C     0.63808   0.96237   0.91017   0.00000  Uiso   1.00
C799   C     0.65721   0.98322   0.87685   0.00000  Uiso   1.00
C800   C     0.59594   0.01311   0.01108   0.00000  Uiso   1.00
C801   C     0.61120   0.00253   0.08549   0.00000  Uiso   1.00
C802   C     0.61803   0.04174   0.13236   0.00000  Uiso   1.00
C803   C     0.54197   0.98381   0.89016   0.00000  Uiso   1.00
C804   C     0.51184   0.94859   0.86291   0.00000  Uiso   1.00
C805   C     0.47323   0.96314   0.80799   0.00000  Uiso   1.00
H806   H     0.56491   0.10172   0.88041   0.00000  Uiso   1.00
H807   H     0.61518   0.09742   0.83526   0.00000  Uiso   1.00
H808   H     0.58830   0.13757   0.01055   0.00000  Uiso   1.00
H809   H     0.48896   0.08364   0.78801   0.00000  Uiso   1.00
H810   H     0.67452   0.07146   0.79698   0.00000  Uiso   1.00
H811   H     0.61783   0.15612   0.16659   0.00000  Uiso   1.00
H812   H     0.40835   0.04240   0.69732   0.00000  Uiso   1.00
H813   H     0.59258   0.93846   0.97099   0.00000  Uiso   1.00
H814   H     0.64437   0.92519   0.93080   0.00000  Uiso   1.00
H815   H     0.61749   0.96534   0.10609   0.00000  Uiso   1.00
H816   H     0.51815   0.91142   0.88355   0.00000  Uiso   1.00
H817   H     0.69822   0.93167   0.87452   0.00000  Uiso   1.00
H818   H     0.64152   0.01633   0.24414   0.00000  Uiso   1.00
H819   H     0.43205   0.90262   0.77486   0.00000  Uiso   1.00
O820   O     0.71995   0.99579   0.80770   0.00000  Uiso   1.00
O821   O     0.64557   0.10686   0.29261   0.00000  Uiso   1.00
O822   O     0.37074   0.95767   0.67694   0.00000  Uiso   1.00
N823   N     0.67299   0.04038   0.82073   0.00000  Uiso   1.00
N824   N     0.61999   0.11953   0.16630   0.00000  Uiso   1.00
N825   N     0.42414   0.01322   0.72758   0.00000  Uiso   1.00
N826   N     0.68574   0.96516   0.86245   0.00000  Uiso   1.00
N827   N     0.63274   0.04431   0.20802   0.00000  Uiso   1.00
N828   N     0.43689   0.93800   0.76931   0.00000  Uiso   1.00
C829   C     0.77036   0.55495   0.57123   0.00000  Uiso   1.00
C830   C     0.78000   0.54703   0.51076   0.00000  Uiso   1.00
C831   C     0.81730   0.55446   0.51851   0.00000  Uiso   1.00
C832   C     0.81995   0.54516   0.45662   0.00000  Uiso   1.00
C833   C     0.84001   0.53534   0.37295   0.00000  Uiso   1.00
C834   C     0.73520   0.59092   0.53898   0.00000  Uiso   1.00
C835   C     0.73483   0.63524   0.57045   0.00000  Uiso   1.00
C836   C     0.69976   0.66288   0.53231   0.00000  Uiso   1.00
C837   C     0.65026   0.72118   0.49247   0.00000  Uiso   1.00
C838   C     0.75363   0.50654   0.57918   0.00000  Uiso   1.00
C839   C     0.76875   0.47992   0.64446   0.00000  Uiso   1.00
C840   C     0.74919   0.43652   0.64017   0.00000  Uiso   1.00
C841   C     0.72831   0.36381   0.66274   0.00000  Uiso   1.00
C842   C     0.70872   0.52522   0.44755   0.00000  Uiso   1.00
C843   C     0.74652   0.53089   0.44359   0.00000  Uiso   1.00
C844   C     0.74911   0.52157   0.38167   0.00000  Uiso   1.00
C845   C     0.78641   0.52898   0.38932   0.00000  Uiso   1.00
C846   C     0.70173   0.57477   0.47180   0.00000  Uiso   1.00
C847   C     0.66664   0.60235   0.43361   0.00000  Uiso   1.00
C848   C     0.66622   0.64670   0.46502   0.00000  Uiso   1.00
C849   C     0.72016   0.49039   0.51200   0.00000  Uiso   1.00
C850   C     0.70057   0.44703   0.50762   0.00000  Uiso   1.00
C851   C     0.71565   0.42035   0.57287   0.00000  Uiso   1.00
H852   H     0.79642   0.56752   0.62353   0.00000  Uiso   1.00
H853   H     0.84320   0.56696   0.57050   0.00000  Uiso   1.00
H854   H     0.76074   0.64772   0.62244   0.00000  Uiso   1.00
H855   H     0.79466   0.49242   0.69643   0.00000  Uiso   1.00
H856   H     0.88030   0.55923   0.48209   0.00000  Uiso   1.00
H857   H     0.70643   0.72952   0.59161   0.00000  Uiso   1.00
H858   H     0.77795   0.40204   0.74763   0.00000  Uiso   1.00
H859   H     0.68266   0.51265   0.39525   0.00000  Uiso   1.00
H860   H     0.72320   0.50908   0.32969   0.00000  Uiso   1.00
H861   H     0.64074   0.58984   0.38163   0.00000  Uiso   1.00
H862   H     0.67466   0.43455   0.45562   0.00000  Uiso   1.00
H863   H     0.78291   0.51225   0.28664   0.00000  Uiso   1.00
H864   H     0.60903   0.68254   0.39616   0.00000  Uiso   1.00
H865   H     0.68055   0.35507   0.55218   0.00000  Uiso   1.00
O866   O     0.86032   0.53440   0.34535   0.00000  Uiso   1.00
O867   O     0.63221   0.75780   0.48905   0.00000  Uiso   1.00
O868   O     0.72604   0.32816   0.69375   0.00000  Uiso   1.00
N869   N     0.85182   0.54866   0.44509   0.00000  Uiso   1.00
N870   N     0.68926   0.70787   0.54748   0.00000  Uiso   1.00
N871   N     0.75612   0.40171   0.69335   0.00000  Uiso   1.00
N872   N     0.79941   0.52338   0.33992   0.00000  Uiso   1.00
N873   N     0.63685   0.68259   0.44231   0.00000  Uiso   1.00
N874   N     0.70371   0.37644   0.58818   0.00000  Uiso   1.00
C875   C     0.54902   0.42225   0.12434   0.00000  Uiso   1.00
C876   C     0.59151   0.40803   0.14455   0.00000  Uiso   1.00
C877   C     0.60780   0.41568   0.10065   0.00000  Uiso   1.00
C878   C     0.64721   0.40003   0.12908   0.00000  Uiso   1.00
C879   C     0.70979   0.38135   0.14982   0.00000  Uiso   1.00
C880   C     0.52931   0.37544   0.12919   0.00000  Uiso   1.00
C881   C     0.49331   0.35569   0.07239   0.00000  Uiso   1.00
C882   C     0.48036   0.31260   0.08789   0.00000  Uiso   1.00
C883   C     0.94636   0.74334   0.08481   0.00000  Uiso   1.00
C884   C     0.55434   0.45489   0.18735   0.00000  Uiso   1.00
C885   C     0.53938   0.50196   0.17945   0.00000  Uiso   1.00
C886   C     0.54750   0.52576   0.24392   0.00000  Uiso   1.00
C887   C     0.55237   0.57988   0.33115   0.00000  Uiso   1.00
C888   C     0.59003   0.38084   0.25287   0.00000  Uiso   1.00
C889   C     0.61378   0.38553   0.21436   0.00000  Uiso   1.00
C890   C     0.65318   0.36987   0.24286   0.00000  Uiso   1.00
C891   C     0.66953   0.37749   0.19902   0.00000  Uiso   1.00
C892   C     0.55159   0.35294   0.19900   0.00000  Uiso   1.00
C893   C     0.53869   0.30988   0.21459   0.00000  Uiso   1.00
C894   C     0.50268   0.29007   0.15783   0.00000  Uiso   1.00
C895   C     0.57662   0.43240   0.25717   0.00000  Uiso   1.00
C896   C     0.58476   0.45614   0.32166   0.00000  Uiso   1.00
C897   C     0.56982   0.50323   0.31386   0.00000  Uiso   1.00
H898   H     0.53167   0.43976   0.06998   0.00000  Uiso   1.00
H899   H     0.59055   0.43309   0.04662   0.00000  Uiso   1.00
H900   H     0.47607   0.37311   0.01837   0.00000  Uiso   1.00
H901   H     0.52214   0.51935   0.12542   0.00000  Uiso   1.00
H902   H     0.66564   0.41575   0.05150   0.00000  Uiso   1.00
H903   H     0.92426   0.78930   0.99193   0.00000  Uiso   1.00
H904   H     0.52140   0.59768   0.21767   0.00000  Uiso   1.00
H905   H     0.60738   0.36332   0.30723   0.00000  Uiso   1.00
H906   H     0.67041   0.35246   0.29689   0.00000  Uiso   1.00
H907   H     0.55594   0.29248   0.26863   0.00000  Uiso   1.00
H908   H     0.60200   0.43872   0.37568   0.00000  Uiso   1.00
H909   H     0.73046   0.35031   0.25463   0.00000  Uiso   1.00
H910   H     0.98908   0.72386   0.19505   0.00000  Uiso   1.00
H911   H     0.58622   0.53224   0.42079   0.00000  Uiso   1.00
O912   O     0.73815   0.37725   0.14197   0.00000  Uiso   1.00
O913   O     0.92146   0.71135   0.06382   0.00000  Uiso   1.00
O914   O     0.54890   0.61594   0.35998   0.00000  Uiso   1.00
N915   N     0.67225   0.40185   0.10073   0.00000  Uiso   1.00
N916   N     0.94657   0.78362   0.04503   0.00000  Uiso   1.00
N917   N     0.53738   0.57192   0.25607   0.00000  Uiso   1.00
N918   N     0.70713   0.36664   0.21003   0.00000  Uiso   1.00
N919   N     0.98145   0.74841   0.15433   0.00000  Uiso   1.00
N920   N     0.57226   0.53671   0.36537   0.00000  Uiso   1.00
C921   C     0.07069   0.69830   0.41371   0.00000  Uiso   1.00
C922   C     0.60368   0.21704   0.40156   0.00000  Uiso   1.00
C923   C     0.62117   0.19098   0.36930   0.00000  Uiso   1.00
C924   C     0.65087   0.21458   0.36321   0.00000  Uiso   1.00
C925   C     0.70033   0.23637   0.34053   0.00000  Uiso   1.00
C926   C     0.58731   0.20375   0.49676   0.00000  Uiso   1.00
C927   C     0.09103   0.66653   0.54454   0.00000  Uiso   1.00
C928   C     0.60695   0.17895   0.61859   0.00000  Uiso   1.00
C929   C     0.63096   0.18012   0.74370   0.00000  Uiso   1.00
C930   C     0.03591   0.73460   0.37473   0.00000  Uiso   1.00
C931   C     0.99642   0.72332   0.31991   0.00000  Uiso   1.00
C932   C     0.96906   0.76172   0.29123   0.00000  Uiso   1.00
C933   C     0.91327   0.81079   0.22686   0.00000  Uiso   1.00
C934   C     0.59234   0.28656   0.46026   0.00000  Uiso   1.00
C935   C     0.61544   0.26497   0.42684   0.00000  Uiso   1.00
C936   C     0.64512   0.28863   0.42080   0.00000  Uiso   1.00
C937   C     0.66265   0.26261   0.38854   0.00000  Uiso   1.00
C938   C     0.59907   0.25169   0.52204   0.00000  Uiso   1.00
C939   C     0.61498   0.26417   0.59604   0.00000  Uiso   1.00
C940   C     0.61873   0.22698   0.64392   0.00000  Uiso   1.00
C941   C     0.54767   0.28254   0.40001   0.00000  Uiso   1.00
C942   C     0.52037   0.32097   0.37141   0.00000  Uiso   1.00
C943   C     0.48084   0.30974   0.31656   0.00000  Uiso   1.00
H944   H     0.06154   0.66098   0.39404   0.00000  Uiso   1.00
H945   H     0.11207   0.65388   0.34975   0.00000  Uiso   1.00
H946   H     0.08193   0.62943   0.52496   0.00000  Uiso   1.00
H947   H     0.98733   0.68622   0.30036   0.00000  Uiso   1.00
H948   H     0.67328   0.16714   0.31183   0.00000  Uiso   1.00
H949   H     0.10972   0.61560   0.68126   0.00000  Uiso   1.00
H950   H     0.91024   0.73534   0.20766   0.00000  Uiso   1.00
H951   H     0.60149   0.32389   0.47994   0.00000  Uiso   1.00
H952   H     0.65421   0.32572   0.44037   0.00000  Uiso   1.00
H953   H     0.62408   0.30127   0.61558   0.00000  Uiso   1.00
H954   H     0.52948   0.35806   0.39099   0.00000  Uiso   1.00
H955   H     0.70749   0.30661   0.38538   0.00000  Uiso   1.00
H956   H     0.64393   0.25507   0.75482   0.00000  Uiso   1.00
H957   H     0.44445   0.37481   0.28121   0.00000  Uiso   1.00
O958   O     0.72436   0.23514   0.32104   0.00000  Uiso   1.00
O959   O     0.64096   0.16752   0.80572   0.00000  Uiso   1.00
O960   O     0.87925   0.82461   0.18436   0.00000  Uiso   1.00
N961   N     0.67409   0.19972   0.33455   0.00000  Uiso   1.00
N962   N     0.11467   0.65152   0.67996   0.00000  Uiso   1.00
N963   N     0.92817   0.76347   0.23719   0.00000  Uiso   1.00
N964   N     0.69250   0.27477   0.37413   0.00000  Uiso   1.00
N965   N     0.63308   0.22657   0.71954   0.00000  Uiso   1.00
N966   N     0.44658   0.33852   0.27677   0.00000  Uiso   1.00
C967   C     0.75988   0.68150   0.05371   0.00000  Uiso   1.00
C968   C     0.77079   0.69320   0.99583   0.00000  Uiso   1.00
C969   C     0.80947   0.69309   0.00800   0.00000  Uiso   1.00
C970   C     0.81312   0.70480   0.94787   0.00000  Uiso   1.00
C971   C     0.83520   0.72121   0.86860   0.00000  Uiso   1.00
C972   C     0.72931   0.63989   0.02120   0.00000  Uiso   1.00
C973   C     0.73313   0.59497   0.05469   0.00000  Uiso   1.00
C974   C     0.70186   0.56180   0.01591   0.00000  Uiso   1.00
C975   C     0.65954   0.49546   0.97605   0.00000  Uiso   1.00
C976   C     0.73683   0.72577   0.05610   0.00000  Uiso   1.00
C977   C     0.74696   0.75306   0.11894   0.00000  Uiso   1.00
C978   C     0.72202   0.79219   0.10954   0.00000  Uiso   1.00
C979   C     0.69138   0.85921   0.12387   0.00000  Uiso   1.00
C980   C     0.69757   0.70248   0.92529   0.00000  Uiso   1.00
C981   C     0.73694   0.70459   0.92608   0.00000  Uiso   1.00
C982   C     0.74053   0.71630   0.86592   0.00000  Uiso   1.00
C983   C     0.77921   0.71622   0.87799   0.00000  Uiso   1.00
C984   C     0.69547   0.65128   0.95145   0.00000  Uiso   1.00
C985   C     0.66419   0.61818   0.91261   0.00000  Uiso   1.00
C986   C     0.66795   0.57321   0.94603   0.00000  Uiso   1.00
C987   C     0.70299   0.73717   0.98635   0.00000  Uiso   1.00
C988   C     0.67802   0.77627   0.97686   0.00000  Uiso   1.00
C989   C     0.68812   0.80361   0.03967   0.00000  Uiso   1.00
H990   H     0.78623   0.67262   0.10801   0.00000  Uiso   1.00
H991   H     0.83566   0.68427   0.06198   0.00000  Uiso   1.00
H992   H     0.75932   0.58616   0.10867   0.00000  Uiso   1.00
H993   H     0.77316   0.74423   0.17290   0.00000  Uiso   1.00
H994   H     0.87553   0.70219   0.98018   0.00000  Uiso   1.00
H995   H     0.71457   0.49533   0.07864   0.00000  Uiso   1.00
H996   H     0.74374   0.82864   0.21409   0.00000  Uiso   1.00
H997   H     0.67121   0.71135   0.87099   0.00000  Uiso   1.00
H998   H     0.71433   0.72512   0.81195   0.00000  Uiso   1.00
H999   H     0.63800   0.62701   0.85864   0.00000  Uiso   1.00
H1000  H     0.65183   0.78508   0.92287   0.00000  Uiso   1.00
H1001  H     0.77706   0.73534   0.77724   0.00000  Uiso   1.00
H1002  H     0.61610   0.52848   0.87570   0.00000  Uiso   1.00
H1003  H     0.64527   0.86180   0.01115   0.00000  Uiso   1.00
O1004  O     0.85673   0.72711   0.84414   0.00000  Uiso   1.00
O1005  O     0.64556   0.45572   0.97332   0.00000  Uiso   1.00
O1006  O     0.68384   0.89302   0.15103   0.00000  Uiso   1.00
N1007  N     0.84644   0.70811   0.94053   0.00000  Uiso   1.00
N1008  N     0.69595   0.51470   0.03257   0.00000  Uiso   1.00
N1009  N     0.72322   0.82632   0.15921   0.00000  Uiso   1.00
N1010  N     0.79345   0.72595   0.83133   0.00000  Uiso   1.00
N1011  N     0.64297   0.53254   0.92337   0.00000  Uiso   1.00
N1012  N     0.67024   0.84416   0.05001   0.00000  Uiso   1.00
C1013  C     0.03075   0.32468   0.61964   0.00000  Uiso   1.00
C1014  C     0.07528   0.33002   0.64563   0.00000  Uiso   1.00
C1015  C     0.09274   0.31654   0.60547   0.00000  Uiso   1.00
C1016  C     0.63398   0.82441   0.63896   0.00000  Uiso   1.00
C1017  C     0.69964   0.82959   0.66849   0.00000  Uiso   1.00
C1018  C     0.01628   0.37561   0.62394   0.00000  Uiso   1.00
C1019  C     0.98413   0.40046   0.56554   0.00000  Uiso   1.00
C1020  C     0.97569   0.44672   0.58079   0.00000  Uiso   1.00
C1021  C     0.94973   0.52267   0.57665   0.00000  Uiso   1.00
C1022  C     0.02959   0.29442   0.67906   0.00000  Uiso   1.00
C1023  C     0.00862   0.25100   0.66701   0.00000  Uiso   1.00
C1024  C     0.01138   0.22890   0.72866   0.00000  Uiso   1.00
C1025  C     0.50609   0.67878   0.81010   0.00000  Uiso   1.00
C1026  C     0.07293   0.36263   0.75055   0.00000  Uiso   1.00
C1027  C     0.09819   0.35064   0.71673   0.00000  Uiso   1.00
C1028  C     0.13941   0.35853   0.75030   0.00000  Uiso   1.00
C1029  C     0.65693   0.84507   0.71020   0.00000  Uiso   1.00
C1030  C     0.03919   0.39623   0.69504   0.00000  Uiso   1.00
C1031  C     0.03080   0.44246   0.71038   0.00000  Uiso   1.00
C1032  C     0.99864   0.46737   0.65202   0.00000  Uiso   1.00
C1033  C     0.05250   0.31503   0.75016   0.00000  Uiso   1.00
C1034  C     0.05529   0.29299   0.81184   0.00000  Uiso   1.00
C1035  C     0.53433   0.74955   0.79989   0.00000  Uiso   1.00
H1036  H     0.01291   0.30863   0.56428   0.00000  Uiso   1.00
H1037  H     0.07500   0.30059   0.55044   0.00000  Uiso   1.00
H1038  H     0.96640   0.38450   0.51053   0.00000  Uiso   1.00
H1039  H     0.99089   0.23506   0.61197   0.00000  Uiso   1.00
H1040  H     0.65394   0.80078   0.56644   0.00000  Uiso   1.00
H1041  H     0.92494   0.47770   0.48229   0.00000  Uiso   1.00
H1042  H     0.47659   0.66258   0.69621   0.00000  Uiso   1.00
H1043  H     0.09076   0.37869   0.80591   0.00000  Uiso   1.00
H1044  H     0.15713   0.37449   0.80533   0.00000  Uiso   1.00
H1045  H     0.04853   0.45840   0.76541   0.00000  Uiso   1.00
H1046  H     0.07302   0.30896   0.86686   0.00000  Uiso   1.00
H1047  H     0.72060   0.86077   0.77331   0.00000  Uiso   1.00
H1048  H     0.99160   0.53768   0.68916   0.00000  Uiso   1.00
H1049  H     0.54325   0.72256   0.90308   0.00000  Uiso   1.00
O1050  O     0.72952   0.82676   0.66512   0.00000  Uiso   1.00
O1051  O     0.92908   0.55887   0.55472   0.00000  Uiso   1.00
O1052  O     0.49684   0.64543   0.83538   0.00000  Uiso   1.00
N1053  N     0.66052   0.81547   0.61521   0.00000  Uiso   1.00
N1054  N     0.94643   0.48088   0.53653   0.00000  Uiso   1.00
N1055  N     0.49470   0.68627   0.73653   0.00000  Uiso   1.00
N1056  N     0.69640   0.84774   0.72653   0.00000  Uiso   1.00
N1057  N     0.98230   0.51315   0.64785   0.00000  Uiso   1.00
N1058  N     0.53057   0.71855   0.84785   0.00000  Uiso   1.00
C1059  C     0.07125   0.56432   0.90116   0.00000  Uiso   1.00
C1060  C     0.10240   0.53934   0.88918   0.00000  Uiso   1.00
C1061  C     0.12149   0.56023   0.85587   0.00000  Uiso   1.00
C1062  C     0.14905   0.53135   0.85016   0.00000  Uiso   1.00
C1063  C     0.19620   0.49987   0.82753   0.00000  Uiso   1.00
C1064  C     0.08780   0.56115   0.98443   0.00000  Uiso   1.00
C1065  C     0.09461   0.60039   0.03120   0.00000  Uiso   1.00
C1066  C     0.10988   0.58987   0.10566   0.00000  Uiso   1.00
C1067  C     0.13432   0.59226   0.23090   0.00000  Uiso   1.00
C1068  C     0.03382   0.53185   0.86351   0.00000  Uiso   1.00
C1069  C     0.99525   0.54646   0.80862   0.00000  Uiso   1.00
C1070  C     0.96507   0.51127   0.78129   0.00000  Uiso   1.00
C1071  C     0.90572   0.46817   0.71879   0.00000  Uiso   1.00
C1072  C     0.08624   0.47587   0.95023   0.00000  Uiso   1.00
C1073  C     0.11054   0.49129   0.91584   0.00000  Uiso   1.00
C1074  C     0.13808   0.46237   0.91017   0.00000  Uiso   1.00
C1075  C     0.15721   0.48322   0.87685   0.00000  Uiso   1.00
C1076  C     0.09594   0.51311   0.01108   0.00000  Uiso   1.00
C1077  C     0.11120   0.50253   0.08549   0.00000  Uiso   1.00
C1078  C     0.11803   0.54174   0.13236   0.00000  Uiso   1.00
C1079  C     0.04197   0.48381   0.89016   0.00000  Uiso   1.00
C1080  C     0.01184   0.44859   0.86291   0.00000  Uiso   1.00
C1081  C     0.97323   0.46314   0.80799   0.00000  Uiso   1.00
H1082  H     0.06491   0.60172   0.88041   0.00000  Uiso   1.00
H1083  H     0.11518   0.59742   0.83526   0.00000  Uiso   1.00
H1084  H     0.08830   0.63757   0.01055   0.00000  Uiso   1.00
H1085  H     0.98896   0.58364   0.78801   0.00000  Uiso   1.00
H1086  H     0.17452   0.57146   0.79698   0.00000  Uiso   1.00
H1087  H     0.11783   0.65612   0.16659   0.00000  Uiso   1.00
H1088  H     0.90835   0.54240   0.69732   0.00000  Uiso   1.00
H1089  H     0.09258   0.43846   0.97099   0.00000  Uiso   1.00
H1090  H     0.14437   0.42519   0.93080   0.00000  Uiso   1.00
H1091  H     0.11749   0.46534   0.10609   0.00000  Uiso   1.00
H1092  H     0.01815   0.41142   0.88355   0.00000  Uiso   1.00
H1093  H     0.19822   0.43167   0.87452   0.00000  Uiso   1.00
H1094  H     0.14152   0.51633   0.24414   0.00000  Uiso   1.00
H1095  H     0.93205   0.40262   0.77486   0.00000  Uiso   1.00
O1096  O     0.21995   0.49579   0.80770   0.00000  Uiso   1.00
O1097  O     0.14557   0.60686   0.29261   0.00000  Uiso   1.00
O1098  O     0.87074   0.45767   0.67694   0.00000  Uiso   1.00
N1099  N     0.17299   0.54038   0.82073   0.00000  Uiso   1.00
N1100  N     0.11999   0.61953   0.16630   0.00000  Uiso   1.00
N1101  N     0.92414   0.51322   0.72758   0.00000  Uiso   1.00
N1102  N     0.18574   0.46516   0.86245   0.00000  Uiso   1.00
N1103  N     0.13274   0.54431   0.20802   0.00000  Uiso   1.00
N1104  N     0.93689   0.43800   0.76931   0.00000  Uiso   1.00
