data_job_03838
_audit_creation_date              2018-12-19
_audit_creation_method            'Materials Studio'
_symmetry_space_group_name_H-M    'P1'
_symmetry_Int_Tables_number       1
_symmetry_cell_setting            triclinic
loop_
_symmetry_equiv_pos_as_xyz
  x,y,z
_cell_length_a                    19.8343
_cell_length_b                    31.1156
_cell_length_c                    17.0012
_cell_angle_alpha                 90.0000
_cell_angle_beta                  90.0000
_cell_angle_gamma                 90.0000
loop_
_atom_site_label
_atom_site_type_symbol
_atom_site_fract_x
_atom_site_fract_y
_atom_site_fract_z
_atom_site_U_iso_or_equiv
_atom_site_adp_type
_atom_site_occupancy
C1     C     0.11506   0.41531   0.53213   0.00000  Uiso   1.00
C2     C     0.18161   0.43701   0.55311   0.00000  Uiso   1.00
C3     C     0.18861   0.47497   0.59519   0.00000  Uiso   1.00
C4     C     0.25381   0.48955   0.60825   0.00000  Uiso   1.00
C5     C     0.34861   0.52669   0.64506   0.00000  Uiso   1.00
C6     C     0.11498   0.41060   0.44285   0.00000  Uiso   1.00
C7     C     0.06596   0.42635   0.39223   0.00000  Uiso   1.00
C8     C     0.07508   0.41869   0.31248   0.00000  Uiso   1.00
C9     C     0.06641   0.41480   0.17811   0.00000  Uiso   1.00
C10    C     0.11941   0.36981   0.56505   0.00000  Uiso   1.00
C11    C     0.07410   0.35125   0.61717   0.00000  Uiso   1.00
C12    C     0.08693   0.30924   0.64029   0.00000  Uiso   1.00
C13    C     0.08513   0.24202   0.69566   0.00000  Uiso   1.00
C14    C     0.21841   0.37370   0.48051   0.00000  Uiso   1.00
C15    C     0.23774   0.41441   0.52507   0.00000  Uiso   1.00
C16    C     0.30295   0.42894   0.53808   0.00000  Uiso   1.00
C17    C     0.31005   0.46691   0.58017   0.00000  Uiso   1.00
C18    C     0.17111   0.38800   0.41481   0.00000  Uiso   1.00
C19    C     0.18030   0.38032   0.33512   0.00000  Uiso   1.00
C20    C     0.13131   0.39605   0.28439   0.00000  Uiso   1.00
C21    C     0.17554   0.34721   0.53702   0.00000  Uiso   1.00
C22    C     0.18844   0.30522   0.56006   0.00000  Uiso   1.00
C23    C     0.14316   0.28660   0.61220   0.00000  Uiso   1.00
H24    H     0.07136   0.43290   0.55396   0.00000  Uiso   1.00
H25    H     0.14516   0.49245   0.61687   0.00000  Uiso   1.00
H26    H     0.02253   0.44383   0.41395   0.00000  Uiso   1.00
H27    H     0.03067   0.36875   0.63885   0.00000  Uiso   1.00
H28    H     0.25173   0.54851   0.67423   0.00000  Uiso   1.00
H29    H     0.99314   0.44598   0.24636   0.00000  Uiso   1.00
H30    H     0.01031   0.28765   0.72061   0.00000  Uiso   1.00
H31    H     0.26211   0.35611   0.45868   0.00000  Uiso   1.00
H32    H     0.34638   0.41144   0.51637   0.00000  Uiso   1.00
H33    H     0.22374   0.36282   0.31345   0.00000  Uiso   1.00
H34    H     0.23189   0.28774   0.53835   0.00000  Uiso   1.00
H35    H     0.41505   0.48276   0.59266   0.00000  Uiso   1.00
H36    H     0.15646   0.38023   0.16479   0.00000  Uiso   1.00
H37    H     0.17363   0.22190   0.63904   0.00000  Uiso   1.00
O38    O     0.38539   0.55343   0.67309   0.00000  Uiso   1.00
O39    O     0.04612   0.41891   0.11174   0.00000  Uiso   1.00
O40    O     0.06864   0.21119   0.73395   0.00000  Uiso   1.00
N41    N     0.27861   0.52544   0.64713   0.00000  Uiso   1.00
N42    N     0.03684   0.42959   0.24709   0.00000  Uiso   1.00
N43    N     0.05288   0.28156   0.69046   0.00000  Uiso   1.00
N44    N     0.36649   0.49006   0.60324   0.00000  Uiso   1.00
N45    N     0.12472   0.39421   0.20320   0.00000  Uiso   1.00
N46    N     0.14076   0.24618   0.64657   0.00000  Uiso   1.00
C47    C     0.61506   0.91531   0.53213   0.00000  Uiso   1.00
C48    C     0.68161   0.93701   0.55311   0.00000  Uiso   1.00
C49    C     0.68861   0.97497   0.59519   0.00000  Uiso   1.00
C50    C     0.75381   0.98955   0.60825   0.00000  Uiso   1.00
C51    C     0.84861   0.02669   0.64506   0.00000  Uiso   1.00
C52    C     0.61498   0.91060   0.44285   0.00000  Uiso   1.00
C53    C     0.56596   0.92635   0.39223   0.00000  Uiso   1.00
C54    C     0.57508   0.91869   0.31248   0.00000  Uiso   1.00
C55    C     0.56641   0.91480   0.17811   0.00000  Uiso   1.00
C56    C     0.61941   0.86981   0.56505   0.00000  Uiso   1.00
C57    C     0.57410   0.85125   0.61717   0.00000  Uiso   1.00
C58    C     0.58693   0.80924   0.64029   0.00000  Uiso   1.00
C59    C     0.58513   0.74202   0.69566   0.00000  Uiso   1.00
C60    C     0.71841   0.87370   0.48051   0.00000  Uiso   1.00
C61    C     0.73774   0.91441   0.52507   0.00000  Uiso   1.00
C62    C     0.80295   0.92894   0.53808   0.00000  Uiso   1.00
C63    C     0.81005   0.96691   0.58017   0.00000  Uiso   1.00
C64    C     0.67111   0.88800   0.41481   0.00000  Uiso   1.00
C65    C     0.68030   0.88032   0.33512   0.00000  Uiso   1.00
C66    C     0.63131   0.89605   0.28439   0.00000  Uiso   1.00
C67    C     0.67554   0.84721   0.53702   0.00000  Uiso   1.00
C68    C     0.68844   0.80522   0.56006   0.00000  Uiso   1.00
C69    C     0.64316   0.78660   0.61220   0.00000  Uiso   1.00
H70    H     0.57136   0.93290   0.55396   0.00000  Uiso   1.00
H71    H     0.64516   0.99245   0.61687   0.00000  Uiso   1.00
H72    H     0.52253   0.94383   0.41395   0.00000  Uiso   1.00
H73    H     0.53067   0.86875   0.63885   0.00000  Uiso   1.00
H74    H     0.75173   0.04851   0.67423   0.00000  Uiso   1.00
H75    H     0.49314   0.94598   0.24636   0.00000  Uiso   1.00
H76    H     0.51031   0.78765   0.72061   0.00000  Uiso   1.00
H77    H     0.76211   0.85611   0.45868   0.00000  Uiso   1.00
H78    H     0.84638   0.91144   0.51637   0.00000  Uiso   1.00
H79    H     0.72374   0.86282   0.31345   0.00000  Uiso   1.00
H80    H     0.73189   0.78774   0.53835   0.00000  Uiso   1.00
H81    H     0.91505   0.98276   0.59266   0.00000  Uiso   1.00
H82    H     0.65646   0.88023   0.16479   0.00000  Uiso   1.00
H83    H     0.67363   0.72190   0.63904   0.00000  Uiso   1.00
O84    O     0.88539   0.05343   0.67309   0.00000  Uiso   1.00
O85    O     0.54612   0.91891   0.11174   0.00000  Uiso   1.00
O86    O     0.56864   0.71119   0.73395   0.00000  Uiso   1.00
N87    N     0.77861   0.02544   0.64713   0.00000  Uiso   1.00
N88    N     0.53684   0.92959   0.24709   0.00000  Uiso   1.00
N89    N     0.55288   0.78156   0.69046   0.00000  Uiso   1.00
N90    N     0.86649   0.99006   0.60324   0.00000  Uiso   1.00
N91    N     0.62472   0.89421   0.20320   0.00000  Uiso   1.00
N92    N     0.64076   0.74618   0.64657   0.00000  Uiso   1.00
C93    C     0.38494   0.08469   0.53213   0.00000  Uiso   1.00
C94    C     0.31839   0.06299   0.55311   0.00000  Uiso   1.00
C95    C     0.31139   0.02503   0.59519   0.00000  Uiso   1.00
C96    C     0.24619   0.01045   0.60825   0.00000  Uiso   1.00
C97    C     0.15139   0.97331   0.64506   0.00000  Uiso   1.00
C98    C     0.38502   0.08940   0.44285   0.00000  Uiso   1.00
C99    C     0.43404   0.07365   0.39223   0.00000  Uiso   1.00
C100   C     0.42492   0.08131   0.31248   0.00000  Uiso   1.00
C101   C     0.43359   0.08520   0.17811   0.00000  Uiso   1.00
C102   C     0.38059   0.13019   0.56505   0.00000  Uiso   1.00
C103   C     0.42590   0.14875   0.61717   0.00000  Uiso   1.00
C104   C     0.41307   0.19076   0.64029   0.00000  Uiso   1.00
C105   C     0.41487   0.25798   0.69566   0.00000  Uiso   1.00
C106   C     0.28159   0.12630   0.48051   0.00000  Uiso   1.00
C107   C     0.26226   0.08559   0.52507   0.00000  Uiso   1.00
C108   C     0.19705   0.07106   0.53808   0.00000  Uiso   1.00
C109   C     0.18995   0.03309   0.58017   0.00000  Uiso   1.00
C110   C     0.32889   0.11200   0.41481   0.00000  Uiso   1.00
C111   C     0.31970   0.11968   0.33512   0.00000  Uiso   1.00
C112   C     0.36869   0.10395   0.28439   0.00000  Uiso   1.00
C113   C     0.32446   0.15279   0.53702   0.00000  Uiso   1.00
C114   C     0.31156   0.19478   0.56006   0.00000  Uiso   1.00
C115   C     0.35684   0.21340   0.61220   0.00000  Uiso   1.00
H116   H     0.42864   0.06710   0.55396   0.00000  Uiso   1.00
H117   H     0.35484   0.00755   0.61687   0.00000  Uiso   1.00
H118   H     0.47747   0.05617   0.41395   0.00000  Uiso   1.00
H119   H     0.46933   0.13125   0.63885   0.00000  Uiso   1.00
H120   H     0.24827   0.95149   0.67423   0.00000  Uiso   1.00
H121   H     0.50686   0.05402   0.24636   0.00000  Uiso   1.00
H122   H     0.48969   0.21235   0.72061   0.00000  Uiso   1.00
H123   H     0.23789   0.14389   0.45868   0.00000  Uiso   1.00
H124   H     0.15362   0.08856   0.51637   0.00000  Uiso   1.00
H125   H     0.27626   0.13718   0.31345   0.00000  Uiso   1.00
H126   H     0.26811   0.21226   0.53835   0.00000  Uiso   1.00
H127   H     0.08495   0.01724   0.59266   0.00000  Uiso   1.00
H128   H     0.34354   0.11977   0.16479   0.00000  Uiso   1.00
H129   H     0.32637   0.27810   0.63904   0.00000  Uiso   1.00
O130   O     0.11461   0.94657   0.67309   0.00000  Uiso   1.00
O131   O     0.45388   0.08109   0.11174   0.00000  Uiso   1.00
O132   O     0.43136   0.28881   0.73395   0.00000  Uiso   1.00
N133   N     0.22139   0.97456   0.64713   0.00000  Uiso   1.00
N134   N     0.46316   0.07041   0.24709   0.00000  Uiso   1.00
N135   N     0.44712   0.21844   0.69046   0.00000  Uiso   1.00
N136   N     0.13351   0.00994   0.60324   0.00000  Uiso   1.00
N137   N     0.37528   0.10579   0.20320   0.00000  Uiso   1.00
N138   N     0.35924   0.25382   0.64657   0.00000  Uiso   1.00
C139   C     0.88494   0.58469   0.53213   0.00000  Uiso   1.00
C140   C     0.81839   0.56299   0.55311   0.00000  Uiso   1.00
C141   C     0.81139   0.52503   0.59519   0.00000  Uiso   1.00
C142   C     0.74619   0.51045   0.60825   0.00000  Uiso   1.00
C143   C     0.65139   0.47331   0.64506   0.00000  Uiso   1.00
C144   C     0.88502   0.58940   0.44285   0.00000  Uiso   1.00
C145   C     0.93404   0.57365   0.39223   0.00000  Uiso   1.00
C146   C     0.92492   0.58131   0.31248   0.00000  Uiso   1.00
C147   C     0.93359   0.58520   0.17811   0.00000  Uiso   1.00
C148   C     0.88059   0.63019   0.56505   0.00000  Uiso   1.00
C149   C     0.92590   0.64875   0.61717   0.00000  Uiso   1.00
C150   C     0.91307   0.69076   0.64029   0.00000  Uiso   1.00
C151   C     0.91487   0.75798   0.69566   0.00000  Uiso   1.00
C152   C     0.78159   0.62630   0.48051   0.00000  Uiso   1.00
C153   C     0.76226   0.58559   0.52507   0.00000  Uiso   1.00
C154   C     0.69705   0.57106   0.53808   0.00000  Uiso   1.00
C155   C     0.68995   0.53309   0.58017   0.00000  Uiso   1.00
C156   C     0.82889   0.61200   0.41481   0.00000  Uiso   1.00
C157   C     0.81970   0.61968   0.33512   0.00000  Uiso   1.00
C158   C     0.86869   0.60395   0.28439   0.00000  Uiso   1.00
C159   C     0.82446   0.65279   0.53702   0.00000  Uiso   1.00
C160   C     0.81156   0.69478   0.56006   0.00000  Uiso   1.00
C161   C     0.85684   0.71340   0.61220   0.00000  Uiso   1.00
H162   H     0.92864   0.56710   0.55396   0.00000  Uiso   1.00
H163   H     0.85484   0.50755   0.61687   0.00000  Uiso   1.00
H164   H     0.97747   0.55617   0.41395   0.00000  Uiso   1.00
H165   H     0.96933   0.63125   0.63885   0.00000  Uiso   1.00
H166   H     0.74827   0.45149   0.67423   0.00000  Uiso   1.00
H167   H     0.00686   0.55402   0.24636   0.00000  Uiso   1.00
H168   H     0.98969   0.71235   0.72061   0.00000  Uiso   1.00
H169   H     0.73789   0.64389   0.45868   0.00000  Uiso   1.00
H170   H     0.65362   0.58856   0.51637   0.00000  Uiso   1.00
H171   H     0.77626   0.63718   0.31345   0.00000  Uiso   1.00
H172   H     0.76811   0.71226   0.53835   0.00000  Uiso   1.00
H173   H     0.58495   0.51724   0.59266   0.00000  Uiso   1.00
H174   H     0.84354   0.61977   0.16479   0.00000  Uiso   1.00
H175   H     0.82637   0.77810   0.63904   0.00000  Uiso   1.00
O176   O     0.61461   0.44657   0.67309   0.00000  Uiso   1.00
O177   O     0.95388   0.58109   0.11174   0.00000  Uiso   1.00
O178   O     0.93136   0.78881   0.73395   0.00000  Uiso   1.00
N179   N     0.72139   0.47456   0.64713   0.00000  Uiso   1.00
N180   N     0.96316   0.57041   0.24709   0.00000  Uiso   1.00
N181   N     0.94712   0.71844   0.69046   0.00000  Uiso   1.00
N182   N     0.63351   0.50994   0.60324   0.00000  Uiso   1.00
N183   N     0.87528   0.60579   0.20320   0.00000  Uiso   1.00
N184   N     0.85924   0.75382   0.64657   0.00000  Uiso   1.00
C185   C     0.88494   0.41531   0.46787   0.00000  Uiso   1.00
C186   C     0.81839   0.43701   0.44689   0.00000  Uiso   1.00
C187   C     0.81139   0.47497   0.40481   0.00000  Uiso   1.00
C188   C     0.74619   0.48955   0.39175   0.00000  Uiso   1.00
C189   C     0.65139   0.52669   0.35494   0.00000  Uiso   1.00
C190   C     0.88502   0.41060   0.55715   0.00000  Uiso   1.00
C191   C     0.93404   0.42635   0.60777   0.00000  Uiso   1.00
C192   C     0.92492   0.41869   0.68752   0.00000  Uiso   1.00
C193   C     0.93359   0.41480   0.82189   0.00000  Uiso   1.00
C194   C     0.88059   0.36981   0.43495   0.00000  Uiso   1.00
C195   C     0.92590   0.35125   0.38283   0.00000  Uiso   1.00
C196   C     0.91307   0.30924   0.35971   0.00000  Uiso   1.00
C197   C     0.91487   0.24202   0.30434   0.00000  Uiso   1.00
C198   C     0.78159   0.37370   0.51949   0.00000  Uiso   1.00
C199   C     0.76226   0.41441   0.47493   0.00000  Uiso   1.00
C200   C     0.69705   0.42894   0.46192   0.00000  Uiso   1.00
C201   C     0.68995   0.46691   0.41983   0.00000  Uiso   1.00
C202   C     0.82889   0.38800   0.58519   0.00000  Uiso   1.00
C203   C     0.81970   0.38032   0.66488   0.00000  Uiso   1.00
C204   C     0.86869   0.39605   0.71561   0.00000  Uiso   1.00
C205   C     0.82446   0.34721   0.46298   0.00000  Uiso   1.00
C206   C     0.81156   0.30522   0.43994   0.00000  Uiso   1.00
C207   C     0.85684   0.28660   0.38780   0.00000  Uiso   1.00
H208   H     0.92864   0.43290   0.44604   0.00000  Uiso   1.00
H209   H     0.85484   0.49245   0.38313   0.00000  Uiso   1.00
H210   H     0.97747   0.44383   0.58605   0.00000  Uiso   1.00
H211   H     0.96933   0.36875   0.36115   0.00000  Uiso   1.00
H212   H     0.74827   0.54851   0.32577   0.00000  Uiso   1.00
H213   H     0.00686   0.44598   0.75364   0.00000  Uiso   1.00
H214   H     0.98969   0.28765   0.27939   0.00000  Uiso   1.00
H215   H     0.73789   0.35611   0.54132   0.00000  Uiso   1.00
H216   H     0.65362   0.41144   0.48363   0.00000  Uiso   1.00
H217   H     0.77626   0.36282   0.68655   0.00000  Uiso   1.00
H218   H     0.76811   0.28774   0.46165   0.00000  Uiso   1.00
H219   H     0.58495   0.48276   0.40734   0.00000  Uiso   1.00
H220   H     0.84354   0.38023   0.83521   0.00000  Uiso   1.00
H221   H     0.82637   0.22190   0.36096   0.00000  Uiso   1.00
O222   O     0.61461   0.55343   0.32691   0.00000  Uiso   1.00
O223   O     0.95388   0.41891   0.88826   0.00000  Uiso   1.00
O224   O     0.93136   0.21119   0.26605   0.00000  Uiso   1.00
N225   N     0.72139   0.52544   0.35287   0.00000  Uiso   1.00
N226   N     0.96316   0.42959   0.75291   0.00000  Uiso   1.00
N227   N     0.94712   0.28156   0.30954   0.00000  Uiso   1.00
N228   N     0.63351   0.49006   0.39676   0.00000  Uiso   1.00
N229   N     0.87528   0.39421   0.79680   0.00000  Uiso   1.00
N230   N     0.85924   0.24618   0.35343   0.00000  Uiso   1.00
C231   C     0.38494   0.91531   0.46787   0.00000  Uiso   1.00
C232   C     0.31839   0.93701   0.44689   0.00000  Uiso   1.00
C233   C     0.31139   0.97497   0.40481   0.00000  Uiso   1.00
C234   C     0.24619   0.98955   0.39175   0.00000  Uiso   1.00
C235   C     0.15139   0.02669   0.35494   0.00000  Uiso   1.00
C236   C     0.38502   0.91060   0.55715   0.00000  Uiso   1.00
C237   C     0.43404   0.92635   0.60777   0.00000  Uiso   1.00
C238   C     0.42492   0.91869   0.68752   0.00000  Uiso   1.00
C239   C     0.43359   0.91480   0.82189   0.00000  Uiso   1.00
C240   C     0.38059   0.86981   0.43495   0.00000  Uiso   1.00
C241   C     0.42590   0.85125   0.38283   0.00000  Uiso   1.00
C242   C     0.41307   0.80924   0.35971   0.00000  Uiso   1.00
C243   C     0.41487   0.74202   0.30434   0.00000  Uiso   1.00
C244   C     0.28159   0.87370   0.51949   0.00000  Uiso   1.00
C245   C     0.26226   0.91441   0.47493   0.00000  Uiso   1.00
C246   C     0.19705   0.92894   0.46192   0.00000  Uiso   1.00
C247   C     0.18995   0.96691   0.41983   0.00000  Uiso   1.00
C248   C     0.32889   0.88800   0.58519   0.00000  Uiso   1.00
C249   C     0.31970   0.88032   0.66488   0.00000  Uiso   1.00
C250   C     0.36869   0.89605   0.71561   0.00000  Uiso   1.00
C251   C     0.32446   0.84721   0.46298   0.00000  Uiso   1.00
C252   C     0.31156   0.80522   0.43994   0.00000  Uiso   1.00
C253   C     0.35684   0.78660   0.38780   0.00000  Uiso   1.00
H254   H     0.42864   0.93290   0.44604   0.00000  Uiso   1.00
H255   H     0.35484   0.99245   0.38313   0.00000  Uiso   1.00
H256   H     0.47747   0.94383   0.58605   0.00000  Uiso   1.00
H257   H     0.46933   0.86875   0.36115   0.00000  Uiso   1.00
H258   H     0.24827   0.04851   0.32577   0.00000  Uiso   1.00
H259   H     0.50686   0.94598   0.75364   0.00000  Uiso   1.00
H260   H     0.48969   0.78765   0.27939   0.00000  Uiso   1.00
H261   H     0.23789   0.85611   0.54132   0.00000  Uiso   1.00
H262   H     0.15362   0.91144   0.48363   0.00000  Uiso   1.00
H263   H     0.27626   0.86282   0.68655   0.00000  Uiso   1.00
H264   H     0.26811   0.78774   0.46165   0.00000  Uiso   1.00
H265   H     0.08495   0.98276   0.40734   0.00000  Uiso   1.00
H266   H     0.34354   0.88023   0.83521   0.00000  Uiso   1.00
H267   H     0.32637   0.72190   0.36096   0.00000  Uiso   1.00
O268   O     0.11461   0.05343   0.32691   0.00000  Uiso   1.00
O269   O     0.45388   0.91891   0.88826   0.00000  Uiso   1.00
O270   O     0.43136   0.71119   0.26605   0.00000  Uiso   1.00
N271   N     0.22139   0.02544   0.35287   0.00000  Uiso   1.00
N272   N     0.46316   0.92959   0.75291   0.00000  Uiso   1.00
N273   N     0.44712   0.78156   0.30954   0.00000  Uiso   1.00
N274   N     0.13351   0.99006   0.39676   0.00000  Uiso   1.00
N275   N     0.37528   0.89421   0.79680   0.00000  Uiso   1.00
N276   N     0.35924   0.74618   0.35343   0.00000  Uiso   1.00
C277   C     0.61506   0.08469   0.46787   0.00000  Uiso   1.00
C278   C     0.68161   0.06299   0.44689   0.00000  Uiso   1.00
C279   C     0.68861   0.02503   0.40481   0.00000  Uiso   1.00
C280   C     0.75381   0.01045   0.39175   0.00000  Uiso   1.00
C281   C     0.84861   0.97331   0.35494   0.00000  Uiso   1.00
C282   C     0.61498   0.08940   0.55715   0.00000  Uiso   1.00
C283   C     0.56596   0.07365   0.60777   0.00000  Uiso   1.00
C284   C     0.57508   0.08131   0.68752   0.00000  Uiso   1.00
C285   C     0.56641   0.08520   0.82189   0.00000  Uiso   1.00
C286   C     0.61941   0.13019   0.43495   0.00000  Uiso   1.00
C287   C     0.57410   0.14875   0.38283   0.00000  Uiso   1.00
C288   C     0.58693   0.19076   0.35971   0.00000  Uiso   1.00
C289   C     0.58513   0.25798   0.30434   0.00000  Uiso   1.00
C290   C     0.71841   0.12630   0.51949   0.00000  Uiso   1.00
C291   C     0.73774   0.08559   0.47493   0.00000  Uiso   1.00
C292   C     0.80295   0.07106   0.46192   0.00000  Uiso   1.00
C293   C     0.81005   0.03309   0.41983   0.00000  Uiso   1.00
C294   C     0.67111   0.11200   0.58519   0.00000  Uiso   1.00
C295   C     0.68030   0.11968   0.66488   0.00000  Uiso   1.00
C296   C     0.63131   0.10395   0.71561   0.00000  Uiso   1.00
C297   C     0.67554   0.15279   0.46298   0.00000  Uiso   1.00
C298   C     0.68844   0.19478   0.43994   0.00000  Uiso   1.00
C299   C     0.64316   0.21340   0.38780   0.00000  Uiso   1.00
H300   H     0.57136   0.06710   0.44604   0.00000  Uiso   1.00
H301   H     0.64516   0.00755   0.38313   0.00000  Uiso   1.00
H302   H     0.52253   0.05617   0.58605   0.00000  Uiso   1.00
H303   H     0.53067   0.13125   0.36115   0.00000  Uiso   1.00
H304   H     0.75173   0.95149   0.32577   0.00000  Uiso   1.00
H305   H     0.49314   0.05402   0.75364   0.00000  Uiso   1.00
H306   H     0.51031   0.21235   0.27939   0.00000  Uiso   1.00
H307   H     0.76211   0.14389   0.54132   0.00000  Uiso   1.00
H308   H     0.84638   0.08856   0.48363   0.00000  Uiso   1.00
H309   H     0.72374   0.13718   0.68655   0.00000  Uiso   1.00
H310   H     0.73189   0.21226   0.46165   0.00000  Uiso   1.00
H311   H     0.91505   0.01724   0.40734   0.00000  Uiso   1.00
H312   H     0.65646   0.11977   0.83521   0.00000  Uiso   1.00
H313   H     0.67363   0.27810   0.36096   0.00000  Uiso   1.00
O314   O     0.88539   0.94657   0.32691   0.00000  Uiso   1.00
O315   O     0.54612   0.08109   0.88826   0.00000  Uiso   1.00
O316   O     0.56864   0.28881   0.26605   0.00000  Uiso   1.00
N317   N     0.77861   0.97456   0.35287   0.00000  Uiso   1.00
N318   N     0.53684   0.07041   0.75291   0.00000  Uiso   1.00
N319   N     0.55288   0.21844   0.30954   0.00000  Uiso   1.00
N320   N     0.86649   0.00994   0.39676   0.00000  Uiso   1.00
N321   N     0.62472   0.10579   0.79680   0.00000  Uiso   1.00
N322   N     0.64076   0.25382   0.35343   0.00000  Uiso   1.00
C323   C     0.11506   0.58469   0.46787   0.00000  Uiso   1.00
C324   C     0.18161   0.56299   0.44689   0.00000  Uiso   1.00
C325   C     0.18861   0.52503   0.40481   0.00000  Uiso   1.00
C326   C     0.25381   0.51045   0.39175   0.00000  Uiso   1.00
C327   C     0.34861   0.47331   0.35494   0.00000  Uiso   1.00
C328   C     0.11498   0.58940   0.55715   0.00000  Uiso   1.00
C329   C     0.06596   0.57365   0.60777   0.00000  Uiso   1.00
C330   C     0.07508   0.58131   0.68752   0.00000  Uiso   1.00
C331   C     0.06641   0.58520   0.82189   0.00000  Uiso   1.00
C332   C     0.11941   0.63019   0.43495   0.00000  Uiso   1.00
C333   C     0.07410   0.64875   0.38283   0.00000  Uiso   1.00
C334   C     0.08693   0.69076   0.35971   0.00000  Uiso   1.00
C335   C     0.08513   0.75798   0.30434   0.00000  Uiso   1.00
C336   C     0.21841   0.62630   0.51949   0.00000  Uiso   1.00
C337   C     0.23774   0.58559   0.47493   0.00000  Uiso   1.00
C338   C     0.30295   0.57106   0.46192   0.00000  Uiso   1.00
C339   C     0.31005   0.53309   0.41983   0.00000  Uiso   1.00
C340   C     0.17111   0.61200   0.58519   0.00000  Uiso   1.00
C341   C     0.18030   0.61968   0.66488   0.00000  Uiso   1.00
C342   C     0.13131   0.60395   0.71561   0.00000  Uiso   1.00
C343   C     0.17554   0.65279   0.46298   0.00000  Uiso   1.00
C344   C     0.18844   0.69478   0.43994   0.00000  Uiso   1.00
C345   C     0.14316   0.71340   0.38780   0.00000  Uiso   1.00
H346   H     0.07136   0.56710   0.44604   0.00000  Uiso   1.00
H347   H     0.14516   0.50755   0.38313   0.00000  Uiso   1.00
H348   H     0.02253   0.55617   0.58605   0.00000  Uiso   1.00
H349   H     0.03067   0.63125   0.36115   0.00000  Uiso   1.00
H350   H     0.25173   0.45149   0.32577   0.00000  Uiso   1.00
H351   H     0.99314   0.55402   0.75364   0.00000  Uiso   1.00
H352   H     0.01031   0.71235   0.27939   0.00000  Uiso   1.00
H353   H     0.26211   0.64389   0.54132   0.00000  Uiso   1.00
H354   H     0.34638   0.58856   0.48363   0.00000  Uiso   1.00
H355   H     0.22374   0.63718   0.68655   0.00000  Uiso   1.00
H356   H     0.23189   0.71226   0.46165   0.00000  Uiso   1.00
H357   H     0.41505   0.51724   0.40734   0.00000  Uiso   1.00
H358   H     0.15646   0.61977   0.83521   0.00000  Uiso   1.00
H359   H     0.17363   0.77810   0.36096   0.00000  Uiso   1.00
O360   O     0.38539   0.44657   0.32691   0.00000  Uiso   1.00
O361   O     0.04612   0.58109   0.88826   0.00000  Uiso   1.00
O362   O     0.06864   0.78881   0.26605   0.00000  Uiso   1.00
N363   N     0.27861   0.47456   0.35287   0.00000  Uiso   1.00
N364   N     0.03684   0.57041   0.75291   0.00000  Uiso   1.00
N365   N     0.05288   0.71844   0.30954   0.00000  Uiso   1.00
N366   N     0.36649   0.50994   0.39676   0.00000  Uiso   1.00
N367   N     0.12472   0.60579   0.79680   0.00000  Uiso   1.00
N368   N     0.14076   0.75382   0.35343   0.00000  Uiso   1.00
C369   C     0.88494   0.08469   0.96787   0.00000  Uiso   1.00
C370   C     0.81839   0.06299   0.94689   0.00000  Uiso   1.00
C371   C     0.81139   0.02503   0.90481   0.00000  Uiso   1.00
C372   C     0.74619   0.01045   0.89175   0.00000  Uiso   1.00
C373   C     0.65139   0.97331   0.85494   0.00000  Uiso   1.00
C374   C     0.88502   0.08940   0.05715   0.00000  Uiso   1.00
C375   C     0.93404   0.07365   0.10777   0.00000  Uiso   1.00
C376   C     0.92492   0.08131   0.18752   0.00000  Uiso   1.00
C377   C     0.93359   0.08520   0.32189   0.00000  Uiso   1.00
C378   C     0.88059   0.13019   0.93495   0.00000  Uiso   1.00
C379   C     0.92590   0.14875   0.88283   0.00000  Uiso   1.00
C380   C     0.91307   0.19076   0.85971   0.00000  Uiso   1.00
C381   C     0.91487   0.25798   0.80434   0.00000  Uiso   1.00
C382   C     0.78159   0.12630   0.01949   0.00000  Uiso   1.00
C383   C     0.76226   0.08559   0.97493   0.00000  Uiso   1.00
C384   C     0.69705   0.07106   0.96192   0.00000  Uiso   1.00
C385   C     0.68995   0.03309   0.91983   0.00000  Uiso   1.00
C386   C     0.82889   0.11200   0.08519   0.00000  Uiso   1.00
C387   C     0.81970   0.11968   0.16488   0.00000  Uiso   1.00
C388   C     0.86869   0.10395   0.21561   0.00000  Uiso   1.00
C389   C     0.82446   0.15279   0.96298   0.00000  Uiso   1.00
C390   C     0.81156   0.19478   0.93994   0.00000  Uiso   1.00
C391   C     0.85684   0.21340   0.88780   0.00000  Uiso   1.00
H392   H     0.92864   0.06710   0.94604   0.00000  Uiso   1.00
H393   H     0.85484   0.00755   0.88313   0.00000  Uiso   1.00
H394   H     0.97747   0.05617   0.08605   0.00000  Uiso   1.00
H395   H     0.96933   0.13125   0.86115   0.00000  Uiso   1.00
H396   H     0.74827   0.95149   0.82577   0.00000  Uiso   1.00
H397   H     0.00686   0.05402   0.25364   0.00000  Uiso   1.00
H398   H     0.98969   0.21235   0.77939   0.00000  Uiso   1.00
H399   H     0.73789   0.14389   0.04132   0.00000  Uiso   1.00
H400   H     0.65362   0.08856   0.98363   0.00000  Uiso   1.00
H401   H     0.77626   0.13718   0.18655   0.00000  Uiso   1.00
H402   H     0.76811   0.21226   0.96165   0.00000  Uiso   1.00
H403   H     0.58495   0.01724   0.90734   0.00000  Uiso   1.00
H404   H     0.84354   0.11977   0.33521   0.00000  Uiso   1.00
H405   H     0.82637   0.27810   0.86096   0.00000  Uiso   1.00
O406   O     0.61461   0.94657   0.82691   0.00000  Uiso   1.00
O407   O     0.95388   0.08109   0.38826   0.00000  Uiso   1.00
O408   O     0.93136   0.28881   0.76605   0.00000  Uiso   1.00
N409   N     0.72139   0.97456   0.85287   0.00000  Uiso   1.00
N410   N     0.96316   0.07041   0.25291   0.00000  Uiso   1.00
N411   N     0.94712   0.21844   0.80954   0.00000  Uiso   1.00
N412   N     0.63351   0.00994   0.89676   0.00000  Uiso   1.00
N413   N     0.87528   0.10579   0.29680   0.00000  Uiso   1.00
N414   N     0.85924   0.25382   0.85343   0.00000  Uiso   1.00
C415   C     0.38494   0.58469   0.96787   0.00000  Uiso   1.00
C416   C     0.31839   0.56299   0.94689   0.00000  Uiso   1.00
C417   C     0.31139   0.52503   0.90481   0.00000  Uiso   1.00
C418   C     0.24619   0.51045   0.89175   0.00000  Uiso   1.00
C419   C     0.15139   0.47331   0.85494   0.00000  Uiso   1.00
C420   C     0.38502   0.58940   0.05715   0.00000  Uiso   1.00
C421   C     0.43404   0.57365   0.10777   0.00000  Uiso   1.00
C422   C     0.42492   0.58131   0.18752   0.00000  Uiso   1.00
C423   C     0.43359   0.58520   0.32189   0.00000  Uiso   1.00
C424   C     0.38059   0.63019   0.93495   0.00000  Uiso   1.00
C425   C     0.42590   0.64875   0.88283   0.00000  Uiso   1.00
C426   C     0.41307   0.69076   0.85971   0.00000  Uiso   1.00
C427   C     0.41487   0.75798   0.80434   0.00000  Uiso   1.00
C428   C     0.28159   0.62630   0.01949   0.00000  Uiso   1.00
C429   C     0.26226   0.58559   0.97493   0.00000  Uiso   1.00
C430   C     0.19705   0.57106   0.96192   0.00000  Uiso   1.00
C431   C     0.18995   0.53309   0.91983   0.00000  Uiso   1.00
C432   C     0.32889   0.61200   0.08519   0.00000  Uiso   1.00
C433   C     0.31970   0.61968   0.16488   0.00000  Uiso   1.00
C434   C     0.36869   0.60395   0.21561   0.00000  Uiso   1.00
C435   C     0.32446   0.65279   0.96298   0.00000  Uiso   1.00
C436   C     0.31156   0.69478   0.93994   0.00000  Uiso   1.00
C437   C     0.35684   0.71340   0.88780   0.00000  Uiso   1.00
H438   H     0.42864   0.56710   0.94604   0.00000  Uiso   1.00
H439   H     0.35484   0.50755   0.88313   0.00000  Uiso   1.00
H440   H     0.47747   0.55617   0.08605   0.00000  Uiso   1.00
H441   H     0.46933   0.63125   0.86115   0.00000  Uiso   1.00
H442   H     0.24827   0.45149   0.82577   0.00000  Uiso   1.00
H443   H     0.50686   0.55402   0.25364   0.00000  Uiso   1.00
H444   H     0.48969   0.71235   0.77939   0.00000  Uiso   1.00
H445   H     0.23789   0.64389   0.04132   0.00000  Uiso   1.00
H446   H     0.15362   0.58856   0.98363   0.00000  Uiso   1.00
H447   H     0.27626   0.63718   0.18655   0.00000  Uiso   1.00
H448   H     0.26811   0.71226   0.96165   0.00000  Uiso   1.00
H449   H     0.08495   0.51724   0.90734   0.00000  Uiso   1.00
H450   H     0.34354   0.61977   0.33521   0.00000  Uiso   1.00
H451   H     0.32637   0.77810   0.86096   0.00000  Uiso   1.00
O452   O     0.11461   0.44657   0.82691   0.00000  Uiso   1.00
O453   O     0.45388   0.58109   0.38826   0.00000  Uiso   1.00
O454   O     0.43136   0.78881   0.76605   0.00000  Uiso   1.00
N455   N     0.22139   0.47456   0.85287   0.00000  Uiso   1.00
N456   N     0.46316   0.57041   0.25291   0.00000  Uiso   1.00
N457   N     0.44712   0.71844   0.80954   0.00000  Uiso   1.00
N458   N     0.13351   0.50994   0.89676   0.00000  Uiso   1.00
N459   N     0.37528   0.60579   0.29680   0.00000  Uiso   1.00
N460   N     0.35924   0.75382   0.85343   0.00000  Uiso   1.00
C461   C     0.61506   0.41531   0.96787   0.00000  Uiso   1.00
C462   C     0.68161   0.43701   0.94689   0.00000  Uiso   1.00
C463   C     0.68861   0.47497   0.90481   0.00000  Uiso   1.00
C464   C     0.75381   0.48955   0.89175   0.00000  Uiso   1.00
C465   C     0.84861   0.52669   0.85494   0.00000  Uiso   1.00
C466   C     0.61498   0.41060   0.05715   0.00000  Uiso   1.00
C467   C     0.56596   0.42635   0.10777   0.00000  Uiso   1.00
C468   C     0.57508   0.41869   0.18752   0.00000  Uiso   1.00
C469   C     0.56641   0.41480   0.32189   0.00000  Uiso   1.00
C470   C     0.61941   0.36981   0.93495   0.00000  Uiso   1.00
C471   C     0.57410   0.35125   0.88283   0.00000  Uiso   1.00
C472   C     0.58693   0.30924   0.85971   0.00000  Uiso   1.00
C473   C     0.58513   0.24202   0.80434   0.00000  Uiso   1.00
C474   C     0.71841   0.37370   0.01949   0.00000  Uiso   1.00
C475   C     0.73774   0.41441   0.97493   0.00000  Uiso   1.00
C476   C     0.80295   0.42894   0.96192   0.00000  Uiso   1.00
C477   C     0.81005   0.46691   0.91983   0.00000  Uiso   1.00
C478   C     0.67111   0.38800   0.08519   0.00000  Uiso   1.00
C479   C     0.68030   0.38032   0.16488   0.00000  Uiso   1.00
C480   C     0.63131   0.39605   0.21561   0.00000  Uiso   1.00
C481   C     0.67554   0.34721   0.96298   0.00000  Uiso   1.00
C482   C     0.68844   0.30522   0.93994   0.00000  Uiso   1.00
C483   C     0.64316   0.28660   0.88780   0.00000  Uiso   1.00
H484   H     0.57136   0.43290   0.94604   0.00000  Uiso   1.00
H485   H     0.64516   0.49245   0.88313   0.00000  Uiso   1.00
H486   H     0.52253   0.44383   0.08605   0.00000  Uiso   1.00
H487   H     0.53067   0.36875   0.86115   0.00000  Uiso   1.00
H488   H     0.75173   0.54851   0.82577   0.00000  Uiso   1.00
H489   H     0.49314   0.44598   0.25364   0.00000  Uiso   1.00
H490   H     0.51031   0.28765   0.77939   0.00000  Uiso   1.00
H491   H     0.76211   0.35611   0.04132   0.00000  Uiso   1.00
H492   H     0.84638   0.41144   0.98363   0.00000  Uiso   1.00
H493   H     0.72374   0.36282   0.18655   0.00000  Uiso   1.00
H494   H     0.73189   0.28774   0.96165   0.00000  Uiso   1.00
H495   H     0.91505   0.48276   0.90734   0.00000  Uiso   1.00
H496   H     0.65646   0.38023   0.33521   0.00000  Uiso   1.00
H497   H     0.67363   0.22190   0.86096   0.00000  Uiso   1.00
O498   O     0.88539   0.55343   0.82691   0.00000  Uiso   1.00
O499   O     0.54612   0.41891   0.38826   0.00000  Uiso   1.00
O500   O     0.56864   0.21119   0.76605   0.00000  Uiso   1.00
N501   N     0.77861   0.52544   0.85287   0.00000  Uiso   1.00
N502   N     0.53684   0.42959   0.25291   0.00000  Uiso   1.00
N503   N     0.55288   0.28156   0.80954   0.00000  Uiso   1.00
N504   N     0.86649   0.49006   0.89676   0.00000  Uiso   1.00
N505   N     0.62472   0.39421   0.29680   0.00000  Uiso   1.00
N506   N     0.64076   0.24618   0.85343   0.00000  Uiso   1.00
C507   C     0.11506   0.91531   0.96787   0.00000  Uiso   1.00
C508   C     0.18161   0.93701   0.94689   0.00000  Uiso   1.00
C509   C     0.18861   0.97497   0.90481   0.00000  Uiso   1.00
C510   C     0.25381   0.98955   0.89175   0.00000  Uiso   1.00
C511   C     0.34861   0.02669   0.85494   0.00000  Uiso   1.00
C512   C     0.11498   0.91060   0.05715   0.00000  Uiso   1.00
C513   C     0.06596   0.92635   0.10777   0.00000  Uiso   1.00
C514   C     0.07508   0.91869   0.18752   0.00000  Uiso   1.00
C515   C     0.06641   0.91480   0.32189   0.00000  Uiso   1.00
C516   C     0.11941   0.86981   0.93495   0.00000  Uiso   1.00
C517   C     0.07410   0.85125   0.88283   0.00000  Uiso   1.00
C518   C     0.08693   0.80924   0.85971   0.00000  Uiso   1.00
C519   C     0.08513   0.74202   0.80434   0.00000  Uiso   1.00
C520   C     0.21841   0.87370   0.01949   0.00000  Uiso   1.00
C521   C     0.23774   0.91441   0.97493   0.00000  Uiso   1.00
C522   C     0.30295   0.92894   0.96192   0.00000  Uiso   1.00
C523   C     0.31005   0.96691   0.91983   0.00000  Uiso   1.00
C524   C     0.17111   0.88800   0.08519   0.00000  Uiso   1.00
C525   C     0.18030   0.88032   0.16488   0.00000  Uiso   1.00
C526   C     0.13131   0.89605   0.21561   0.00000  Uiso   1.00
C527   C     0.17554   0.84721   0.96298   0.00000  Uiso   1.00
C528   C     0.18844   0.80522   0.93994   0.00000  Uiso   1.00
C529   C     0.14316   0.78660   0.88780   0.00000  Uiso   1.00
H530   H     0.07136   0.93290   0.94604   0.00000  Uiso   1.00
H531   H     0.14516   0.99245   0.88313   0.00000  Uiso   1.00
H532   H     0.02253   0.94383   0.08605   0.00000  Uiso   1.00
H533   H     0.03067   0.86875   0.86115   0.00000  Uiso   1.00
H534   H     0.25173   0.04851   0.82577   0.00000  Uiso   1.00
H535   H     0.99314   0.94598   0.25364   0.00000  Uiso   1.00
H536   H     0.01031   0.78765   0.77939   0.00000  Uiso   1.00
H537   H     0.26211   0.85611   0.04132   0.00000  Uiso   1.00
H538   H     0.34638   0.91144   0.98363   0.00000  Uiso   1.00
H539   H     0.22374   0.86282   0.18655   0.00000  Uiso   1.00
H540   H     0.23189   0.78774   0.96165   0.00000  Uiso   1.00
H541   H     0.41505   0.98276   0.90734   0.00000  Uiso   1.00
H542   H     0.15646   0.88023   0.33521   0.00000  Uiso   1.00
H543   H     0.17363   0.72190   0.86096   0.00000  Uiso   1.00
O544   O     0.38539   0.05343   0.82691   0.00000  Uiso   1.00
O545   O     0.04612   0.91891   0.38826   0.00000  Uiso   1.00
O546   O     0.06864   0.71119   0.76605   0.00000  Uiso   1.00
N547   N     0.27861   0.02544   0.85287   0.00000  Uiso   1.00
N548   N     0.03684   0.92959   0.25291   0.00000  Uiso   1.00
N549   N     0.05288   0.78156   0.80954   0.00000  Uiso   1.00
N550   N     0.36649   0.99006   0.89676   0.00000  Uiso   1.00
N551   N     0.12472   0.89421   0.29680   0.00000  Uiso   1.00
N552   N     0.14076   0.74618   0.85343   0.00000  Uiso   1.00
C553   C     0.11506   0.08469   0.03213   0.00000  Uiso   1.00
C554   C     0.18161   0.06299   0.05311   0.00000  Uiso   1.00
C555   C     0.18861   0.02503   0.09519   0.00000  Uiso   1.00
C556   C     0.25381   0.01045   0.10825   0.00000  Uiso   1.00
C557   C     0.34861   0.97331   0.14506   0.00000  Uiso   1.00
C558   C     0.11498   0.08940   0.94285   0.00000  Uiso   1.00
C559   C     0.06596   0.07365   0.89223   0.00000  Uiso   1.00
C560   C     0.07508   0.08131   0.81248   0.00000  Uiso   1.00
C561   C     0.06641   0.08520   0.67811   0.00000  Uiso   1.00
C562   C     0.11941   0.13019   0.06505   0.00000  Uiso   1.00
C563   C     0.07410   0.14875   0.11717   0.00000  Uiso   1.00
C564   C     0.08693   0.19076   0.14029   0.00000  Uiso   1.00
C565   C     0.08513   0.25798   0.19566   0.00000  Uiso   1.00
C566   C     0.21841   0.12630   0.98051   0.00000  Uiso   1.00
C567   C     0.23774   0.08559   0.02507   0.00000  Uiso   1.00
C568   C     0.30295   0.07106   0.03808   0.00000  Uiso   1.00
C569   C     0.31005   0.03309   0.08017   0.00000  Uiso   1.00
C570   C     0.17111   0.11200   0.91481   0.00000  Uiso   1.00
C571   C     0.18030   0.11968   0.83512   0.00000  Uiso   1.00
C572   C     0.13131   0.10395   0.78439   0.00000  Uiso   1.00
C573   C     0.17554   0.15279   0.03702   0.00000  Uiso   1.00
C574   C     0.18844   0.19478   0.06006   0.00000  Uiso   1.00
C575   C     0.14316   0.21340   0.11220   0.00000  Uiso   1.00
H576   H     0.07136   0.06710   0.05396   0.00000  Uiso   1.00
H577   H     0.14516   0.00755   0.11687   0.00000  Uiso   1.00
H578   H     0.02253   0.05617   0.91395   0.00000  Uiso   1.00
H579   H     0.03067   0.13125   0.13885   0.00000  Uiso   1.00
H580   H     0.25173   0.95149   0.17423   0.00000  Uiso   1.00
H581   H     0.99314   0.05402   0.74636   0.00000  Uiso   1.00
H582   H     0.01031   0.21235   0.22061   0.00000  Uiso   1.00
H583   H     0.26211   0.14389   0.95868   0.00000  Uiso   1.00
H584   H     0.34638   0.08856   0.01637   0.00000  Uiso   1.00
H585   H     0.22374   0.13718   0.81345   0.00000  Uiso   1.00
H586   H     0.23189   0.21226   0.03835   0.00000  Uiso   1.00
H587   H     0.41505   0.01724   0.09266   0.00000  Uiso   1.00
H588   H     0.15646   0.11977   0.66479   0.00000  Uiso   1.00
H589   H     0.17363   0.27810   0.13904   0.00000  Uiso   1.00
O590   O     0.38539   0.94657   0.17309   0.00000  Uiso   1.00
O591   O     0.04612   0.08109   0.61174   0.00000  Uiso   1.00
O592   O     0.06864   0.28881   0.23395   0.00000  Uiso   1.00
N593   N     0.27861   0.97456   0.14713   0.00000  Uiso   1.00
N594   N     0.03684   0.07041   0.74709   0.00000  Uiso   1.00
N595   N     0.05288   0.21844   0.19046   0.00000  Uiso   1.00
N596   N     0.36649   0.00994   0.10324   0.00000  Uiso   1.00
N597   N     0.12472   0.10579   0.70320   0.00000  Uiso   1.00
N598   N     0.14076   0.25382   0.14657   0.00000  Uiso   1.00
C599   C     0.61506   0.58469   0.03213   0.00000  Uiso   1.00
C600   C     0.68161   0.56299   0.05311   0.00000  Uiso   1.00
C601   C     0.68861   0.52503   0.09519   0.00000  Uiso   1.00
C602   C     0.75381   0.51045   0.10825   0.00000  Uiso   1.00
C603   C     0.84861   0.47331   0.14506   0.00000  Uiso   1.00
C604   C     0.61498   0.58940   0.94285   0.00000  Uiso   1.00
C605   C     0.56596   0.57365   0.89223   0.00000  Uiso   1.00
C606   C     0.57508   0.58131   0.81248   0.00000  Uiso   1.00
C607   C     0.56641   0.58520   0.67811   0.00000  Uiso   1.00
C608   C     0.61941   0.63019   0.06505   0.00000  Uiso   1.00
C609   C     0.57410   0.64875   0.11717   0.00000  Uiso   1.00
C610   C     0.58693   0.69076   0.14029   0.00000  Uiso   1.00
C611   C     0.58513   0.75798   0.19566   0.00000  Uiso   1.00
C612   C     0.71841   0.62630   0.98051   0.00000  Uiso   1.00
C613   C     0.73774   0.58559   0.02507   0.00000  Uiso   1.00
C614   C     0.80295   0.57106   0.03808   0.00000  Uiso   1.00
C615   C     0.81005   0.53309   0.08017   0.00000  Uiso   1.00
C616   C     0.67111   0.61200   0.91481   0.00000  Uiso   1.00
C617   C     0.68030   0.61968   0.83512   0.00000  Uiso   1.00
C618   C     0.63131   0.60395   0.78439   0.00000  Uiso   1.00
C619   C     0.67554   0.65279   0.03702   0.00000  Uiso   1.00
C620   C     0.68844   0.69478   0.06006   0.00000  Uiso   1.00
C621   C     0.64316   0.71340   0.11220   0.00000  Uiso   1.00
H622   H     0.57136   0.56710   0.05396   0.00000  Uiso   1.00
H623   H     0.64516   0.50755   0.11687   0.00000  Uiso   1.00
H624   H     0.52253   0.55617   0.91395   0.00000  Uiso   1.00
H625   H     0.53067   0.63125   0.13885   0.00000  Uiso   1.00
H626   H     0.75173   0.45149   0.17423   0.00000  Uiso   1.00
H627   H     0.49314   0.55402   0.74636   0.00000  Uiso   1.00
H628   H     0.51031   0.71235   0.22061   0.00000  Uiso   1.00
H629   H     0.76211   0.64389   0.95868   0.00000  Uiso   1.00
H630   H     0.84638   0.58856   0.01637   0.00000  Uiso   1.00
H631   H     0.72374   0.63718   0.81345   0.00000  Uiso   1.00
H632   H     0.73189   0.71226   0.03835   0.00000  Uiso   1.00
H633   H     0.91505   0.51724   0.09266   0.00000  Uiso   1.00
H634   H     0.65646   0.61977   0.66479   0.00000  Uiso   1.00
H635   H     0.67363   0.77810   0.13904   0.00000  Uiso   1.00
O636   O     0.88539   0.44657   0.17309   0.00000  Uiso   1.00
O637   O     0.54612   0.58109   0.61174   0.00000  Uiso   1.00
O638   O     0.56864   0.78881   0.23395   0.00000  Uiso   1.00
N639   N     0.77861   0.47456   0.14713   0.00000  Uiso   1.00
N640   N     0.53684   0.57041   0.74709   0.00000  Uiso   1.00
N641   N     0.55288   0.71844   0.19046   0.00000  Uiso   1.00
N642   N     0.86649   0.50994   0.10324   0.00000  Uiso   1.00
N643   N     0.62472   0.60579   0.70320   0.00000  Uiso   1.00
N644   N     0.64076   0.75382   0.14657   0.00000  Uiso   1.00
C645   C     0.38494   0.41531   0.03213   0.00000  Uiso   1.00
C646   C     0.31839   0.43701   0.05311   0.00000  Uiso   1.00
C647   C     0.31139   0.47497   0.09519   0.00000  Uiso   1.00
C648   C     0.24619   0.48955   0.10825   0.00000  Uiso   1.00
C649   C     0.15139   0.52669   0.14506   0.00000  Uiso   1.00
C650   C     0.38502   0.41060   0.94285   0.00000  Uiso   1.00
C651   C     0.43404   0.42635   0.89223   0.00000  Uiso   1.00
C652   C     0.42492   0.41869   0.81248   0.00000  Uiso   1.00
C653   C     0.43359   0.41480   0.67811   0.00000  Uiso   1.00
C654   C     0.38059   0.36981   0.06505   0.00000  Uiso   1.00
C655   C     0.42590   0.35125   0.11717   0.00000  Uiso   1.00
C656   C     0.41307   0.30924   0.14029   0.00000  Uiso   1.00
C657   C     0.41487   0.24202   0.19566   0.00000  Uiso   1.00
C658   C     0.28159   0.37370   0.98051   0.00000  Uiso   1.00
C659   C     0.26226   0.41441   0.02507   0.00000  Uiso   1.00
C660   C     0.19705   0.42894   0.03808   0.00000  Uiso   1.00
C661   C     0.18995   0.46691   0.08017   0.00000  Uiso   1.00
C662   C     0.32889   0.38800   0.91481   0.00000  Uiso   1.00
C663   C     0.31970   0.38032   0.83512   0.00000  Uiso   1.00
C664   C     0.36869   0.39605   0.78439   0.00000  Uiso   1.00
C665   C     0.32446   0.34721   0.03702   0.00000  Uiso   1.00
C666   C     0.31156   0.30522   0.06006   0.00000  Uiso   1.00
C667   C     0.35684   0.28660   0.11220   0.00000  Uiso   1.00
H668   H     0.42864   0.43290   0.05396   0.00000  Uiso   1.00
H669   H     0.35484   0.49245   0.11687   0.00000  Uiso   1.00
H670   H     0.47747   0.44383   0.91395   0.00000  Uiso   1.00
H671   H     0.46933   0.36875   0.13885   0.00000  Uiso   1.00
H672   H     0.24827   0.54851   0.17423   0.00000  Uiso   1.00
H673   H     0.50686   0.44598   0.74636   0.00000  Uiso   1.00
H674   H     0.48969   0.28765   0.22061   0.00000  Uiso   1.00
H675   H     0.23789   0.35611   0.95868   0.00000  Uiso   1.00
H676   H     0.15362   0.41144   0.01637   0.00000  Uiso   1.00
H677   H     0.27626   0.36282   0.81345   0.00000  Uiso   1.00
H678   H     0.26811   0.28774   0.03835   0.00000  Uiso   1.00
H679   H     0.08495   0.48276   0.09266   0.00000  Uiso   1.00
H680   H     0.34354   0.38023   0.66479   0.00000  Uiso   1.00
H681   H     0.32637   0.22190   0.13904   0.00000  Uiso   1.00
O682   O     0.11461   0.55343   0.17309   0.00000  Uiso   1.00
O683   O     0.45388   0.41891   0.61174   0.00000  Uiso   1.00
O684   O     0.43136   0.21119   0.23395   0.00000  Uiso   1.00
N685   N     0.22139   0.52544   0.14713   0.00000  Uiso   1.00
N686   N     0.46316   0.42959   0.74709   0.00000  Uiso   1.00
N687   N     0.44712   0.28156   0.19046   0.00000  Uiso   1.00
N688   N     0.13351   0.49006   0.10324   0.00000  Uiso   1.00
N689   N     0.37528   0.39421   0.70320   0.00000  Uiso   1.00
N690   N     0.35924   0.24618   0.14657   0.00000  Uiso   1.00
C691   C     0.88494   0.91531   0.03213   0.00000  Uiso   1.00
C692   C     0.81839   0.93701   0.05311   0.00000  Uiso   1.00
C693   C     0.81139   0.97497   0.09519   0.00000  Uiso   1.00
C694   C     0.74619   0.98955   0.10825   0.00000  Uiso   1.00
C695   C     0.65139   0.02669   0.14506   0.00000  Uiso   1.00
C696   C     0.88502   0.91060   0.94285   0.00000  Uiso   1.00
C697   C     0.93404   0.92635   0.89223   0.00000  Uiso   1.00
C698   C     0.92492   0.91869   0.81248   0.00000  Uiso   1.00
C699   C     0.93359   0.91480   0.67811   0.00000  Uiso   1.00
C700   C     0.88059   0.86981   0.06505   0.00000  Uiso   1.00
C701   C     0.92590   0.85125   0.11717   0.00000  Uiso   1.00
C702   C     0.91307   0.80924   0.14029   0.00000  Uiso   1.00
C703   C     0.91487   0.74202   0.19566   0.00000  Uiso   1.00
C704   C     0.78159   0.87370   0.98051   0.00000  Uiso   1.00
C705   C     0.76226   0.91441   0.02507   0.00000  Uiso   1.00
C706   C     0.69705   0.92894   0.03808   0.00000  Uiso   1.00
C707   C     0.68995   0.96691   0.08017   0.00000  Uiso   1.00
C708   C     0.82889   0.88800   0.91481   0.00000  Uiso   1.00
C709   C     0.81970   0.88032   0.83512   0.00000  Uiso   1.00
C710   C     0.86869   0.89605   0.78439   0.00000  Uiso   1.00
C711   C     0.82446   0.84721   0.03702   0.00000  Uiso   1.00
C712   C     0.81156   0.80522   0.06006   0.00000  Uiso   1.00
C713   C     0.85684   0.78660   0.11220   0.00000  Uiso   1.00
H714   H     0.92864   0.93290   0.05396   0.00000  Uiso   1.00
H715   H     0.85484   0.99245   0.11687   0.00000  Uiso   1.00
H716   H     0.97747   0.94383   0.91395   0.00000  Uiso   1.00
H717   H     0.96933   0.86875   0.13885   0.00000  Uiso   1.00
H718   H     0.74827   0.04851   0.17423   0.00000  Uiso   1.00
H719   H     0.00686   0.94598   0.74636   0.00000  Uiso   1.00
H720   H     0.98969   0.78765   0.22061   0.00000  Uiso   1.00
H721   H     0.73789   0.85611   0.95868   0.00000  Uiso   1.00
H722   H     0.65362   0.91144   0.01637   0.00000  Uiso   1.00
H723   H     0.77626   0.86282   0.81345   0.00000  Uiso   1.00
H724   H     0.76811   0.78774   0.03835   0.00000  Uiso   1.00
H725   H     0.58495   0.98276   0.09266   0.00000  Uiso   1.00
H726   H     0.84354   0.88023   0.66479   0.00000  Uiso   1.00
H727   H     0.82637   0.72190   0.13904   0.00000  Uiso   1.00
O728   O     0.61461   0.05343   0.17309   0.00000  Uiso   1.00
O729   O     0.95388   0.91891   0.61174   0.00000  Uiso   1.00
O730   O     0.93136   0.71119   0.23395   0.00000  Uiso   1.00
N731   N     0.72139   0.02544   0.14713   0.00000  Uiso   1.00
N732   N     0.96316   0.92959   0.74709   0.00000  Uiso   1.00
N733   N     0.94712   0.78156   0.19046   0.00000  Uiso   1.00
N734   N     0.63351   0.99006   0.10324   0.00000  Uiso   1.00
N735   N     0.87528   0.89421   0.70320   0.00000  Uiso   1.00
N736   N     0.85924   0.74618   0.14657   0.00000  Uiso   1.00
