data_job_02133
_audit_creation_date              2018-12-19
_audit_creation_method            'Materials Studio'
_symmetry_space_group_name_H-M    'P1'
_symmetry_Int_Tables_number       1
_symmetry_cell_setting            triclinic
loop_
_symmetry_equiv_pos_as_xyz
  x,y,z
_cell_length_a                    12.4342
_cell_length_b                    47.8339
_cell_length_c                    16.2648
_cell_angle_alpha                 90.0000
_cell_angle_beta                  90.0000
_cell_angle_gamma                 90.0000
loop_
_atom_site_label
_atom_site_type_symbol
_atom_site_fract_x
_atom_site_fract_y
_atom_site_fract_z
_atom_site_U_iso_or_equiv
_atom_site_adp_type
_atom_site_occupancy
C1     C     0.22545   0.45470   0.26460   0.00000  Uiso   1.00
C2     C     0.23254   0.47781   0.32895   0.00000  Uiso   1.00
C3     C     0.21163   0.50594   0.31552   0.00000  Uiso   1.00
C4     C     0.22266   0.52377   0.38236   0.00000  Uiso   1.00
C5     C     0.22904   0.56118   0.47049   0.00000  Uiso   1.00
C6     C     0.33545   0.44061   0.26356   0.00000  Uiso   1.00
C7     C     0.40104   0.43746   0.19515   0.00000  Uiso   1.00
C8     C     0.49869   0.42396   0.20693   0.00000  Uiso   1.00
C9     C     0.66479   0.40359   0.19353   0.00000  Uiso   1.00
C10    C     0.14728   0.43310   0.29899   0.00000  Uiso   1.00
C11    C     0.05468   0.42363   0.26036   0.00000  Uiso   1.00
C12    C     0.99392   0.40381   0.30197   0.00000  Uiso   1.00
C13    C     0.86786   0.37177   0.34358   0.00000  Uiso   1.00
C14    C     0.28223   0.43634   0.40717   0.00000  Uiso   1.00
C15    C     0.26339   0.46784   0.40639   0.00000  Uiso   1.00
C16    C     0.27445   0.48563   0.47327   0.00000  Uiso   1.00
C17    C     0.25355   0.51378   0.45994   0.00000  Uiso   1.00
C18    C     0.36629   0.43064   0.34100   0.00000  Uiso   1.00
C19    C     0.46386   0.41714   0.35289   0.00000  Uiso   1.00
C20    C     0.52959   0.41397   0.28451   0.00000  Uiso   1.00
C21    C     0.17812   0.42313   0.37643   0.00000  Uiso   1.00
C22    C     0.11750   0.40331   0.41810   0.00000  Uiso   1.00
C23    C     0.02482   0.39381   0.37955   0.00000  Uiso   1.00
H24    H     0.20144   0.46247   0.20431   0.00000  Uiso   1.00
H25    H     0.18777   0.51366   0.25558   0.00000  Uiso   1.00
H26    H     0.37714   0.44518   0.13522   0.00000  Uiso   1.00
H27    H     0.03083   0.43135   0.20043   0.00000  Uiso   1.00
H28    H     0.18625   0.56601   0.34657   0.00000  Uiso   1.00
H29    H     0.58554   0.42161   0.09279   0.00000  Uiso   1.00
H30    H     0.85528   0.39246   0.23028   0.00000  Uiso   1.00
H31    H     0.30625   0.42857   0.46747   0.00000  Uiso   1.00
H32    H     0.29832   0.47790   0.53319   0.00000  Uiso   1.00
H33    H     0.48770   0.40942   0.41282   0.00000  Uiso   1.00
H34    H     0.14139   0.39560   0.47803   0.00000  Uiso   1.00
H35    H     0.27598   0.53699   0.57189   0.00000  Uiso   1.00
H36    H     0.67527   0.39259   0.31809   0.00000  Uiso   1.00
H37    H     0.94501   0.36344   0.45560   0.00000  Uiso   1.00
O38    O     0.22405   0.58456   0.49771   0.00000  Uiso   1.00
O39    O     0.74789   0.39511   0.16474   0.00000  Uiso   1.00
O40    O     0.78981   0.35686   0.34514   0.00000  Uiso   1.00
N41    N     0.20844   0.55241   0.39059   0.00000  Uiso   1.00
N42    N     0.58176   0.41741   0.15331   0.00000  Uiso   1.00
N43    N     0.89904   0.39015   0.28185   0.00000  Uiso   1.00
N44    N     0.25672   0.53680   0.51183   0.00000  Uiso   1.00
N45    N     0.63004   0.40179   0.27455   0.00000  Uiso   1.00
N46    N     0.94732   0.37453   0.40309   0.00000  Uiso   1.00
C47    C     0.22545   0.95470   0.76460   0.00000  Uiso   1.00
C48    C     0.23254   0.97781   0.82895   0.00000  Uiso   1.00
C49    C     0.21163   0.00594   0.81552   0.00000  Uiso   1.00
C50    C     0.22266   0.02377   0.88236   0.00000  Uiso   1.00
C51    C     0.22904   0.06118   0.97049   0.00000  Uiso   1.00
C52    C     0.33545   0.94061   0.76356   0.00000  Uiso   1.00
C53    C     0.40104   0.93746   0.69515   0.00000  Uiso   1.00
C54    C     0.49869   0.92396   0.70693   0.00000  Uiso   1.00
C55    C     0.66479   0.90359   0.69353   0.00000  Uiso   1.00
C56    C     0.14728   0.93310   0.79899   0.00000  Uiso   1.00
C57    C     0.05468   0.92363   0.76036   0.00000  Uiso   1.00
C58    C     0.99392   0.90381   0.80197   0.00000  Uiso   1.00
C59    C     0.86786   0.87177   0.84358   0.00000  Uiso   1.00
C60    C     0.28223   0.93634   0.90717   0.00000  Uiso   1.00
C61    C     0.26339   0.96784   0.90639   0.00000  Uiso   1.00
C62    C     0.27445   0.98563   0.97327   0.00000  Uiso   1.00
C63    C     0.25355   0.01378   0.95994   0.00000  Uiso   1.00
C64    C     0.36629   0.93064   0.84100   0.00000  Uiso   1.00
C65    C     0.46386   0.91714   0.85289   0.00000  Uiso   1.00
C66    C     0.52959   0.91397   0.78451   0.00000  Uiso   1.00
C67    C     0.17812   0.92313   0.87643   0.00000  Uiso   1.00
C68    C     0.11750   0.90331   0.91810   0.00000  Uiso   1.00
C69    C     0.02482   0.89381   0.87955   0.00000  Uiso   1.00
H70    H     0.20144   0.96247   0.70431   0.00000  Uiso   1.00
H71    H     0.18777   0.01366   0.75558   0.00000  Uiso   1.00
H72    H     0.37714   0.94518   0.63522   0.00000  Uiso   1.00
H73    H     0.03083   0.93135   0.70043   0.00000  Uiso   1.00
H74    H     0.18625   0.06601   0.84657   0.00000  Uiso   1.00
H75    H     0.58554   0.92161   0.59279   0.00000  Uiso   1.00
H76    H     0.85528   0.89246   0.73028   0.00000  Uiso   1.00
H77    H     0.30625   0.92857   0.96747   0.00000  Uiso   1.00
H78    H     0.29832   0.97790   0.03319   0.00000  Uiso   1.00
H79    H     0.48770   0.90942   0.91282   0.00000  Uiso   1.00
H80    H     0.14139   0.89560   0.97803   0.00000  Uiso   1.00
H81    H     0.27598   0.03699   0.07189   0.00000  Uiso   1.00
H82    H     0.67527   0.89259   0.81809   0.00000  Uiso   1.00
H83    H     0.94501   0.86344   0.95560   0.00000  Uiso   1.00
O84    O     0.22405   0.08456   0.99771   0.00000  Uiso   1.00
O85    O     0.74789   0.89511   0.66474   0.00000  Uiso   1.00
O86    O     0.78981   0.85686   0.84514   0.00000  Uiso   1.00
N87    N     0.20844   0.05241   0.89059   0.00000  Uiso   1.00
N88    N     0.58176   0.91741   0.65331   0.00000  Uiso   1.00
N89    N     0.89904   0.89015   0.78185   0.00000  Uiso   1.00
N90    N     0.25672   0.03680   0.01183   0.00000  Uiso   1.00
N91    N     0.63004   0.90179   0.77455   0.00000  Uiso   1.00
N92    N     0.94732   0.87453   0.90309   0.00000  Uiso   1.00
C93    C     0.72545   0.45470   0.76460   0.00000  Uiso   1.00
C94    C     0.73254   0.47781   0.82895   0.00000  Uiso   1.00
C95    C     0.71163   0.50594   0.81552   0.00000  Uiso   1.00
C96    C     0.72266   0.52377   0.88236   0.00000  Uiso   1.00
C97    C     0.72904   0.56118   0.97049   0.00000  Uiso   1.00
C98    C     0.83545   0.44061   0.76356   0.00000  Uiso   1.00
C99    C     0.90104   0.43746   0.69515   0.00000  Uiso   1.00
C100   C     0.99869   0.42396   0.70693   0.00000  Uiso   1.00
C101   C     0.16479   0.40359   0.69353   0.00000  Uiso   1.00
C102   C     0.64728   0.43310   0.79899   0.00000  Uiso   1.00
C103   C     0.55468   0.42363   0.76036   0.00000  Uiso   1.00
C104   C     0.49392   0.40381   0.80197   0.00000  Uiso   1.00
C105   C     0.36786   0.37177   0.84358   0.00000  Uiso   1.00
C106   C     0.78223   0.43634   0.90717   0.00000  Uiso   1.00
C107   C     0.76339   0.46784   0.90639   0.00000  Uiso   1.00
C108   C     0.77445   0.48563   0.97327   0.00000  Uiso   1.00
C109   C     0.75355   0.51378   0.95994   0.00000  Uiso   1.00
C110   C     0.86629   0.43064   0.84100   0.00000  Uiso   1.00
C111   C     0.96386   0.41714   0.85289   0.00000  Uiso   1.00
C112   C     0.02959   0.41397   0.78451   0.00000  Uiso   1.00
C113   C     0.67812   0.42313   0.87643   0.00000  Uiso   1.00
C114   C     0.61750   0.40331   0.91810   0.00000  Uiso   1.00
C115   C     0.52482   0.39381   0.87955   0.00000  Uiso   1.00
H116   H     0.70144   0.46247   0.70431   0.00000  Uiso   1.00
H117   H     0.68777   0.51366   0.75558   0.00000  Uiso   1.00
H118   H     0.87714   0.44518   0.63522   0.00000  Uiso   1.00
H119   H     0.53083   0.43135   0.70043   0.00000  Uiso   1.00
H120   H     0.68625   0.56601   0.84657   0.00000  Uiso   1.00
H121   H     0.08554   0.42161   0.59279   0.00000  Uiso   1.00
H122   H     0.35528   0.39246   0.73028   0.00000  Uiso   1.00
H123   H     0.80625   0.42857   0.96747   0.00000  Uiso   1.00
H124   H     0.79832   0.47790   0.03319   0.00000  Uiso   1.00
H125   H     0.98770   0.40942   0.91282   0.00000  Uiso   1.00
H126   H     0.64139   0.39560   0.97803   0.00000  Uiso   1.00
H127   H     0.77598   0.53699   0.07189   0.00000  Uiso   1.00
H128   H     0.17527   0.39259   0.81809   0.00000  Uiso   1.00
H129   H     0.44501   0.36344   0.95560   0.00000  Uiso   1.00
O130   O     0.72405   0.58456   0.99771   0.00000  Uiso   1.00
O131   O     0.24789   0.39511   0.66474   0.00000  Uiso   1.00
O132   O     0.28981   0.35686   0.84514   0.00000  Uiso   1.00
N133   N     0.70844   0.55241   0.89059   0.00000  Uiso   1.00
N134   N     0.08176   0.41741   0.65331   0.00000  Uiso   1.00
N135   N     0.39904   0.39015   0.78185   0.00000  Uiso   1.00
N136   N     0.75672   0.53680   0.01183   0.00000  Uiso   1.00
N137   N     0.13004   0.40179   0.77455   0.00000  Uiso   1.00
N138   N     0.44732   0.37453   0.90309   0.00000  Uiso   1.00
C139   C     0.72545   0.95470   0.26460   0.00000  Uiso   1.00
C140   C     0.73254   0.97781   0.32895   0.00000  Uiso   1.00
C141   C     0.71163   0.00594   0.31552   0.00000  Uiso   1.00
C142   C     0.72266   0.02377   0.38236   0.00000  Uiso   1.00
C143   C     0.72904   0.06118   0.47049   0.00000  Uiso   1.00
C144   C     0.83545   0.94061   0.26356   0.00000  Uiso   1.00
C145   C     0.90104   0.93746   0.19515   0.00000  Uiso   1.00
C146   C     0.99869   0.92396   0.20693   0.00000  Uiso   1.00
C147   C     0.16479   0.90359   0.19353   0.00000  Uiso   1.00
C148   C     0.64728   0.93310   0.29899   0.00000  Uiso   1.00
C149   C     0.55468   0.92363   0.26036   0.00000  Uiso   1.00
C150   C     0.49392   0.90381   0.30197   0.00000  Uiso   1.00
C151   C     0.36786   0.87177   0.34358   0.00000  Uiso   1.00
C152   C     0.78223   0.93634   0.40717   0.00000  Uiso   1.00
C153   C     0.76339   0.96784   0.40639   0.00000  Uiso   1.00
C154   C     0.77445   0.98563   0.47327   0.00000  Uiso   1.00
C155   C     0.75355   0.01378   0.45994   0.00000  Uiso   1.00
C156   C     0.86629   0.93064   0.34100   0.00000  Uiso   1.00
C157   C     0.96386   0.91714   0.35289   0.00000  Uiso   1.00
C158   C     0.02959   0.91397   0.28451   0.00000  Uiso   1.00
C159   C     0.67812   0.92313   0.37643   0.00000  Uiso   1.00
C160   C     0.61750   0.90331   0.41810   0.00000  Uiso   1.00
C161   C     0.52482   0.89381   0.37955   0.00000  Uiso   1.00
H162   H     0.70144   0.96247   0.20431   0.00000  Uiso   1.00
H163   H     0.68777   0.01366   0.25558   0.00000  Uiso   1.00
H164   H     0.87714   0.94518   0.13522   0.00000  Uiso   1.00
H165   H     0.53083   0.93135   0.20043   0.00000  Uiso   1.00
H166   H     0.68625   0.06601   0.34657   0.00000  Uiso   1.00
H167   H     0.08554   0.92161   0.09279   0.00000  Uiso   1.00
H168   H     0.35528   0.89246   0.23028   0.00000  Uiso   1.00
H169   H     0.80625   0.92857   0.46747   0.00000  Uiso   1.00
H170   H     0.79832   0.97790   0.53319   0.00000  Uiso   1.00
H171   H     0.98770   0.90942   0.41282   0.00000  Uiso   1.00
H172   H     0.64139   0.89560   0.47803   0.00000  Uiso   1.00
H173   H     0.77598   0.03699   0.57189   0.00000  Uiso   1.00
H174   H     0.17527   0.89259   0.31809   0.00000  Uiso   1.00
H175   H     0.44501   0.86344   0.45560   0.00000  Uiso   1.00
O176   O     0.72405   0.08456   0.49771   0.00000  Uiso   1.00
O177   O     0.24789   0.89511   0.16474   0.00000  Uiso   1.00
O178   O     0.28981   0.85686   0.34514   0.00000  Uiso   1.00
N179   N     0.70844   0.05241   0.39059   0.00000  Uiso   1.00
N180   N     0.08176   0.91741   0.15331   0.00000  Uiso   1.00
N181   N     0.39904   0.89015   0.28185   0.00000  Uiso   1.00
N182   N     0.75672   0.03680   0.51183   0.00000  Uiso   1.00
N183   N     0.13004   0.90179   0.27455   0.00000  Uiso   1.00
N184   N     0.44732   0.87453   0.40309   0.00000  Uiso   1.00
C185   C     0.77455   0.54530   0.26460   0.00000  Uiso   1.00
C186   C     0.76746   0.52219   0.32895   0.00000  Uiso   1.00
C187   C     0.78837   0.49406   0.31552   0.00000  Uiso   1.00
C188   C     0.77734   0.47623   0.38236   0.00000  Uiso   1.00
C189   C     0.77096   0.43882   0.47049   0.00000  Uiso   1.00
C190   C     0.66455   0.55939   0.26356   0.00000  Uiso   1.00
C191   C     0.59896   0.56254   0.19515   0.00000  Uiso   1.00
C192   C     0.50131   0.57604   0.20693   0.00000  Uiso   1.00
C193   C     0.33521   0.59641   0.19353   0.00000  Uiso   1.00
C194   C     0.85272   0.56690   0.29899   0.00000  Uiso   1.00
C195   C     0.94532   0.57637   0.26036   0.00000  Uiso   1.00
C196   C     0.00608   0.59619   0.30197   0.00000  Uiso   1.00
C197   C     0.13214   0.62823   0.34358   0.00000  Uiso   1.00
C198   C     0.71777   0.56366   0.40717   0.00000  Uiso   1.00
C199   C     0.73661   0.53216   0.40639   0.00000  Uiso   1.00
C200   C     0.72555   0.51437   0.47327   0.00000  Uiso   1.00
C201   C     0.74645   0.48622   0.45994   0.00000  Uiso   1.00
C202   C     0.63371   0.56936   0.34100   0.00000  Uiso   1.00
C203   C     0.53614   0.58286   0.35289   0.00000  Uiso   1.00
C204   C     0.47041   0.58603   0.28451   0.00000  Uiso   1.00
C205   C     0.82188   0.57687   0.37643   0.00000  Uiso   1.00
C206   C     0.88250   0.59669   0.41810   0.00000  Uiso   1.00
C207   C     0.97518   0.60619   0.37955   0.00000  Uiso   1.00
H208   H     0.79856   0.53753   0.20431   0.00000  Uiso   1.00
H209   H     0.81223   0.48634   0.25558   0.00000  Uiso   1.00
H210   H     0.62286   0.55482   0.13522   0.00000  Uiso   1.00
H211   H     0.96917   0.56865   0.20043   0.00000  Uiso   1.00
H212   H     0.81375   0.43399   0.34657   0.00000  Uiso   1.00
H213   H     0.41446   0.57839   0.09279   0.00000  Uiso   1.00
H214   H     0.14472   0.60754   0.23028   0.00000  Uiso   1.00
H215   H     0.69375   0.57143   0.46747   0.00000  Uiso   1.00
H216   H     0.70168   0.52210   0.53319   0.00000  Uiso   1.00
H217   H     0.51230   0.59058   0.41282   0.00000  Uiso   1.00
H218   H     0.85861   0.60440   0.47803   0.00000  Uiso   1.00
H219   H     0.72402   0.46301   0.57189   0.00000  Uiso   1.00
H220   H     0.32473   0.60741   0.31809   0.00000  Uiso   1.00
H221   H     0.05499   0.63656   0.45560   0.00000  Uiso   1.00
O222   O     0.77595   0.41544   0.49771   0.00000  Uiso   1.00
O223   O     0.25211   0.60489   0.16474   0.00000  Uiso   1.00
O224   O     0.21019   0.64314   0.34514   0.00000  Uiso   1.00
N225   N     0.79156   0.44759   0.39059   0.00000  Uiso   1.00
N226   N     0.41824   0.58259   0.15331   0.00000  Uiso   1.00
N227   N     0.10096   0.60985   0.28185   0.00000  Uiso   1.00
N228   N     0.74328   0.46320   0.51183   0.00000  Uiso   1.00
N229   N     0.36996   0.59821   0.27455   0.00000  Uiso   1.00
N230   N     0.05268   0.62547   0.40309   0.00000  Uiso   1.00
C231   C     0.77455   0.04530   0.76460   0.00000  Uiso   1.00
C232   C     0.76746   0.02219   0.82895   0.00000  Uiso   1.00
C233   C     0.78837   0.99406   0.81552   0.00000  Uiso   1.00
C234   C     0.77734   0.97623   0.88236   0.00000  Uiso   1.00
C235   C     0.77096   0.93882   0.97049   0.00000  Uiso   1.00
C236   C     0.66455   0.05939   0.76356   0.00000  Uiso   1.00
C237   C     0.59896   0.06254   0.69515   0.00000  Uiso   1.00
C238   C     0.50131   0.07604   0.70693   0.00000  Uiso   1.00
C239   C     0.33521   0.09641   0.69353   0.00000  Uiso   1.00
C240   C     0.85272   0.06690   0.79899   0.00000  Uiso   1.00
C241   C     0.94532   0.07637   0.76036   0.00000  Uiso   1.00
C242   C     0.00608   0.09619   0.80197   0.00000  Uiso   1.00
C243   C     0.13214   0.12823   0.84358   0.00000  Uiso   1.00
C244   C     0.71777   0.06366   0.90717   0.00000  Uiso   1.00
C245   C     0.73661   0.03216   0.90639   0.00000  Uiso   1.00
C246   C     0.72555   0.01437   0.97327   0.00000  Uiso   1.00
C247   C     0.74645   0.98622   0.95994   0.00000  Uiso   1.00
C248   C     0.63371   0.06936   0.84100   0.00000  Uiso   1.00
C249   C     0.53614   0.08286   0.85289   0.00000  Uiso   1.00
C250   C     0.47041   0.08603   0.78451   0.00000  Uiso   1.00
C251   C     0.82188   0.07687   0.87643   0.00000  Uiso   1.00
C252   C     0.88250   0.09669   0.91810   0.00000  Uiso   1.00
C253   C     0.97518   0.10619   0.87955   0.00000  Uiso   1.00
H254   H     0.79856   0.03753   0.70431   0.00000  Uiso   1.00
H255   H     0.81223   0.98634   0.75558   0.00000  Uiso   1.00
H256   H     0.62286   0.05482   0.63522   0.00000  Uiso   1.00
H257   H     0.96917   0.06865   0.70043   0.00000  Uiso   1.00
H258   H     0.81375   0.93399   0.84657   0.00000  Uiso   1.00
H259   H     0.41446   0.07839   0.59279   0.00000  Uiso   1.00
H260   H     0.14472   0.10754   0.73028   0.00000  Uiso   1.00
H261   H     0.69375   0.07143   0.96747   0.00000  Uiso   1.00
H262   H     0.70168   0.02210   0.03319   0.00000  Uiso   1.00
H263   H     0.51230   0.09058   0.91282   0.00000  Uiso   1.00
H264   H     0.85861   0.10440   0.97803   0.00000  Uiso   1.00
H265   H     0.72402   0.96301   0.07189   0.00000  Uiso   1.00
H266   H     0.32473   0.10741   0.81809   0.00000  Uiso   1.00
H267   H     0.05499   0.13656   0.95560   0.00000  Uiso   1.00
O268   O     0.77595   0.91544   0.99771   0.00000  Uiso   1.00
O269   O     0.25211   0.10489   0.66474   0.00000  Uiso   1.00
O270   O     0.21019   0.14314   0.84514   0.00000  Uiso   1.00
N271   N     0.79156   0.94759   0.89059   0.00000  Uiso   1.00
N272   N     0.41824   0.08259   0.65331   0.00000  Uiso   1.00
N273   N     0.10096   0.10985   0.78185   0.00000  Uiso   1.00
N274   N     0.74328   0.96320   0.01183   0.00000  Uiso   1.00
N275   N     0.36996   0.09821   0.77455   0.00000  Uiso   1.00
N276   N     0.05268   0.12547   0.90309   0.00000  Uiso   1.00
C277   C     0.27455   0.54530   0.76460   0.00000  Uiso   1.00
C278   C     0.26746   0.52219   0.82895   0.00000  Uiso   1.00
C279   C     0.28837   0.49406   0.81552   0.00000  Uiso   1.00
C280   C     0.27734   0.47623   0.88236   0.00000  Uiso   1.00
C281   C     0.27096   0.43882   0.97049   0.00000  Uiso   1.00
C282   C     0.16455   0.55939   0.76356   0.00000  Uiso   1.00
C283   C     0.09896   0.56254   0.69515   0.00000  Uiso   1.00
C284   C     0.00131   0.57604   0.70693   0.00000  Uiso   1.00
C285   C     0.83521   0.59641   0.69353   0.00000  Uiso   1.00
C286   C     0.35272   0.56690   0.79899   0.00000  Uiso   1.00
C287   C     0.44532   0.57637   0.76036   0.00000  Uiso   1.00
C288   C     0.50608   0.59619   0.80197   0.00000  Uiso   1.00
C289   C     0.63214   0.62823   0.84358   0.00000  Uiso   1.00
C290   C     0.21777   0.56366   0.90717   0.00000  Uiso   1.00
C291   C     0.23661   0.53216   0.90639   0.00000  Uiso   1.00
C292   C     0.22555   0.51437   0.97327   0.00000  Uiso   1.00
C293   C     0.24645   0.48622   0.95994   0.00000  Uiso   1.00
C294   C     0.13371   0.56936   0.84100   0.00000  Uiso   1.00
C295   C     0.03614   0.58286   0.85289   0.00000  Uiso   1.00
C296   C     0.97041   0.58603   0.78451   0.00000  Uiso   1.00
C297   C     0.32188   0.57687   0.87643   0.00000  Uiso   1.00
C298   C     0.38250   0.59669   0.91810   0.00000  Uiso   1.00
C299   C     0.47518   0.60619   0.87955   0.00000  Uiso   1.00
H300   H     0.29856   0.53753   0.70431   0.00000  Uiso   1.00
H301   H     0.31223   0.48634   0.75558   0.00000  Uiso   1.00
H302   H     0.12286   0.55482   0.63522   0.00000  Uiso   1.00
H303   H     0.46917   0.56865   0.70043   0.00000  Uiso   1.00
H304   H     0.31375   0.43399   0.84657   0.00000  Uiso   1.00
H305   H     0.91446   0.57839   0.59279   0.00000  Uiso   1.00
H306   H     0.64472   0.60754   0.73028   0.00000  Uiso   1.00
H307   H     0.19375   0.57143   0.96747   0.00000  Uiso   1.00
H308   H     0.20168   0.52210   0.03319   0.00000  Uiso   1.00
H309   H     0.01230   0.59058   0.91282   0.00000  Uiso   1.00
H310   H     0.35861   0.60440   0.97803   0.00000  Uiso   1.00
H311   H     0.22402   0.46301   0.07189   0.00000  Uiso   1.00
H312   H     0.82473   0.60741   0.81809   0.00000  Uiso   1.00
H313   H     0.55499   0.63656   0.95560   0.00000  Uiso   1.00
O314   O     0.27595   0.41544   0.99771   0.00000  Uiso   1.00
O315   O     0.75211   0.60489   0.66474   0.00000  Uiso   1.00
O316   O     0.71019   0.64314   0.84514   0.00000  Uiso   1.00
N317   N     0.29156   0.44759   0.89059   0.00000  Uiso   1.00
N318   N     0.91824   0.58259   0.65331   0.00000  Uiso   1.00
N319   N     0.60096   0.60985   0.78185   0.00000  Uiso   1.00
N320   N     0.24328   0.46320   0.01183   0.00000  Uiso   1.00
N321   N     0.86996   0.59821   0.77455   0.00000  Uiso   1.00
N322   N     0.55268   0.62547   0.90309   0.00000  Uiso   1.00
C323   C     0.27455   0.04530   0.26460   0.00000  Uiso   1.00
C324   C     0.26746   0.02219   0.32895   0.00000  Uiso   1.00
C325   C     0.28837   0.99406   0.31552   0.00000  Uiso   1.00
C326   C     0.27734   0.97623   0.38236   0.00000  Uiso   1.00
C327   C     0.27096   0.93882   0.47049   0.00000  Uiso   1.00
C328   C     0.16455   0.05939   0.26356   0.00000  Uiso   1.00
C329   C     0.09896   0.06254   0.19515   0.00000  Uiso   1.00
C330   C     0.00131   0.07604   0.20693   0.00000  Uiso   1.00
C331   C     0.83521   0.09641   0.19353   0.00000  Uiso   1.00
C332   C     0.35272   0.06690   0.29899   0.00000  Uiso   1.00
C333   C     0.44532   0.07637   0.26036   0.00000  Uiso   1.00
C334   C     0.50608   0.09619   0.30197   0.00000  Uiso   1.00
C335   C     0.63214   0.12823   0.34358   0.00000  Uiso   1.00
C336   C     0.21777   0.06366   0.40717   0.00000  Uiso   1.00
C337   C     0.23661   0.03216   0.40639   0.00000  Uiso   1.00
C338   C     0.22555   0.01437   0.47327   0.00000  Uiso   1.00
C339   C     0.24645   0.98622   0.45994   0.00000  Uiso   1.00
C340   C     0.13371   0.06936   0.34100   0.00000  Uiso   1.00
C341   C     0.03614   0.08286   0.35289   0.00000  Uiso   1.00
C342   C     0.97041   0.08603   0.28451   0.00000  Uiso   1.00
C343   C     0.32188   0.07687   0.37643   0.00000  Uiso   1.00
C344   C     0.38250   0.09669   0.41810   0.00000  Uiso   1.00
C345   C     0.47518   0.10619   0.37955   0.00000  Uiso   1.00
H346   H     0.29856   0.03753   0.20431   0.00000  Uiso   1.00
H347   H     0.31223   0.98634   0.25558   0.00000  Uiso   1.00
H348   H     0.12286   0.05482   0.13522   0.00000  Uiso   1.00
H349   H     0.46917   0.06865   0.20043   0.00000  Uiso   1.00
H350   H     0.31375   0.93399   0.34657   0.00000  Uiso   1.00
H351   H     0.91446   0.07839   0.09279   0.00000  Uiso   1.00
H352   H     0.64472   0.10754   0.23028   0.00000  Uiso   1.00
H353   H     0.19375   0.07143   0.46747   0.00000  Uiso   1.00
H354   H     0.20168   0.02210   0.53319   0.00000  Uiso   1.00
H355   H     0.01230   0.09058   0.41282   0.00000  Uiso   1.00
H356   H     0.35861   0.10440   0.47803   0.00000  Uiso   1.00
H357   H     0.22402   0.96301   0.57189   0.00000  Uiso   1.00
H358   H     0.82473   0.10741   0.31809   0.00000  Uiso   1.00
H359   H     0.55499   0.13656   0.45560   0.00000  Uiso   1.00
O360   O     0.27595   0.91544   0.49771   0.00000  Uiso   1.00
O361   O     0.75211   0.10489   0.16474   0.00000  Uiso   1.00
O362   O     0.71019   0.14314   0.34514   0.00000  Uiso   1.00
N363   N     0.29156   0.94759   0.39059   0.00000  Uiso   1.00
N364   N     0.91824   0.08259   0.15331   0.00000  Uiso   1.00
N365   N     0.60096   0.10985   0.28185   0.00000  Uiso   1.00
N366   N     0.24328   0.96320   0.51183   0.00000  Uiso   1.00
N367   N     0.86996   0.09821   0.27455   0.00000  Uiso   1.00
N368   N     0.55268   0.12547   0.40309   0.00000  Uiso   1.00
C369   C     0.47545   0.79530   0.51460   0.00000  Uiso   1.00
C370   C     0.48254   0.77219   0.57895   0.00000  Uiso   1.00
C371   C     0.46163   0.74406   0.56552   0.00000  Uiso   1.00
C372   C     0.47266   0.72623   0.63236   0.00000  Uiso   1.00
C373   C     0.47904   0.68882   0.72049   0.00000  Uiso   1.00
C374   C     0.58545   0.80939   0.51356   0.00000  Uiso   1.00
C375   C     0.65104   0.81254   0.44515   0.00000  Uiso   1.00
C376   C     0.74869   0.82604   0.45693   0.00000  Uiso   1.00
C377   C     0.91479   0.84641   0.44353   0.00000  Uiso   1.00
C378   C     0.39728   0.81690   0.54899   0.00000  Uiso   1.00
C379   C     0.30468   0.82637   0.51036   0.00000  Uiso   1.00
C380   C     0.24392   0.84619   0.55197   0.00000  Uiso   1.00
C381   C     0.11786   0.87823   0.59358   0.00000  Uiso   1.00
C382   C     0.53223   0.81366   0.65717   0.00000  Uiso   1.00
C383   C     0.51339   0.78216   0.65639   0.00000  Uiso   1.00
C384   C     0.52445   0.76437   0.72327   0.00000  Uiso   1.00
C385   C     0.50355   0.73622   0.70994   0.00000  Uiso   1.00
C386   C     0.61629   0.81936   0.59100   0.00000  Uiso   1.00
C387   C     0.71386   0.83286   0.60289   0.00000  Uiso   1.00
C388   C     0.77959   0.83603   0.53451   0.00000  Uiso   1.00
C389   C     0.42812   0.82687   0.62643   0.00000  Uiso   1.00
C390   C     0.36750   0.84669   0.66810   0.00000  Uiso   1.00
C391   C     0.27482   0.85619   0.62955   0.00000  Uiso   1.00
H392   H     0.45144   0.78753   0.45431   0.00000  Uiso   1.00
H393   H     0.43777   0.73634   0.50558   0.00000  Uiso   1.00
H394   H     0.62714   0.80482   0.38522   0.00000  Uiso   1.00
H395   H     0.28083   0.81865   0.45043   0.00000  Uiso   1.00
H396   H     0.43625   0.68399   0.59657   0.00000  Uiso   1.00
H397   H     0.83554   0.82839   0.34279   0.00000  Uiso   1.00
H398   H     0.10528   0.85754   0.48028   0.00000  Uiso   1.00
H399   H     0.55625   0.82143   0.71747   0.00000  Uiso   1.00
H400   H     0.54832   0.77210   0.78319   0.00000  Uiso   1.00
H401   H     0.73770   0.84058   0.66282   0.00000  Uiso   1.00
H402   H     0.39139   0.85440   0.72803   0.00000  Uiso   1.00
H403   H     0.52598   0.71301   0.82189   0.00000  Uiso   1.00
H404   H     0.92527   0.85741   0.56809   0.00000  Uiso   1.00
H405   H     0.19501   0.88656   0.70560   0.00000  Uiso   1.00
O406   O     0.47405   0.66544   0.74771   0.00000  Uiso   1.00
O407   O     0.99789   0.85489   0.41474   0.00000  Uiso   1.00
O408   O     0.03981   0.89314   0.59514   0.00000  Uiso   1.00
N409   N     0.45844   0.69759   0.64059   0.00000  Uiso   1.00
N410   N     0.83176   0.83259   0.40331   0.00000  Uiso   1.00
N411   N     0.14904   0.85985   0.53185   0.00000  Uiso   1.00
N412   N     0.50672   0.71320   0.76183   0.00000  Uiso   1.00
N413   N     0.88004   0.84821   0.52455   0.00000  Uiso   1.00
N414   N     0.19732   0.87547   0.65309   0.00000  Uiso   1.00
C415   C     0.47545   0.29530   0.01460   0.00000  Uiso   1.00
C416   C     0.48254   0.27219   0.07895   0.00000  Uiso   1.00
C417   C     0.46163   0.24406   0.06552   0.00000  Uiso   1.00
C418   C     0.47266   0.22623   0.13236   0.00000  Uiso   1.00
C419   C     0.47904   0.18882   0.22049   0.00000  Uiso   1.00
C420   C     0.58545   0.30939   0.01356   0.00000  Uiso   1.00
C421   C     0.65104   0.31254   0.94515   0.00000  Uiso   1.00
C422   C     0.74869   0.32604   0.95693   0.00000  Uiso   1.00
C423   C     0.91479   0.34641   0.94353   0.00000  Uiso   1.00
C424   C     0.39728   0.31690   0.04899   0.00000  Uiso   1.00
C425   C     0.30468   0.32637   0.01036   0.00000  Uiso   1.00
C426   C     0.24392   0.34619   0.05197   0.00000  Uiso   1.00
C427   C     0.11786   0.37823   0.09358   0.00000  Uiso   1.00
C428   C     0.53223   0.31366   0.15717   0.00000  Uiso   1.00
C429   C     0.51339   0.28216   0.15639   0.00000  Uiso   1.00
C430   C     0.52445   0.26437   0.22327   0.00000  Uiso   1.00
C431   C     0.50355   0.23622   0.20994   0.00000  Uiso   1.00
C432   C     0.61629   0.31936   0.09100   0.00000  Uiso   1.00
C433   C     0.71386   0.33286   0.10289   0.00000  Uiso   1.00
C434   C     0.77959   0.33603   0.03451   0.00000  Uiso   1.00
C435   C     0.42812   0.32687   0.12643   0.00000  Uiso   1.00
C436   C     0.36750   0.34669   0.16810   0.00000  Uiso   1.00
C437   C     0.27482   0.35619   0.12955   0.00000  Uiso   1.00
H438   H     0.45144   0.28753   0.95431   0.00000  Uiso   1.00
H439   H     0.43777   0.23634   0.00558   0.00000  Uiso   1.00
H440   H     0.62714   0.30482   0.88522   0.00000  Uiso   1.00
H441   H     0.28083   0.31865   0.95043   0.00000  Uiso   1.00
H442   H     0.43625   0.18399   0.09657   0.00000  Uiso   1.00
H443   H     0.83554   0.32839   0.84279   0.00000  Uiso   1.00
H444   H     0.10528   0.35754   0.98028   0.00000  Uiso   1.00
H445   H     0.55625   0.32143   0.21747   0.00000  Uiso   1.00
H446   H     0.54832   0.27210   0.28319   0.00000  Uiso   1.00
H447   H     0.73770   0.34058   0.16282   0.00000  Uiso   1.00
H448   H     0.39139   0.35440   0.22803   0.00000  Uiso   1.00
H449   H     0.52598   0.21301   0.32189   0.00000  Uiso   1.00
H450   H     0.92527   0.35741   0.06809   0.00000  Uiso   1.00
H451   H     0.19501   0.38656   0.20560   0.00000  Uiso   1.00
O452   O     0.47405   0.16544   0.24771   0.00000  Uiso   1.00
O453   O     0.99789   0.35489   0.91474   0.00000  Uiso   1.00
O454   O     0.03981   0.39314   0.09514   0.00000  Uiso   1.00
N455   N     0.45844   0.19759   0.14059   0.00000  Uiso   1.00
N456   N     0.83176   0.33259   0.90331   0.00000  Uiso   1.00
N457   N     0.14904   0.35985   0.03185   0.00000  Uiso   1.00
N458   N     0.50672   0.21320   0.26183   0.00000  Uiso   1.00
N459   N     0.88004   0.34821   0.02455   0.00000  Uiso   1.00
N460   N     0.19732   0.37547   0.15309   0.00000  Uiso   1.00
C461   C     0.97545   0.79530   0.01460   0.00000  Uiso   1.00
C462   C     0.98254   0.77219   0.07895   0.00000  Uiso   1.00
C463   C     0.96163   0.74406   0.06552   0.00000  Uiso   1.00
C464   C     0.97266   0.72623   0.13236   0.00000  Uiso   1.00
C465   C     0.97904   0.68882   0.22049   0.00000  Uiso   1.00
C466   C     0.08545   0.80939   0.01356   0.00000  Uiso   1.00
C467   C     0.15104   0.81254   0.94515   0.00000  Uiso   1.00
C468   C     0.24869   0.82604   0.95693   0.00000  Uiso   1.00
C469   C     0.41479   0.84641   0.94353   0.00000  Uiso   1.00
C470   C     0.89728   0.81690   0.04899   0.00000  Uiso   1.00
C471   C     0.80468   0.82637   0.01036   0.00000  Uiso   1.00
C472   C     0.74392   0.84619   0.05197   0.00000  Uiso   1.00
C473   C     0.61786   0.87823   0.09358   0.00000  Uiso   1.00
C474   C     0.03223   0.81366   0.15717   0.00000  Uiso   1.00
C475   C     0.01339   0.78216   0.15639   0.00000  Uiso   1.00
C476   C     0.02445   0.76437   0.22327   0.00000  Uiso   1.00
C477   C     0.00355   0.73622   0.20994   0.00000  Uiso   1.00
C478   C     0.11629   0.81936   0.09100   0.00000  Uiso   1.00
C479   C     0.21386   0.83286   0.10289   0.00000  Uiso   1.00
C480   C     0.27959   0.83603   0.03451   0.00000  Uiso   1.00
C481   C     0.92812   0.82687   0.12643   0.00000  Uiso   1.00
C482   C     0.86750   0.84669   0.16810   0.00000  Uiso   1.00
C483   C     0.77482   0.85619   0.12955   0.00000  Uiso   1.00
H484   H     0.95144   0.78753   0.95431   0.00000  Uiso   1.00
H485   H     0.93777   0.73634   0.00558   0.00000  Uiso   1.00
H486   H     0.12714   0.80482   0.88522   0.00000  Uiso   1.00
H487   H     0.78083   0.81865   0.95043   0.00000  Uiso   1.00
H488   H     0.93625   0.68399   0.09657   0.00000  Uiso   1.00
H489   H     0.33554   0.82839   0.84279   0.00000  Uiso   1.00
H490   H     0.60528   0.85754   0.98028   0.00000  Uiso   1.00
H491   H     0.05625   0.82143   0.21747   0.00000  Uiso   1.00
H492   H     0.04832   0.77210   0.28319   0.00000  Uiso   1.00
H493   H     0.23770   0.84058   0.16282   0.00000  Uiso   1.00
H494   H     0.89139   0.85440   0.22803   0.00000  Uiso   1.00
H495   H     0.02598   0.71301   0.32189   0.00000  Uiso   1.00
H496   H     0.42527   0.85741   0.06809   0.00000  Uiso   1.00
H497   H     0.69501   0.88656   0.20560   0.00000  Uiso   1.00
O498   O     0.97405   0.66544   0.24771   0.00000  Uiso   1.00
O499   O     0.49789   0.85489   0.91474   0.00000  Uiso   1.00
O500   O     0.53981   0.89314   0.09514   0.00000  Uiso   1.00
N501   N     0.95844   0.69759   0.14059   0.00000  Uiso   1.00
N502   N     0.33176   0.83259   0.90331   0.00000  Uiso   1.00
N503   N     0.64904   0.85985   0.03185   0.00000  Uiso   1.00
N504   N     0.00672   0.71320   0.26183   0.00000  Uiso   1.00
N505   N     0.38004   0.84821   0.02455   0.00000  Uiso   1.00
N506   N     0.69732   0.87547   0.15309   0.00000  Uiso   1.00
C507   C     0.97545   0.29530   0.51460   0.00000  Uiso   1.00
C508   C     0.98254   0.27219   0.57895   0.00000  Uiso   1.00
C509   C     0.96163   0.24406   0.56552   0.00000  Uiso   1.00
C510   C     0.97266   0.22623   0.63236   0.00000  Uiso   1.00
C511   C     0.97904   0.18882   0.72049   0.00000  Uiso   1.00
C512   C     0.08545   0.30939   0.51356   0.00000  Uiso   1.00
C513   C     0.15104   0.31254   0.44515   0.00000  Uiso   1.00
C514   C     0.24869   0.32604   0.45693   0.00000  Uiso   1.00
C515   C     0.41479   0.34641   0.44353   0.00000  Uiso   1.00
C516   C     0.89728   0.31690   0.54899   0.00000  Uiso   1.00
C517   C     0.80468   0.32637   0.51036   0.00000  Uiso   1.00
C518   C     0.74392   0.34619   0.55197   0.00000  Uiso   1.00
C519   C     0.61786   0.37823   0.59358   0.00000  Uiso   1.00
C520   C     0.03223   0.31366   0.65717   0.00000  Uiso   1.00
C521   C     0.01339   0.28216   0.65639   0.00000  Uiso   1.00
C522   C     0.02445   0.26437   0.72327   0.00000  Uiso   1.00
C523   C     0.00355   0.23622   0.70994   0.00000  Uiso   1.00
C524   C     0.11629   0.31936   0.59100   0.00000  Uiso   1.00
C525   C     0.21386   0.33286   0.60289   0.00000  Uiso   1.00
C526   C     0.27959   0.33603   0.53451   0.00000  Uiso   1.00
C527   C     0.92812   0.32687   0.62643   0.00000  Uiso   1.00
C528   C     0.86750   0.34669   0.66810   0.00000  Uiso   1.00
C529   C     0.77482   0.35619   0.62955   0.00000  Uiso   1.00
H530   H     0.95144   0.28753   0.45431   0.00000  Uiso   1.00
H531   H     0.93777   0.23634   0.50558   0.00000  Uiso   1.00
H532   H     0.12714   0.30482   0.38522   0.00000  Uiso   1.00
H533   H     0.78083   0.31865   0.45043   0.00000  Uiso   1.00
H534   H     0.93625   0.18399   0.59657   0.00000  Uiso   1.00
H535   H     0.33554   0.32839   0.34279   0.00000  Uiso   1.00
H536   H     0.60528   0.35754   0.48028   0.00000  Uiso   1.00
H537   H     0.05625   0.32143   0.71747   0.00000  Uiso   1.00
H538   H     0.04832   0.27210   0.78319   0.00000  Uiso   1.00
H539   H     0.23770   0.34058   0.66282   0.00000  Uiso   1.00
H540   H     0.89139   0.35440   0.72803   0.00000  Uiso   1.00
H541   H     0.02598   0.21301   0.82189   0.00000  Uiso   1.00
H542   H     0.42527   0.35741   0.56809   0.00000  Uiso   1.00
H543   H     0.69501   0.38656   0.70560   0.00000  Uiso   1.00
O544   O     0.97405   0.16544   0.74771   0.00000  Uiso   1.00
O545   O     0.49789   0.35489   0.41474   0.00000  Uiso   1.00
O546   O     0.53981   0.39314   0.59514   0.00000  Uiso   1.00
N547   N     0.95844   0.19759   0.64059   0.00000  Uiso   1.00
N548   N     0.33176   0.33259   0.40331   0.00000  Uiso   1.00
N549   N     0.64904   0.35985   0.53185   0.00000  Uiso   1.00
N550   N     0.00672   0.21320   0.76183   0.00000  Uiso   1.00
N551   N     0.38004   0.34821   0.52455   0.00000  Uiso   1.00
N552   N     0.69732   0.37547   0.65309   0.00000  Uiso   1.00
C553   C     0.02455   0.70470   0.51460   0.00000  Uiso   1.00
C554   C     0.01746   0.72781   0.57895   0.00000  Uiso   1.00
C555   C     0.03837   0.75594   0.56552   0.00000  Uiso   1.00
C556   C     0.02734   0.77377   0.63236   0.00000  Uiso   1.00
C557   C     0.02096   0.81118   0.72049   0.00000  Uiso   1.00
C558   C     0.91455   0.69061   0.51356   0.00000  Uiso   1.00
C559   C     0.84896   0.68746   0.44515   0.00000  Uiso   1.00
C560   C     0.75131   0.67396   0.45693   0.00000  Uiso   1.00
C561   C     0.58521   0.65359   0.44353   0.00000  Uiso   1.00
C562   C     0.10272   0.68310   0.54899   0.00000  Uiso   1.00
C563   C     0.19532   0.67363   0.51036   0.00000  Uiso   1.00
C564   C     0.25608   0.65381   0.55197   0.00000  Uiso   1.00
C565   C     0.38214   0.62177   0.59358   0.00000  Uiso   1.00
C566   C     0.96777   0.68634   0.65717   0.00000  Uiso   1.00
C567   C     0.98661   0.71784   0.65639   0.00000  Uiso   1.00
C568   C     0.97555   0.73563   0.72327   0.00000  Uiso   1.00
C569   C     0.99645   0.76378   0.70994   0.00000  Uiso   1.00
C570   C     0.88371   0.68064   0.59100   0.00000  Uiso   1.00
C571   C     0.78614   0.66714   0.60289   0.00000  Uiso   1.00
C572   C     0.72041   0.66397   0.53451   0.00000  Uiso   1.00
C573   C     0.07188   0.67313   0.62643   0.00000  Uiso   1.00
C574   C     0.13250   0.65331   0.66810   0.00000  Uiso   1.00
C575   C     0.22518   0.64381   0.62955   0.00000  Uiso   1.00
H576   H     0.04856   0.71247   0.45431   0.00000  Uiso   1.00
H577   H     0.06223   0.76366   0.50558   0.00000  Uiso   1.00
H578   H     0.87286   0.69518   0.38522   0.00000  Uiso   1.00
H579   H     0.21917   0.68135   0.45043   0.00000  Uiso   1.00
H580   H     0.06375   0.81601   0.59657   0.00000  Uiso   1.00
H581   H     0.66446   0.67161   0.34279   0.00000  Uiso   1.00
H582   H     0.39472   0.64246   0.48028   0.00000  Uiso   1.00
H583   H     0.94375   0.67857   0.71747   0.00000  Uiso   1.00
H584   H     0.95168   0.72790   0.78319   0.00000  Uiso   1.00
H585   H     0.76230   0.65942   0.66282   0.00000  Uiso   1.00
H586   H     0.10861   0.64560   0.72803   0.00000  Uiso   1.00
H587   H     0.97402   0.78699   0.82189   0.00000  Uiso   1.00
H588   H     0.57473   0.64259   0.56809   0.00000  Uiso   1.00
H589   H     0.30499   0.61344   0.70560   0.00000  Uiso   1.00
O590   O     0.02595   0.83456   0.74771   0.00000  Uiso   1.00
O591   O     0.50211   0.64511   0.41474   0.00000  Uiso   1.00
O592   O     0.46019   0.60686   0.59514   0.00000  Uiso   1.00
N593   N     0.04156   0.80241   0.64059   0.00000  Uiso   1.00
N594   N     0.66824   0.66741   0.40331   0.00000  Uiso   1.00
N595   N     0.35096   0.64015   0.53185   0.00000  Uiso   1.00
N596   N     0.99328   0.78680   0.76183   0.00000  Uiso   1.00
N597   N     0.61996   0.65179   0.52455   0.00000  Uiso   1.00
N598   N     0.30268   0.62453   0.65309   0.00000  Uiso   1.00
C599   C     0.02455   0.20470   0.01460   0.00000  Uiso   1.00
C600   C     0.01746   0.22781   0.07895   0.00000  Uiso   1.00
C601   C     0.03837   0.25594   0.06552   0.00000  Uiso   1.00
C602   C     0.02734   0.27377   0.13236   0.00000  Uiso   1.00
C603   C     0.02096   0.31118   0.22049   0.00000  Uiso   1.00
C604   C     0.91455   0.19061   0.01356   0.00000  Uiso   1.00
C605   C     0.84896   0.18746   0.94515   0.00000  Uiso   1.00
C606   C     0.75131   0.17396   0.95693   0.00000  Uiso   1.00
C607   C     0.58521   0.15359   0.94353   0.00000  Uiso   1.00
C608   C     0.10272   0.18310   0.04899   0.00000  Uiso   1.00
C609   C     0.19532   0.17363   0.01036   0.00000  Uiso   1.00
C610   C     0.25608   0.15381   0.05197   0.00000  Uiso   1.00
C611   C     0.38214   0.12177   0.09358   0.00000  Uiso   1.00
C612   C     0.96777   0.18634   0.15717   0.00000  Uiso   1.00
C613   C     0.98661   0.21784   0.15639   0.00000  Uiso   1.00
C614   C     0.97555   0.23563   0.22327   0.00000  Uiso   1.00
C615   C     0.99645   0.26378   0.20994   0.00000  Uiso   1.00
C616   C     0.88371   0.18064   0.09100   0.00000  Uiso   1.00
C617   C     0.78614   0.16714   0.10289   0.00000  Uiso   1.00
C618   C     0.72041   0.16397   0.03451   0.00000  Uiso   1.00
C619   C     0.07188   0.17313   0.12643   0.00000  Uiso   1.00
C620   C     0.13250   0.15331   0.16810   0.00000  Uiso   1.00
C621   C     0.22518   0.14381   0.12955   0.00000  Uiso   1.00
H622   H     0.04856   0.21247   0.95431   0.00000  Uiso   1.00
H623   H     0.06223   0.26366   0.00558   0.00000  Uiso   1.00
H624   H     0.87286   0.19518   0.88522   0.00000  Uiso   1.00
H625   H     0.21917   0.18135   0.95043   0.00000  Uiso   1.00
H626   H     0.06375   0.31601   0.09657   0.00000  Uiso   1.00
H627   H     0.66446   0.17161   0.84279   0.00000  Uiso   1.00
H628   H     0.39472   0.14246   0.98028   0.00000  Uiso   1.00
H629   H     0.94375   0.17857   0.21747   0.00000  Uiso   1.00
H630   H     0.95168   0.22790   0.28319   0.00000  Uiso   1.00
H631   H     0.76230   0.15942   0.16282   0.00000  Uiso   1.00
H632   H     0.10861   0.14560   0.22803   0.00000  Uiso   1.00
H633   H     0.97402   0.28699   0.32189   0.00000  Uiso   1.00
H634   H     0.57473   0.14259   0.06809   0.00000  Uiso   1.00
H635   H     0.30499   0.11344   0.20560   0.00000  Uiso   1.00
O636   O     0.02595   0.33456   0.24771   0.00000  Uiso   1.00
O637   O     0.50211   0.14511   0.91474   0.00000  Uiso   1.00
O638   O     0.46019   0.10686   0.09514   0.00000  Uiso   1.00
N639   N     0.04156   0.30241   0.14059   0.00000  Uiso   1.00
N640   N     0.66824   0.16741   0.90331   0.00000  Uiso   1.00
N641   N     0.35096   0.14015   0.03185   0.00000  Uiso   1.00
N642   N     0.99328   0.28680   0.26183   0.00000  Uiso   1.00
N643   N     0.61996   0.15179   0.02455   0.00000  Uiso   1.00
N644   N     0.30268   0.12453   0.15309   0.00000  Uiso   1.00
C645   C     0.52455   0.70470   0.01460   0.00000  Uiso   1.00
C646   C     0.51746   0.72781   0.07895   0.00000  Uiso   1.00
C647   C     0.53837   0.75594   0.06552   0.00000  Uiso   1.00
C648   C     0.52734   0.77377   0.13236   0.00000  Uiso   1.00
C649   C     0.52096   0.81118   0.22049   0.00000  Uiso   1.00
C650   C     0.41455   0.69061   0.01356   0.00000  Uiso   1.00
C651   C     0.34896   0.68746   0.94515   0.00000  Uiso   1.00
C652   C     0.25131   0.67396   0.95693   0.00000  Uiso   1.00
C653   C     0.08521   0.65359   0.94353   0.00000  Uiso   1.00
C654   C     0.60272   0.68310   0.04899   0.00000  Uiso   1.00
C655   C     0.69532   0.67363   0.01036   0.00000  Uiso   1.00
C656   C     0.75608   0.65381   0.05197   0.00000  Uiso   1.00
C657   C     0.88214   0.62177   0.09358   0.00000  Uiso   1.00
C658   C     0.46777   0.68634   0.15717   0.00000  Uiso   1.00
C659   C     0.48661   0.71784   0.15639   0.00000  Uiso   1.00
C660   C     0.47555   0.73563   0.22327   0.00000  Uiso   1.00
C661   C     0.49645   0.76378   0.20994   0.00000  Uiso   1.00
C662   C     0.38371   0.68064   0.09100   0.00000  Uiso   1.00
C663   C     0.28614   0.66714   0.10289   0.00000  Uiso   1.00
C664   C     0.22041   0.66397   0.03451   0.00000  Uiso   1.00
C665   C     0.57188   0.67313   0.12643   0.00000  Uiso   1.00
C666   C     0.63250   0.65331   0.16810   0.00000  Uiso   1.00
C667   C     0.72518   0.64381   0.12955   0.00000  Uiso   1.00
H668   H     0.54856   0.71247   0.95431   0.00000  Uiso   1.00
H669   H     0.56223   0.76366   0.00558   0.00000  Uiso   1.00
H670   H     0.37286   0.69518   0.88522   0.00000  Uiso   1.00
H671   H     0.71917   0.68135   0.95043   0.00000  Uiso   1.00
H672   H     0.56375   0.81601   0.09657   0.00000  Uiso   1.00
H673   H     0.16446   0.67161   0.84279   0.00000  Uiso   1.00
H674   H     0.89472   0.64246   0.98028   0.00000  Uiso   1.00
H675   H     0.44375   0.67857   0.21747   0.00000  Uiso   1.00
H676   H     0.45168   0.72790   0.28319   0.00000  Uiso   1.00
H677   H     0.26230   0.65942   0.16282   0.00000  Uiso   1.00
H678   H     0.60861   0.64560   0.22803   0.00000  Uiso   1.00
H679   H     0.47402   0.78699   0.32189   0.00000  Uiso   1.00
H680   H     0.07473   0.64259   0.06809   0.00000  Uiso   1.00
H681   H     0.80499   0.61344   0.20560   0.00000  Uiso   1.00
O682   O     0.52595   0.83456   0.24771   0.00000  Uiso   1.00
O683   O     0.00211   0.64511   0.91474   0.00000  Uiso   1.00
O684   O     0.96019   0.60686   0.09514   0.00000  Uiso   1.00
N685   N     0.54156   0.80241   0.14059   0.00000  Uiso   1.00
N686   N     0.16824   0.66741   0.90331   0.00000  Uiso   1.00
N687   N     0.85096   0.64015   0.03185   0.00000  Uiso   1.00
N688   N     0.49328   0.78680   0.26183   0.00000  Uiso   1.00
N689   N     0.11996   0.65179   0.02455   0.00000  Uiso   1.00
N690   N     0.80268   0.62453   0.15309   0.00000  Uiso   1.00
C691   C     0.52455   0.20470   0.51460   0.00000  Uiso   1.00
C692   C     0.51746   0.22781   0.57895   0.00000  Uiso   1.00
C693   C     0.53837   0.25594   0.56552   0.00000  Uiso   1.00
C694   C     0.52734   0.27377   0.63236   0.00000  Uiso   1.00
C695   C     0.52096   0.31118   0.72049   0.00000  Uiso   1.00
C696   C     0.41455   0.19061   0.51356   0.00000  Uiso   1.00
C697   C     0.34896   0.18746   0.44515   0.00000  Uiso   1.00
C698   C     0.25131   0.17396   0.45693   0.00000  Uiso   1.00
C699   C     0.08521   0.15359   0.44353   0.00000  Uiso   1.00
C700   C     0.60272   0.18310   0.54899   0.00000  Uiso   1.00
C701   C     0.69532   0.17363   0.51036   0.00000  Uiso   1.00
C702   C     0.75608   0.15381   0.55197   0.00000  Uiso   1.00
C703   C     0.88214   0.12177   0.59358   0.00000  Uiso   1.00
C704   C     0.46777   0.18634   0.65717   0.00000  Uiso   1.00
C705   C     0.48661   0.21784   0.65639   0.00000  Uiso   1.00
C706   C     0.47555   0.23563   0.72327   0.00000  Uiso   1.00
C707   C     0.49645   0.26378   0.70994   0.00000  Uiso   1.00
C708   C     0.38371   0.18064   0.59100   0.00000  Uiso   1.00
C709   C     0.28614   0.16714   0.60289   0.00000  Uiso   1.00
C710   C     0.22041   0.16397   0.53451   0.00000  Uiso   1.00
C711   C     0.57188   0.17313   0.62643   0.00000  Uiso   1.00
C712   C     0.63250   0.15331   0.66810   0.00000  Uiso   1.00
C713   C     0.72518   0.14381   0.62955   0.00000  Uiso   1.00
H714   H     0.54856   0.21247   0.45431   0.00000  Uiso   1.00
H715   H     0.56223   0.26366   0.50558   0.00000  Uiso   1.00
H716   H     0.37286   0.19518   0.38522   0.00000  Uiso   1.00
H717   H     0.71917   0.18135   0.45043   0.00000  Uiso   1.00
H718   H     0.56375   0.31601   0.59657   0.00000  Uiso   1.00
H719   H     0.16446   0.17161   0.34279   0.00000  Uiso   1.00
H720   H     0.89472   0.14246   0.48028   0.00000  Uiso   1.00
H721   H     0.44375   0.17857   0.71747   0.00000  Uiso   1.00
H722   H     0.45168   0.22790   0.78319   0.00000  Uiso   1.00
H723   H     0.26230   0.15942   0.66282   0.00000  Uiso   1.00
H724   H     0.60861   0.14560   0.72803   0.00000  Uiso   1.00
H725   H     0.47402   0.28699   0.82189   0.00000  Uiso   1.00
H726   H     0.07473   0.14259   0.56809   0.00000  Uiso   1.00
H727   H     0.80499   0.11344   0.70560   0.00000  Uiso   1.00
O728   O     0.52595   0.33456   0.74771   0.00000  Uiso   1.00
O729   O     0.00211   0.14511   0.41474   0.00000  Uiso   1.00
O730   O     0.96019   0.10686   0.59514   0.00000  Uiso   1.00
N731   N     0.54156   0.30241   0.64059   0.00000  Uiso   1.00
N732   N     0.16824   0.16741   0.40331   0.00000  Uiso   1.00
N733   N     0.85096   0.14015   0.53185   0.00000  Uiso   1.00
N734   N     0.49328   0.28680   0.76183   0.00000  Uiso   1.00
N735   N     0.11996   0.15179   0.52455   0.00000  Uiso   1.00
N736   N     0.80268   0.12453   0.65309   0.00000  Uiso   1.00
