data_job_00998
_audit_creation_date              2018-12-19
_audit_creation_method            'Materials Studio'
_symmetry_space_group_name_H-M    'P1'
_symmetry_Int_Tables_number       1
_symmetry_cell_setting            triclinic
loop_
_symmetry_equiv_pos_as_xyz
  x,y,z
_cell_length_a                    15.2106
_cell_length_b                    20.4976
_cell_length_c                    31.6140
_cell_angle_alpha                 90.0000
_cell_angle_beta                  90.0000
_cell_angle_gamma                 90.0000
loop_
_atom_site_label
_atom_site_type_symbol
_atom_site_fract_x
_atom_site_fract_y
_atom_site_fract_z
_atom_site_U_iso_or_equiv
_atom_site_adp_type
_atom_site_occupancy
C1     C     0.57892   0.56961   0.85701   0.00000  Uiso   1.00
C2     C     0.54309   0.59179   0.89970   0.00000  Uiso   1.00
C3     C     0.56284   0.56397   0.93858   0.00000  Uiso   1.00
C4     C     0.52331   0.59134   0.97396   0.00000  Uiso   1.00
C5     C     0.47634   0.61764   0.04077   0.00000  Uiso   1.00
C6     C     0.49883   0.55492   0.82960   0.00000  Uiso   1.00
C7     C     0.48139   0.49611   0.80954   0.00000  Uiso   1.00
C8     C     0.40460   0.49244   0.78591   0.00000  Uiso   1.00
C9     C     0.28896   0.46152   0.74386   0.00000  Uiso   1.00
C10    C     0.62265   0.62934   0.83741   0.00000  Uiso   1.00
C11    C     0.70931   0.63310   0.82389   0.00000  Uiso   1.00
C12    C     0.73677   0.69209   0.80682   0.00000  Uiso   1.00
C13    C     0.81338   0.77672   0.77689   0.00000  Uiso   1.00
C14    C     0.47359   0.66769   0.85071   0.00000  Uiso   1.00
C15    C     0.48587   0.64506   0.89628   0.00000  Uiso   1.00
C16    C     0.44630   0.67248   0.93162   0.00000  Uiso   1.00
C17    C     0.46600   0.64471   0.97054   0.00000  Uiso   1.00
C18    C     0.44162   0.60818   0.82618   0.00000  Uiso   1.00
C19    C     0.36485   0.60461   0.80258   0.00000  Uiso   1.00
C20    C     0.34728   0.54581   0.78248   0.00000  Uiso   1.00
C21    C     0.56544   0.68261   0.83399   0.00000  Uiso   1.00
C22    C     0.59277   0.74160   0.81693   0.00000  Uiso   1.00
C23    C     0.67946   0.74545   0.80339   0.00000  Uiso   1.00
H24    H     0.62346   0.52814   0.85967   0.00000  Uiso   1.00
H25    H     0.60712   0.52274   0.94121   0.00000  Uiso   1.00
H26    H     0.52568   0.45489   0.81218   0.00000  Uiso   1.00
H27    H     0.75357   0.59187   0.82654   0.00000  Uiso   1.00
H28    H     0.56374   0.54024   0.03010   0.00000  Uiso   1.00
H29    H     0.39204   0.39718   0.75804   0.00000  Uiso   1.00
H30    H     0.87259   0.68601   0.78830   0.00000  Uiso   1.00
H31    H     0.42904   0.70916   0.84805   0.00000  Uiso   1.00
H32    H     0.40203   0.71370   0.92896   0.00000  Uiso   1.00
H33    H     0.32059   0.64584   0.79994   0.00000  Uiso   1.00
H34    H     0.54848   0.78282   0.81429   0.00000  Uiso   1.00
H35    H     0.39728   0.69522   0.02016   0.00000  Uiso   1.00
H36    H     0.22558   0.55216   0.74809   0.00000  Uiso   1.00
H37    H     0.70613   0.84099   0.77836   0.00000  Uiso   1.00
O38    O     0.46622   0.61743   0.07857   0.00000  Uiso   1.00
O39    O     0.24097   0.42975   0.72162   0.00000  Uiso   1.00
O40    O     0.87144   0.80869   0.76133   0.00000  Uiso   1.00
N41    N     0.52828   0.57610   0.01666   0.00000  Uiso   1.00
N42    N     0.36774   0.44234   0.76230   0.00000  Uiso   1.00
N43    N     0.81701   0.71237   0.79059   0.00000  Uiso   1.00
N44    N     0.43871   0.65949   0.01131   0.00000  Uiso   1.00
N45    N     0.27817   0.52574   0.75695   0.00000  Uiso   1.00
N46    N     0.72745   0.79577   0.78524   0.00000  Uiso   1.00
C47    C     0.72032   0.95102   0.60279   0.00000  Uiso   1.00
C48    C     0.68892   0.93288   0.55852   0.00000  Uiso   1.00
C49    C     0.71309   0.96389   0.52127   0.00000  Uiso   1.00
C50    C     0.67716   0.93995   0.48401   0.00000  Uiso   1.00
C51    C     0.63720   0.91987   0.41526   0.00000  Uiso   1.00
C52    C     0.63753   0.96390   0.62868   0.00000  Uiso   1.00
C53    C     0.61850   0.02099   0.65043   0.00000  Uiso   1.00
C54    C     0.53932   0.02316   0.67223   0.00000  Uiso   1.00
C55    C     0.41960   0.05122   0.71244   0.00000  Uiso   1.00
C56    C     0.76131   0.88936   0.62121   0.00000  Uiso   1.00
C57    C     0.84636   0.88378   0.63669   0.00000  Uiso   1.00
C58    C     0.87138   0.82320   0.65220   0.00000  Uiso   1.00
C59    C     0.94385   0.73553   0.68081   0.00000  Uiso   1.00
C60    C     0.61351   0.85335   0.60284   0.00000  Uiso   1.00
C61    C     0.63090   0.87982   0.55855   0.00000  Uiso   1.00
C62    C     0.59493   0.85583   0.52133   0.00000  Uiso   1.00
C63    C     0.61905   0.88680   0.48403   0.00000  Uiso   1.00
C64    C     0.57951   0.91085   0.62871   0.00000  Uiso   1.00
C65    C     0.50034   0.91293   0.65049   0.00000  Uiso   1.00
C66    C     0.48120   0.97001   0.67226   0.00000  Uiso   1.00
C67    C     0.70330   0.83631   0.62123   0.00000  Uiso   1.00
C68    C     0.72819   0.77572   0.63673   0.00000  Uiso   1.00
C69    C     0.81327   0.77005   0.65223   0.00000  Uiso   1.00
H70    H     0.76548   0.99233   0.60277   0.00000  Uiso   1.00
H71    H     0.75798   0.00495   0.52127   0.00000  Uiso   1.00
H72    H     0.66341   0.06204   0.65041   0.00000  Uiso   1.00
H73    H     0.89123   0.92485   0.63666   0.00000  Uiso   1.00
H74    H     0.72407   0.99557   0.43092   0.00000  Uiso   1.00
H75    H     0.52468   0.11593   0.70323   0.00000  Uiso   1.00
H76    H     0.00508   0.82664   0.67424   0.00000  Uiso   1.00
H77    H     0.56835   0.81204   0.60286   0.00000  Uiso   1.00
H78    H     0.55004   0.81477   0.52136   0.00000  Uiso   1.00
H79    H     0.45547   0.87186   0.65050   0.00000  Uiso   1.00
H80    H     0.68328   0.73467   0.63675   0.00000  Uiso   1.00
H81    H     0.55529   0.84121   0.43099   0.00000  Uiso   1.00
H82    H     0.35590   0.96157   0.70331   0.00000  Uiso   1.00
H83    H     0.83630   0.67228   0.67431   0.00000  Uiso   1.00
O84    O     0.63117   0.92345   0.37734   0.00000  Uiso   1.00
O85    O     0.36958   0.08135   0.73461   0.00000  Uiso   1.00
O86    O     0.99986   0.70182   0.69657   0.00000  Uiso   1.00
N87    N     0.68687   0.95886   0.44212   0.00000  Uiso   1.00
N88    N     0.50045   0.07139   0.69671   0.00000  Uiso   1.00
N89    N     0.94957   0.80094   0.66962   0.00000  Uiso   1.00
N90    N     0.59605   0.87580   0.44216   0.00000  Uiso   1.00
N91    N     0.40963   0.98833   0.69675   0.00000  Uiso   1.00
N92    N     0.85875   0.71788   0.66965   0.00000  Uiso   1.00
C93    C     0.92108   0.93039   0.35701   0.00000  Uiso   1.00
C94    C     0.95691   0.90821   0.39970   0.00000  Uiso   1.00
C95    C     0.93716   0.93603   0.43858   0.00000  Uiso   1.00
C96    C     0.97669   0.90866   0.47396   0.00000  Uiso   1.00
C97    C     0.02366   0.88236   0.54077   0.00000  Uiso   1.00
C98    C     0.00117   0.94508   0.32960   0.00000  Uiso   1.00
C99    C     0.01861   0.00389   0.30954   0.00000  Uiso   1.00
C100   C     0.09540   0.00756   0.28591   0.00000  Uiso   1.00
C101   C     0.21104   0.03848   0.24386   0.00000  Uiso   1.00
C102   C     0.87735   0.87066   0.33741   0.00000  Uiso   1.00
C103   C     0.79069   0.86690   0.32389   0.00000  Uiso   1.00
C104   C     0.76323   0.80791   0.30682   0.00000  Uiso   1.00
C105   C     0.68662   0.72328   0.27689   0.00000  Uiso   1.00
C106   C     0.02641   0.83231   0.35071   0.00000  Uiso   1.00
C107   C     0.01413   0.85494   0.39628   0.00000  Uiso   1.00
C108   C     0.05370   0.82752   0.43162   0.00000  Uiso   1.00
C109   C     0.03400   0.85529   0.47054   0.00000  Uiso   1.00
C110   C     0.05838   0.89182   0.32618   0.00000  Uiso   1.00
C111   C     0.13515   0.89539   0.30258   0.00000  Uiso   1.00
C112   C     0.15272   0.95419   0.28248   0.00000  Uiso   1.00
C113   C     0.93456   0.81739   0.33399   0.00000  Uiso   1.00
C114   C     0.90723   0.75840   0.31693   0.00000  Uiso   1.00
C115   C     0.82054   0.75455   0.30339   0.00000  Uiso   1.00
H116   H     0.87654   0.97186   0.35967   0.00000  Uiso   1.00
H117   H     0.89288   0.97726   0.44121   0.00000  Uiso   1.00
H118   H     0.97432   0.04511   0.31218   0.00000  Uiso   1.00
H119   H     0.74643   0.90813   0.32654   0.00000  Uiso   1.00
H120   H     0.93626   0.95976   0.53010   0.00000  Uiso   1.00
H121   H     0.10796   0.10282   0.25804   0.00000  Uiso   1.00
H122   H     0.62741   0.81399   0.28830   0.00000  Uiso   1.00
H123   H     0.07096   0.79084   0.34805   0.00000  Uiso   1.00
H124   H     0.09797   0.78630   0.42896   0.00000  Uiso   1.00
H125   H     0.17941   0.85416   0.29994   0.00000  Uiso   1.00
H126   H     0.95152   0.71718   0.31429   0.00000  Uiso   1.00
H127   H     0.10272   0.80478   0.52016   0.00000  Uiso   1.00
H128   H     0.27442   0.94784   0.24809   0.00000  Uiso   1.00
H129   H     0.79387   0.65901   0.27836   0.00000  Uiso   1.00
O130   O     0.03378   0.88257   0.57857   0.00000  Uiso   1.00
O131   O     0.25903   0.07025   0.22162   0.00000  Uiso   1.00
O132   O     0.62856   0.69131   0.26133   0.00000  Uiso   1.00
N133   N     0.97172   0.92390   0.51666   0.00000  Uiso   1.00
N134   N     0.13226   0.05766   0.26230   0.00000  Uiso   1.00
N135   N     0.68299   0.78763   0.29059   0.00000  Uiso   1.00
N136   N     0.06129   0.84051   0.51131   0.00000  Uiso   1.00
N137   N     0.22183   0.97426   0.25695   0.00000  Uiso   1.00
N138   N     0.77255   0.70423   0.28524   0.00000  Uiso   1.00
C139   C     0.77968   0.54898   0.10279   0.00000  Uiso   1.00
C140   C     0.81108   0.56712   0.05852   0.00000  Uiso   1.00
C141   C     0.78691   0.53611   0.02127   0.00000  Uiso   1.00
C142   C     0.82284   0.56005   0.98401   0.00000  Uiso   1.00
C143   C     0.86280   0.58013   0.91526   0.00000  Uiso   1.00
C144   C     0.86247   0.53610   0.12868   0.00000  Uiso   1.00
C145   C     0.88150   0.47901   0.15043   0.00000  Uiso   1.00
C146   C     0.96068   0.47684   0.17223   0.00000  Uiso   1.00
C147   C     0.08040   0.44878   0.21244   0.00000  Uiso   1.00
C148   C     0.73869   0.61064   0.12121   0.00000  Uiso   1.00
C149   C     0.65364   0.61622   0.13669   0.00000  Uiso   1.00
C150   C     0.62862   0.67680   0.15220   0.00000  Uiso   1.00
C151   C     0.55615   0.76447   0.18081   0.00000  Uiso   1.00
C152   C     0.88649   0.64665   0.10284   0.00000  Uiso   1.00
C153   C     0.86910   0.62018   0.05855   0.00000  Uiso   1.00
C154   C     0.90507   0.64417   0.02133   0.00000  Uiso   1.00
C155   C     0.88095   0.61320   0.98403   0.00000  Uiso   1.00
C156   C     0.92049   0.58915   0.12871   0.00000  Uiso   1.00
C157   C     0.99966   0.58707   0.15049   0.00000  Uiso   1.00
C158   C     0.01880   0.52999   0.17226   0.00000  Uiso   1.00
C159   C     0.79670   0.66369   0.12123   0.00000  Uiso   1.00
C160   C     0.77181   0.72428   0.13673   0.00000  Uiso   1.00
C161   C     0.68673   0.72995   0.15223   0.00000  Uiso   1.00
H162   H     0.73452   0.50767   0.10277   0.00000  Uiso   1.00
H163   H     0.74202   0.49505   0.02127   0.00000  Uiso   1.00
H164   H     0.83659   0.43796   0.15041   0.00000  Uiso   1.00
H165   H     0.60877   0.57515   0.13666   0.00000  Uiso   1.00
H166   H     0.77593   0.50443   0.93092   0.00000  Uiso   1.00
H167   H     0.97532   0.38407   0.20323   0.00000  Uiso   1.00
H168   H     0.49492   0.67336   0.17424   0.00000  Uiso   1.00
H169   H     0.93165   0.68796   0.10286   0.00000  Uiso   1.00
H170   H     0.94996   0.68523   0.02136   0.00000  Uiso   1.00
H171   H     0.04453   0.62814   0.15050   0.00000  Uiso   1.00
H172   H     0.81672   0.76533   0.13675   0.00000  Uiso   1.00
H173   H     0.94471   0.65879   0.93099   0.00000  Uiso   1.00
H174   H     0.14410   0.53843   0.20331   0.00000  Uiso   1.00
H175   H     0.66370   0.82772   0.17431   0.00000  Uiso   1.00
O176   O     0.86883   0.57655   0.87734   0.00000  Uiso   1.00
O177   O     0.13042   0.41865   0.23461   0.00000  Uiso   1.00
O178   O     0.50014   0.79818   0.19657   0.00000  Uiso   1.00
N179   N     0.81313   0.54114   0.94212   0.00000  Uiso   1.00
N180   N     0.99955   0.42861   0.19671   0.00000  Uiso   1.00
N181   N     0.55043   0.69906   0.16962   0.00000  Uiso   1.00
N182   N     0.90395   0.62420   0.94216   0.00000  Uiso   1.00
N183   N     0.09037   0.51167   0.19675   0.00000  Uiso   1.00
N184   N     0.64125   0.78212   0.16965   0.00000  Uiso   1.00
C185   C     0.42108   0.56961   0.64299   0.00000  Uiso   1.00
C186   C     0.45691   0.59179   0.60030   0.00000  Uiso   1.00
C187   C     0.43716   0.56397   0.56142   0.00000  Uiso   1.00
C188   C     0.47669   0.59134   0.52604   0.00000  Uiso   1.00
C189   C     0.52366   0.61764   0.45923   0.00000  Uiso   1.00
C190   C     0.50117   0.55492   0.67040   0.00000  Uiso   1.00
C191   C     0.51861   0.49611   0.69046   0.00000  Uiso   1.00
C192   C     0.59540   0.49244   0.71409   0.00000  Uiso   1.00
C193   C     0.71104   0.46152   0.75614   0.00000  Uiso   1.00
C194   C     0.37735   0.62934   0.66259   0.00000  Uiso   1.00
C195   C     0.29069   0.63310   0.67611   0.00000  Uiso   1.00
C196   C     0.26323   0.69209   0.69318   0.00000  Uiso   1.00
C197   C     0.18662   0.77672   0.72311   0.00000  Uiso   1.00
C198   C     0.52641   0.66769   0.64929   0.00000  Uiso   1.00
C199   C     0.51413   0.64506   0.60372   0.00000  Uiso   1.00
C200   C     0.55370   0.67248   0.56838   0.00000  Uiso   1.00
C201   C     0.53400   0.64471   0.52946   0.00000  Uiso   1.00
C202   C     0.55838   0.60818   0.67382   0.00000  Uiso   1.00
C203   C     0.63515   0.60461   0.69742   0.00000  Uiso   1.00
C204   C     0.65272   0.54581   0.71752   0.00000  Uiso   1.00
C205   C     0.43456   0.68261   0.66601   0.00000  Uiso   1.00
C206   C     0.40723   0.74160   0.68307   0.00000  Uiso   1.00
C207   C     0.32054   0.74545   0.69661   0.00000  Uiso   1.00
H208   H     0.37654   0.52814   0.64033   0.00000  Uiso   1.00
H209   H     0.39288   0.52274   0.55879   0.00000  Uiso   1.00
H210   H     0.47432   0.45489   0.68782   0.00000  Uiso   1.00
H211   H     0.24643   0.59187   0.67346   0.00000  Uiso   1.00
H212   H     0.43626   0.54024   0.46990   0.00000  Uiso   1.00
H213   H     0.60796   0.39718   0.74196   0.00000  Uiso   1.00
H214   H     0.12741   0.68601   0.71170   0.00000  Uiso   1.00
H215   H     0.57096   0.70916   0.65195   0.00000  Uiso   1.00
H216   H     0.59797   0.71370   0.57104   0.00000  Uiso   1.00
H217   H     0.67941   0.64584   0.70006   0.00000  Uiso   1.00
H218   H     0.45152   0.78282   0.68571   0.00000  Uiso   1.00
H219   H     0.60272   0.69522   0.47984   0.00000  Uiso   1.00
H220   H     0.77442   0.55216   0.75191   0.00000  Uiso   1.00
H221   H     0.29387   0.84099   0.72164   0.00000  Uiso   1.00
O222   O     0.53378   0.61743   0.42143   0.00000  Uiso   1.00
O223   O     0.75903   0.42975   0.77838   0.00000  Uiso   1.00
O224   O     0.12856   0.80869   0.73867   0.00000  Uiso   1.00
N225   N     0.47172   0.57610   0.48334   0.00000  Uiso   1.00
N226   N     0.63226   0.44234   0.73770   0.00000  Uiso   1.00
N227   N     0.18299   0.71237   0.70941   0.00000  Uiso   1.00
N228   N     0.56129   0.65949   0.48869   0.00000  Uiso   1.00
N229   N     0.72183   0.52574   0.74305   0.00000  Uiso   1.00
N230   N     0.27255   0.79577   0.71476   0.00000  Uiso   1.00
C231   C     0.27968   0.95102   0.89721   0.00000  Uiso   1.00
C232   C     0.31108   0.93288   0.94148   0.00000  Uiso   1.00
C233   C     0.28691   0.96389   0.97873   0.00000  Uiso   1.00
C234   C     0.32284   0.93995   0.01599   0.00000  Uiso   1.00
C235   C     0.36280   0.91987   0.08474   0.00000  Uiso   1.00
C236   C     0.36247   0.96390   0.87132   0.00000  Uiso   1.00
C237   C     0.38150   0.02099   0.84957   0.00000  Uiso   1.00
C238   C     0.46068   0.02316   0.82777   0.00000  Uiso   1.00
C239   C     0.58040   0.05122   0.78756   0.00000  Uiso   1.00
C240   C     0.23869   0.88936   0.87879   0.00000  Uiso   1.00
C241   C     0.15364   0.88378   0.86331   0.00000  Uiso   1.00
C242   C     0.12862   0.82320   0.84780   0.00000  Uiso   1.00
C243   C     0.05615   0.73553   0.81919   0.00000  Uiso   1.00
C244   C     0.38649   0.85335   0.89716   0.00000  Uiso   1.00
C245   C     0.36910   0.87982   0.94145   0.00000  Uiso   1.00
C246   C     0.40507   0.85583   0.97867   0.00000  Uiso   1.00
C247   C     0.38095   0.88680   0.01597   0.00000  Uiso   1.00
C248   C     0.42049   0.91085   0.87129   0.00000  Uiso   1.00
C249   C     0.49966   0.91293   0.84951   0.00000  Uiso   1.00
C250   C     0.51880   0.97001   0.82774   0.00000  Uiso   1.00
C251   C     0.29670   0.83631   0.87877   0.00000  Uiso   1.00
C252   C     0.27181   0.77572   0.86327   0.00000  Uiso   1.00
C253   C     0.18673   0.77005   0.84777   0.00000  Uiso   1.00
H254   H     0.23452   0.99233   0.89723   0.00000  Uiso   1.00
H255   H     0.24202   0.00495   0.97873   0.00000  Uiso   1.00
H256   H     0.33659   0.06204   0.84959   0.00000  Uiso   1.00
H257   H     0.10877   0.92485   0.86334   0.00000  Uiso   1.00
H258   H     0.27593   0.99557   0.06908   0.00000  Uiso   1.00
H259   H     0.47532   0.11593   0.79677   0.00000  Uiso   1.00
H260   H     0.99492   0.82664   0.82576   0.00000  Uiso   1.00
H261   H     0.43165   0.81204   0.89714   0.00000  Uiso   1.00
H262   H     0.44996   0.81477   0.97864   0.00000  Uiso   1.00
H263   H     0.54453   0.87186   0.84950   0.00000  Uiso   1.00
H264   H     0.31672   0.73467   0.86325   0.00000  Uiso   1.00
H265   H     0.44471   0.84121   0.06901   0.00000  Uiso   1.00
H266   H     0.64410   0.96157   0.79669   0.00000  Uiso   1.00
H267   H     0.16370   0.67228   0.82569   0.00000  Uiso   1.00
O268   O     0.36883   0.92345   0.12266   0.00000  Uiso   1.00
O269   O     0.63042   0.08135   0.76539   0.00000  Uiso   1.00
O270   O     0.00014   0.70182   0.80343   0.00000  Uiso   1.00
N271   N     0.31313   0.95886   0.05788   0.00000  Uiso   1.00
N272   N     0.49955   0.07139   0.80329   0.00000  Uiso   1.00
N273   N     0.05043   0.80094   0.83038   0.00000  Uiso   1.00
N274   N     0.40395   0.87580   0.05784   0.00000  Uiso   1.00
N275   N     0.59037   0.98833   0.80325   0.00000  Uiso   1.00
N276   N     0.14125   0.71788   0.83035   0.00000  Uiso   1.00
C277   C     0.07892   0.93039   0.14299   0.00000  Uiso   1.00
C278   C     0.04309   0.90821   0.10030   0.00000  Uiso   1.00
C279   C     0.06284   0.93603   0.06142   0.00000  Uiso   1.00
C280   C     0.02331   0.90866   0.02604   0.00000  Uiso   1.00
C281   C     0.97634   0.88236   0.95923   0.00000  Uiso   1.00
C282   C     0.99883   0.94508   0.17040   0.00000  Uiso   1.00
C283   C     0.98139   0.00389   0.19046   0.00000  Uiso   1.00
C284   C     0.90460   0.00756   0.21409   0.00000  Uiso   1.00
C285   C     0.78896   0.03848   0.25614   0.00000  Uiso   1.00
C286   C     0.12265   0.87066   0.16259   0.00000  Uiso   1.00
C287   C     0.20931   0.86690   0.17611   0.00000  Uiso   1.00
C288   C     0.23677   0.80791   0.19318   0.00000  Uiso   1.00
C289   C     0.31338   0.72328   0.22311   0.00000  Uiso   1.00
C290   C     0.97359   0.83231   0.14929   0.00000  Uiso   1.00
C291   C     0.98587   0.85494   0.10372   0.00000  Uiso   1.00
C292   C     0.94630   0.82752   0.06838   0.00000  Uiso   1.00
C293   C     0.96600   0.85529   0.02946   0.00000  Uiso   1.00
C294   C     0.94162   0.89182   0.17382   0.00000  Uiso   1.00
C295   C     0.86485   0.89539   0.19742   0.00000  Uiso   1.00
C296   C     0.84728   0.95419   0.21752   0.00000  Uiso   1.00
C297   C     0.06544   0.81739   0.16601   0.00000  Uiso   1.00
C298   C     0.09277   0.75840   0.18307   0.00000  Uiso   1.00
C299   C     0.17946   0.75455   0.19661   0.00000  Uiso   1.00
H300   H     0.12346   0.97186   0.14033   0.00000  Uiso   1.00
H301   H     0.10712   0.97726   0.05879   0.00000  Uiso   1.00
H302   H     0.02568   0.04511   0.18782   0.00000  Uiso   1.00
H303   H     0.25357   0.90813   0.17346   0.00000  Uiso   1.00
H304   H     0.06374   0.95976   0.96990   0.00000  Uiso   1.00
H305   H     0.89204   0.10282   0.24196   0.00000  Uiso   1.00
H306   H     0.37259   0.81399   0.21170   0.00000  Uiso   1.00
H307   H     0.92904   0.79084   0.15195   0.00000  Uiso   1.00
H308   H     0.90203   0.78630   0.07104   0.00000  Uiso   1.00
H309   H     0.82059   0.85416   0.20006   0.00000  Uiso   1.00
H310   H     0.04848   0.71718   0.18571   0.00000  Uiso   1.00
H311   H     0.89728   0.80478   0.97984   0.00000  Uiso   1.00
H312   H     0.72558   0.94784   0.25191   0.00000  Uiso   1.00
H313   H     0.20613   0.65901   0.22164   0.00000  Uiso   1.00
O314   O     0.96622   0.88257   0.92143   0.00000  Uiso   1.00
O315   O     0.74097   0.07025   0.27838   0.00000  Uiso   1.00
O316   O     0.37144   0.69131   0.23867   0.00000  Uiso   1.00
N317   N     0.02828   0.92390   0.98334   0.00000  Uiso   1.00
N318   N     0.86774   0.05766   0.23770   0.00000  Uiso   1.00
N319   N     0.31701   0.78763   0.20941   0.00000  Uiso   1.00
N320   N     0.93871   0.84051   0.98869   0.00000  Uiso   1.00
N321   N     0.77817   0.97426   0.24305   0.00000  Uiso   1.00
N322   N     0.22745   0.70423   0.21476   0.00000  Uiso   1.00
C323   C     0.22032   0.54898   0.39721   0.00000  Uiso   1.00
C324   C     0.18892   0.56712   0.44148   0.00000  Uiso   1.00
C325   C     0.21309   0.53611   0.47873   0.00000  Uiso   1.00
C326   C     0.17716   0.56005   0.51599   0.00000  Uiso   1.00
C327   C     0.13720   0.58013   0.58474   0.00000  Uiso   1.00
C328   C     0.13753   0.53610   0.37132   0.00000  Uiso   1.00
C329   C     0.11850   0.47901   0.34957   0.00000  Uiso   1.00
C330   C     0.03932   0.47684   0.32777   0.00000  Uiso   1.00
C331   C     0.91960   0.44878   0.28756   0.00000  Uiso   1.00
C332   C     0.26131   0.61064   0.37879   0.00000  Uiso   1.00
C333   C     0.34636   0.61622   0.36331   0.00000  Uiso   1.00
C334   C     0.37138   0.67680   0.34780   0.00000  Uiso   1.00
C335   C     0.44385   0.76447   0.31919   0.00000  Uiso   1.00
C336   C     0.11351   0.64665   0.39716   0.00000  Uiso   1.00
C337   C     0.13090   0.62018   0.44145   0.00000  Uiso   1.00
C338   C     0.09493   0.64417   0.47867   0.00000  Uiso   1.00
C339   C     0.11905   0.61320   0.51597   0.00000  Uiso   1.00
C340   C     0.07951   0.58915   0.37129   0.00000  Uiso   1.00
C341   C     0.00034   0.58707   0.34951   0.00000  Uiso   1.00
C342   C     0.98120   0.52999   0.32774   0.00000  Uiso   1.00
C343   C     0.20330   0.66369   0.37877   0.00000  Uiso   1.00
C344   C     0.22819   0.72428   0.36327   0.00000  Uiso   1.00
C345   C     0.31327   0.72995   0.34777   0.00000  Uiso   1.00
H346   H     0.26548   0.50767   0.39723   0.00000  Uiso   1.00
H347   H     0.25798   0.49505   0.47873   0.00000  Uiso   1.00
H348   H     0.16341   0.43796   0.34959   0.00000  Uiso   1.00
H349   H     0.39123   0.57515   0.36334   0.00000  Uiso   1.00
H350   H     0.22407   0.50443   0.56908   0.00000  Uiso   1.00
H351   H     0.02468   0.38407   0.29677   0.00000  Uiso   1.00
H352   H     0.50508   0.67336   0.32576   0.00000  Uiso   1.00
H353   H     0.06835   0.68796   0.39714   0.00000  Uiso   1.00
H354   H     0.05004   0.68523   0.47864   0.00000  Uiso   1.00
H355   H     0.95547   0.62814   0.34950   0.00000  Uiso   1.00
H356   H     0.18328   0.76533   0.36325   0.00000  Uiso   1.00
H357   H     0.05529   0.65879   0.56901   0.00000  Uiso   1.00
H358   H     0.85590   0.53843   0.29669   0.00000  Uiso   1.00
H359   H     0.33630   0.82772   0.32569   0.00000  Uiso   1.00
O360   O     0.13117   0.57655   0.62266   0.00000  Uiso   1.00
O361   O     0.86958   0.41865   0.26539   0.00000  Uiso   1.00
O362   O     0.49986   0.79818   0.30343   0.00000  Uiso   1.00
N363   N     0.18687   0.54114   0.55788   0.00000  Uiso   1.00
N364   N     0.00045   0.42861   0.30329   0.00000  Uiso   1.00
N365   N     0.44957   0.69906   0.33038   0.00000  Uiso   1.00
N366   N     0.09605   0.62420   0.55784   0.00000  Uiso   1.00
N367   N     0.90963   0.51167   0.30325   0.00000  Uiso   1.00
N368   N     0.35875   0.78212   0.33035   0.00000  Uiso   1.00
C369   C     0.42108   0.43039   0.14299   0.00000  Uiso   1.00
C370   C     0.45691   0.40821   0.10030   0.00000  Uiso   1.00
C371   C     0.43716   0.43603   0.06142   0.00000  Uiso   1.00
C372   C     0.47669   0.40866   0.02604   0.00000  Uiso   1.00
C373   C     0.52366   0.38236   0.95923   0.00000  Uiso   1.00
C374   C     0.50117   0.44508   0.17040   0.00000  Uiso   1.00
C375   C     0.51861   0.50389   0.19046   0.00000  Uiso   1.00
C376   C     0.59540   0.50756   0.21409   0.00000  Uiso   1.00
C377   C     0.71104   0.53848   0.25614   0.00000  Uiso   1.00
C378   C     0.37735   0.37066   0.16259   0.00000  Uiso   1.00
C379   C     0.29069   0.36690   0.17611   0.00000  Uiso   1.00
C380   C     0.26323   0.30791   0.19318   0.00000  Uiso   1.00
C381   C     0.18662   0.22328   0.22311   0.00000  Uiso   1.00
C382   C     0.52641   0.33231   0.14929   0.00000  Uiso   1.00
C383   C     0.51413   0.35494   0.10372   0.00000  Uiso   1.00
C384   C     0.55370   0.32752   0.06838   0.00000  Uiso   1.00
C385   C     0.53400   0.35529   0.02946   0.00000  Uiso   1.00
C386   C     0.55838   0.39182   0.17382   0.00000  Uiso   1.00
C387   C     0.63515   0.39539   0.19742   0.00000  Uiso   1.00
C388   C     0.65272   0.45419   0.21752   0.00000  Uiso   1.00
C389   C     0.43456   0.31739   0.16601   0.00000  Uiso   1.00
C390   C     0.40723   0.25840   0.18307   0.00000  Uiso   1.00
C391   C     0.32054   0.25455   0.19661   0.00000  Uiso   1.00
H392   H     0.37654   0.47186   0.14033   0.00000  Uiso   1.00
H393   H     0.39288   0.47726   0.05879   0.00000  Uiso   1.00
H394   H     0.47432   0.54511   0.18782   0.00000  Uiso   1.00
H395   H     0.24643   0.40813   0.17346   0.00000  Uiso   1.00
H396   H     0.43626   0.45976   0.96990   0.00000  Uiso   1.00
H397   H     0.60796   0.60282   0.24196   0.00000  Uiso   1.00
H398   H     0.12741   0.31399   0.21170   0.00000  Uiso   1.00
H399   H     0.57096   0.29084   0.15195   0.00000  Uiso   1.00
H400   H     0.59797   0.28630   0.07104   0.00000  Uiso   1.00
H401   H     0.67941   0.35416   0.20006   0.00000  Uiso   1.00
H402   H     0.45152   0.21718   0.18571   0.00000  Uiso   1.00
H403   H     0.60272   0.30478   0.97984   0.00000  Uiso   1.00
H404   H     0.77442   0.44784   0.25191   0.00000  Uiso   1.00
H405   H     0.29387   0.15901   0.22164   0.00000  Uiso   1.00
O406   O     0.53378   0.38257   0.92143   0.00000  Uiso   1.00
O407   O     0.75903   0.57025   0.27838   0.00000  Uiso   1.00
O408   O     0.12856   0.19131   0.23867   0.00000  Uiso   1.00
N409   N     0.47172   0.42390   0.98334   0.00000  Uiso   1.00
N410   N     0.63226   0.55766   0.23770   0.00000  Uiso   1.00
N411   N     0.18299   0.28763   0.20941   0.00000  Uiso   1.00
N412   N     0.56129   0.34051   0.98869   0.00000  Uiso   1.00
N413   N     0.72183   0.47426   0.24305   0.00000  Uiso   1.00
N414   N     0.27255   0.20423   0.21476   0.00000  Uiso   1.00
C415   C     0.27968   0.04898   0.39721   0.00000  Uiso   1.00
C416   C     0.31108   0.06712   0.44148   0.00000  Uiso   1.00
C417   C     0.28691   0.03611   0.47873   0.00000  Uiso   1.00
C418   C     0.32284   0.06005   0.51599   0.00000  Uiso   1.00
C419   C     0.36280   0.08013   0.58474   0.00000  Uiso   1.00
C420   C     0.36247   0.03610   0.37132   0.00000  Uiso   1.00
C421   C     0.38150   0.97901   0.34957   0.00000  Uiso   1.00
C422   C     0.46068   0.97684   0.32777   0.00000  Uiso   1.00
C423   C     0.58040   0.94878   0.28756   0.00000  Uiso   1.00
C424   C     0.23869   0.11064   0.37879   0.00000  Uiso   1.00
C425   C     0.15364   0.11622   0.36331   0.00000  Uiso   1.00
C426   C     0.12862   0.17680   0.34780   0.00000  Uiso   1.00
C427   C     0.05615   0.26447   0.31919   0.00000  Uiso   1.00
C428   C     0.38649   0.14665   0.39716   0.00000  Uiso   1.00
C429   C     0.36910   0.12018   0.44145   0.00000  Uiso   1.00
C430   C     0.40507   0.14417   0.47867   0.00000  Uiso   1.00
C431   C     0.38095   0.11320   0.51597   0.00000  Uiso   1.00
C432   C     0.42049   0.08915   0.37129   0.00000  Uiso   1.00
C433   C     0.49966   0.08707   0.34951   0.00000  Uiso   1.00
C434   C     0.51880   0.02999   0.32774   0.00000  Uiso   1.00
C435   C     0.29670   0.16369   0.37877   0.00000  Uiso   1.00
C436   C     0.27181   0.22428   0.36327   0.00000  Uiso   1.00
C437   C     0.18673   0.22995   0.34777   0.00000  Uiso   1.00
H438   H     0.23452   0.00767   0.39723   0.00000  Uiso   1.00
H439   H     0.24202   0.99505   0.47873   0.00000  Uiso   1.00
H440   H     0.33659   0.93796   0.34959   0.00000  Uiso   1.00
H441   H     0.10877   0.07515   0.36334   0.00000  Uiso   1.00
H442   H     0.27593   0.00443   0.56908   0.00000  Uiso   1.00
H443   H     0.47532   0.88407   0.29677   0.00000  Uiso   1.00
H444   H     0.99492   0.17336   0.32576   0.00000  Uiso   1.00
H445   H     0.43165   0.18796   0.39714   0.00000  Uiso   1.00
H446   H     0.44996   0.18523   0.47864   0.00000  Uiso   1.00
H447   H     0.54453   0.12814   0.34950   0.00000  Uiso   1.00
H448   H     0.31672   0.26533   0.36325   0.00000  Uiso   1.00
H449   H     0.44471   0.15879   0.56901   0.00000  Uiso   1.00
H450   H     0.64410   0.03843   0.29669   0.00000  Uiso   1.00
H451   H     0.16370   0.32772   0.32569   0.00000  Uiso   1.00
O452   O     0.36883   0.07655   0.62266   0.00000  Uiso   1.00
O453   O     0.63042   0.91865   0.26539   0.00000  Uiso   1.00
O454   O     0.00014   0.29818   0.30343   0.00000  Uiso   1.00
N455   N     0.31313   0.04114   0.55788   0.00000  Uiso   1.00
N456   N     0.49955   0.92861   0.30329   0.00000  Uiso   1.00
N457   N     0.05043   0.19906   0.33038   0.00000  Uiso   1.00
N458   N     0.40395   0.12420   0.55784   0.00000  Uiso   1.00
N459   N     0.59037   0.01167   0.30325   0.00000  Uiso   1.00
N460   N     0.14125   0.28212   0.33035   0.00000  Uiso   1.00
C461   C     0.07892   0.06961   0.64299   0.00000  Uiso   1.00
C462   C     0.04309   0.09179   0.60030   0.00000  Uiso   1.00
C463   C     0.06284   0.06397   0.56142   0.00000  Uiso   1.00
C464   C     0.02331   0.09134   0.52604   0.00000  Uiso   1.00
C465   C     0.97634   0.11764   0.45923   0.00000  Uiso   1.00
C466   C     0.99883   0.05492   0.67040   0.00000  Uiso   1.00
C467   C     0.98139   0.99611   0.69046   0.00000  Uiso   1.00
C468   C     0.90460   0.99244   0.71409   0.00000  Uiso   1.00
C469   C     0.78896   0.96152   0.75614   0.00000  Uiso   1.00
C470   C     0.12265   0.12934   0.66259   0.00000  Uiso   1.00
C471   C     0.20931   0.13310   0.67611   0.00000  Uiso   1.00
C472   C     0.23677   0.19209   0.69318   0.00000  Uiso   1.00
C473   C     0.31338   0.27672   0.72311   0.00000  Uiso   1.00
C474   C     0.97359   0.16769   0.64929   0.00000  Uiso   1.00
C475   C     0.98587   0.14506   0.60372   0.00000  Uiso   1.00
C476   C     0.94630   0.17248   0.56838   0.00000  Uiso   1.00
C477   C     0.96600   0.14471   0.52946   0.00000  Uiso   1.00
C478   C     0.94162   0.10818   0.67382   0.00000  Uiso   1.00
C479   C     0.86485   0.10461   0.69742   0.00000  Uiso   1.00
C480   C     0.84728   0.04581   0.71752   0.00000  Uiso   1.00
C481   C     0.06544   0.18261   0.66601   0.00000  Uiso   1.00
C482   C     0.09277   0.24160   0.68307   0.00000  Uiso   1.00
C483   C     0.17946   0.24545   0.69661   0.00000  Uiso   1.00
H484   H     0.12346   0.02814   0.64033   0.00000  Uiso   1.00
H485   H     0.10712   0.02274   0.55879   0.00000  Uiso   1.00
H486   H     0.02568   0.95489   0.68782   0.00000  Uiso   1.00
H487   H     0.25357   0.09187   0.67346   0.00000  Uiso   1.00
H488   H     0.06374   0.04024   0.46990   0.00000  Uiso   1.00
H489   H     0.89204   0.89718   0.74196   0.00000  Uiso   1.00
H490   H     0.37259   0.18601   0.71170   0.00000  Uiso   1.00
H491   H     0.92904   0.20916   0.65195   0.00000  Uiso   1.00
H492   H     0.90203   0.21370   0.57104   0.00000  Uiso   1.00
H493   H     0.82059   0.14584   0.70006   0.00000  Uiso   1.00
H494   H     0.04848   0.28282   0.68571   0.00000  Uiso   1.00
H495   H     0.89728   0.19522   0.47984   0.00000  Uiso   1.00
H496   H     0.72558   0.05216   0.75191   0.00000  Uiso   1.00
H497   H     0.20613   0.34099   0.72164   0.00000  Uiso   1.00
O498   O     0.96622   0.11743   0.42143   0.00000  Uiso   1.00
O499   O     0.74097   0.92975   0.77838   0.00000  Uiso   1.00
O500   O     0.37144   0.30869   0.73867   0.00000  Uiso   1.00
N501   N     0.02828   0.07610   0.48334   0.00000  Uiso   1.00
N502   N     0.86774   0.94234   0.73770   0.00000  Uiso   1.00
N503   N     0.31701   0.21237   0.70941   0.00000  Uiso   1.00
N504   N     0.93871   0.15949   0.48869   0.00000  Uiso   1.00
N505   N     0.77817   0.02574   0.74305   0.00000  Uiso   1.00
N506   N     0.22745   0.29577   0.71476   0.00000  Uiso   1.00
C507   C     0.22032   0.45102   0.89721   0.00000  Uiso   1.00
C508   C     0.18892   0.43288   0.94148   0.00000  Uiso   1.00
C509   C     0.21309   0.46389   0.97873   0.00000  Uiso   1.00
C510   C     0.17716   0.43995   0.01599   0.00000  Uiso   1.00
C511   C     0.13720   0.41987   0.08474   0.00000  Uiso   1.00
C512   C     0.13753   0.46390   0.87132   0.00000  Uiso   1.00
C513   C     0.11850   0.52099   0.84957   0.00000  Uiso   1.00
C514   C     0.03932   0.52316   0.82777   0.00000  Uiso   1.00
C515   C     0.91960   0.55122   0.78756   0.00000  Uiso   1.00
C516   C     0.26131   0.38936   0.87879   0.00000  Uiso   1.00
C517   C     0.34636   0.38378   0.86331   0.00000  Uiso   1.00
C518   C     0.37138   0.32320   0.84780   0.00000  Uiso   1.00
C519   C     0.44385   0.23553   0.81919   0.00000  Uiso   1.00
C520   C     0.11351   0.35335   0.89716   0.00000  Uiso   1.00
C521   C     0.13090   0.37982   0.94145   0.00000  Uiso   1.00
C522   C     0.09493   0.35583   0.97867   0.00000  Uiso   1.00
C523   C     0.11905   0.38680   0.01597   0.00000  Uiso   1.00
C524   C     0.07951   0.41085   0.87129   0.00000  Uiso   1.00
C525   C     0.00034   0.41293   0.84951   0.00000  Uiso   1.00
C526   C     0.98120   0.47001   0.82774   0.00000  Uiso   1.00
C527   C     0.20330   0.33631   0.87877   0.00000  Uiso   1.00
C528   C     0.22819   0.27572   0.86327   0.00000  Uiso   1.00
C529   C     0.31327   0.27005   0.84777   0.00000  Uiso   1.00
H530   H     0.26548   0.49233   0.89723   0.00000  Uiso   1.00
H531   H     0.25798   0.50495   0.97873   0.00000  Uiso   1.00
H532   H     0.16341   0.56204   0.84959   0.00000  Uiso   1.00
H533   H     0.39123   0.42485   0.86334   0.00000  Uiso   1.00
H534   H     0.22407   0.49557   0.06908   0.00000  Uiso   1.00
H535   H     0.02468   0.61593   0.79677   0.00000  Uiso   1.00
H536   H     0.50508   0.32664   0.82576   0.00000  Uiso   1.00
H537   H     0.06835   0.31204   0.89714   0.00000  Uiso   1.00
H538   H     0.05004   0.31477   0.97864   0.00000  Uiso   1.00
H539   H     0.95547   0.37186   0.84950   0.00000  Uiso   1.00
H540   H     0.18328   0.23467   0.86325   0.00000  Uiso   1.00
H541   H     0.05529   0.34121   0.06901   0.00000  Uiso   1.00
H542   H     0.85590   0.46157   0.79669   0.00000  Uiso   1.00
H543   H     0.33630   0.17228   0.82569   0.00000  Uiso   1.00
O544   O     0.13117   0.42345   0.12266   0.00000  Uiso   1.00
O545   O     0.86958   0.58135   0.76539   0.00000  Uiso   1.00
O546   O     0.49986   0.20182   0.80343   0.00000  Uiso   1.00
N547   N     0.18687   0.45886   0.05788   0.00000  Uiso   1.00
N548   N     0.00045   0.57139   0.80329   0.00000  Uiso   1.00
N549   N     0.44957   0.30094   0.83038   0.00000  Uiso   1.00
N550   N     0.09605   0.37580   0.05784   0.00000  Uiso   1.00
N551   N     0.90963   0.48833   0.80325   0.00000  Uiso   1.00
N552   N     0.35875   0.21788   0.83035   0.00000  Uiso   1.00
C553   C     0.57892   0.43039   0.35701   0.00000  Uiso   1.00
C554   C     0.54309   0.40821   0.39970   0.00000  Uiso   1.00
C555   C     0.56284   0.43603   0.43858   0.00000  Uiso   1.00
C556   C     0.52331   0.40866   0.47396   0.00000  Uiso   1.00
C557   C     0.47634   0.38236   0.54077   0.00000  Uiso   1.00
C558   C     0.49883   0.44508   0.32960   0.00000  Uiso   1.00
C559   C     0.48139   0.50389   0.30954   0.00000  Uiso   1.00
C560   C     0.40460   0.50756   0.28591   0.00000  Uiso   1.00
C561   C     0.28896   0.53848   0.24386   0.00000  Uiso   1.00
C562   C     0.62265   0.37066   0.33741   0.00000  Uiso   1.00
C563   C     0.70931   0.36690   0.32389   0.00000  Uiso   1.00
C564   C     0.73677   0.30791   0.30682   0.00000  Uiso   1.00
C565   C     0.81338   0.22328   0.27689   0.00000  Uiso   1.00
C566   C     0.47359   0.33231   0.35071   0.00000  Uiso   1.00
C567   C     0.48587   0.35494   0.39628   0.00000  Uiso   1.00
C568   C     0.44630   0.32752   0.43162   0.00000  Uiso   1.00
C569   C     0.46600   0.35529   0.47054   0.00000  Uiso   1.00
C570   C     0.44162   0.39182   0.32618   0.00000  Uiso   1.00
C571   C     0.36485   0.39539   0.30258   0.00000  Uiso   1.00
C572   C     0.34728   0.45419   0.28248   0.00000  Uiso   1.00
C573   C     0.56544   0.31739   0.33399   0.00000  Uiso   1.00
C574   C     0.59277   0.25840   0.31693   0.00000  Uiso   1.00
C575   C     0.67946   0.25455   0.30339   0.00000  Uiso   1.00
H576   H     0.62346   0.47186   0.35967   0.00000  Uiso   1.00
H577   H     0.60712   0.47726   0.44121   0.00000  Uiso   1.00
H578   H     0.52568   0.54511   0.31218   0.00000  Uiso   1.00
H579   H     0.75357   0.40813   0.32654   0.00000  Uiso   1.00
H580   H     0.56374   0.45976   0.53010   0.00000  Uiso   1.00
H581   H     0.39204   0.60282   0.25804   0.00000  Uiso   1.00
H582   H     0.87259   0.31399   0.28830   0.00000  Uiso   1.00
H583   H     0.42904   0.29084   0.34805   0.00000  Uiso   1.00
H584   H     0.40203   0.28630   0.42896   0.00000  Uiso   1.00
H585   H     0.32059   0.35416   0.29994   0.00000  Uiso   1.00
H586   H     0.54848   0.21718   0.31429   0.00000  Uiso   1.00
H587   H     0.39728   0.30478   0.52016   0.00000  Uiso   1.00
H588   H     0.22558   0.44784   0.24809   0.00000  Uiso   1.00
H589   H     0.70613   0.15901   0.27836   0.00000  Uiso   1.00
O590   O     0.46622   0.38257   0.57857   0.00000  Uiso   1.00
O591   O     0.24097   0.57025   0.22162   0.00000  Uiso   1.00
O592   O     0.87144   0.19131   0.26133   0.00000  Uiso   1.00
N593   N     0.52828   0.42390   0.51666   0.00000  Uiso   1.00
N594   N     0.36774   0.55766   0.26230   0.00000  Uiso   1.00
N595   N     0.81701   0.28763   0.29059   0.00000  Uiso   1.00
N596   N     0.43871   0.34051   0.51131   0.00000  Uiso   1.00
N597   N     0.27817   0.47426   0.25695   0.00000  Uiso   1.00
N598   N     0.72745   0.20423   0.28524   0.00000  Uiso   1.00
C599   C     0.72032   0.04898   0.10279   0.00000  Uiso   1.00
C600   C     0.68892   0.06712   0.05852   0.00000  Uiso   1.00
C601   C     0.71309   0.03611   0.02127   0.00000  Uiso   1.00
C602   C     0.67716   0.06005   0.98401   0.00000  Uiso   1.00
C603   C     0.63720   0.08013   0.91526   0.00000  Uiso   1.00
C604   C     0.63753   0.03610   0.12868   0.00000  Uiso   1.00
C605   C     0.61850   0.97901   0.15043   0.00000  Uiso   1.00
C606   C     0.53932   0.97684   0.17223   0.00000  Uiso   1.00
C607   C     0.41960   0.94878   0.21244   0.00000  Uiso   1.00
C608   C     0.76131   0.11064   0.12121   0.00000  Uiso   1.00
C609   C     0.84636   0.11622   0.13669   0.00000  Uiso   1.00
C610   C     0.87138   0.17680   0.15220   0.00000  Uiso   1.00
C611   C     0.94385   0.26447   0.18081   0.00000  Uiso   1.00
C612   C     0.61351   0.14665   0.10284   0.00000  Uiso   1.00
C613   C     0.63090   0.12018   0.05855   0.00000  Uiso   1.00
C614   C     0.59493   0.14417   0.02133   0.00000  Uiso   1.00
C615   C     0.61905   0.11320   0.98403   0.00000  Uiso   1.00
C616   C     0.57951   0.08915   0.12871   0.00000  Uiso   1.00
C617   C     0.50034   0.08707   0.15049   0.00000  Uiso   1.00
C618   C     0.48120   0.02999   0.17226   0.00000  Uiso   1.00
C619   C     0.70330   0.16369   0.12123   0.00000  Uiso   1.00
C620   C     0.72819   0.22428   0.13673   0.00000  Uiso   1.00
C621   C     0.81327   0.22995   0.15223   0.00000  Uiso   1.00
H622   H     0.76548   0.00767   0.10277   0.00000  Uiso   1.00
H623   H     0.75798   0.99505   0.02127   0.00000  Uiso   1.00
H624   H     0.66341   0.93796   0.15041   0.00000  Uiso   1.00
H625   H     0.89123   0.07515   0.13666   0.00000  Uiso   1.00
H626   H     0.72407   0.00443   0.93092   0.00000  Uiso   1.00
H627   H     0.52468   0.88407   0.20323   0.00000  Uiso   1.00
H628   H     0.00508   0.17336   0.17424   0.00000  Uiso   1.00
H629   H     0.56835   0.18796   0.10286   0.00000  Uiso   1.00
H630   H     0.55004   0.18523   0.02136   0.00000  Uiso   1.00
H631   H     0.45547   0.12814   0.15050   0.00000  Uiso   1.00
H632   H     0.68328   0.26533   0.13675   0.00000  Uiso   1.00
H633   H     0.55529   0.15879   0.93099   0.00000  Uiso   1.00
H634   H     0.35590   0.03843   0.20331   0.00000  Uiso   1.00
H635   H     0.83630   0.32772   0.17431   0.00000  Uiso   1.00
O636   O     0.63117   0.07655   0.87734   0.00000  Uiso   1.00
O637   O     0.36958   0.91865   0.23461   0.00000  Uiso   1.00
O638   O     0.99986   0.29818   0.19657   0.00000  Uiso   1.00
N639   N     0.68687   0.04114   0.94212   0.00000  Uiso   1.00
N640   N     0.50045   0.92861   0.19671   0.00000  Uiso   1.00
N641   N     0.94957   0.19906   0.16962   0.00000  Uiso   1.00
N642   N     0.59605   0.12420   0.94216   0.00000  Uiso   1.00
N643   N     0.40963   0.01167   0.19675   0.00000  Uiso   1.00
N644   N     0.85875   0.28212   0.16965   0.00000  Uiso   1.00
C645   C     0.92108   0.06961   0.85701   0.00000  Uiso   1.00
C646   C     0.95691   0.09179   0.89970   0.00000  Uiso   1.00
C647   C     0.93716   0.06397   0.93858   0.00000  Uiso   1.00
C648   C     0.97669   0.09134   0.97396   0.00000  Uiso   1.00
C649   C     0.02366   0.11764   0.04077   0.00000  Uiso   1.00
C650   C     0.00117   0.05492   0.82960   0.00000  Uiso   1.00
C651   C     0.01861   0.99611   0.80954   0.00000  Uiso   1.00
C652   C     0.09540   0.99244   0.78591   0.00000  Uiso   1.00
C653   C     0.21104   0.96152   0.74386   0.00000  Uiso   1.00
C654   C     0.87735   0.12934   0.83741   0.00000  Uiso   1.00
C655   C     0.79069   0.13310   0.82389   0.00000  Uiso   1.00
C656   C     0.76323   0.19209   0.80682   0.00000  Uiso   1.00
C657   C     0.68662   0.27672   0.77689   0.00000  Uiso   1.00
C658   C     0.02641   0.16769   0.85071   0.00000  Uiso   1.00
C659   C     0.01413   0.14506   0.89628   0.00000  Uiso   1.00
C660   C     0.05370   0.17248   0.93162   0.00000  Uiso   1.00
C661   C     0.03400   0.14471   0.97054   0.00000  Uiso   1.00
C662   C     0.05838   0.10818   0.82618   0.00000  Uiso   1.00
C663   C     0.13515   0.10461   0.80258   0.00000  Uiso   1.00
C664   C     0.15272   0.04581   0.78248   0.00000  Uiso   1.00
C665   C     0.93456   0.18261   0.83399   0.00000  Uiso   1.00
C666   C     0.90723   0.24160   0.81693   0.00000  Uiso   1.00
C667   C     0.82054   0.24545   0.80339   0.00000  Uiso   1.00
H668   H     0.87654   0.02814   0.85967   0.00000  Uiso   1.00
H669   H     0.89288   0.02274   0.94121   0.00000  Uiso   1.00
H670   H     0.97432   0.95489   0.81218   0.00000  Uiso   1.00
H671   H     0.74643   0.09187   0.82654   0.00000  Uiso   1.00
H672   H     0.93626   0.04024   0.03010   0.00000  Uiso   1.00
H673   H     0.10796   0.89718   0.75804   0.00000  Uiso   1.00
H674   H     0.62741   0.18601   0.78830   0.00000  Uiso   1.00
H675   H     0.07096   0.20916   0.84805   0.00000  Uiso   1.00
H676   H     0.09797   0.21370   0.92896   0.00000  Uiso   1.00
H677   H     0.17941   0.14584   0.79994   0.00000  Uiso   1.00
H678   H     0.95152   0.28282   0.81429   0.00000  Uiso   1.00
H679   H     0.10272   0.19522   0.02016   0.00000  Uiso   1.00
H680   H     0.27442   0.05216   0.74809   0.00000  Uiso   1.00
H681   H     0.79387   0.34099   0.77836   0.00000  Uiso   1.00
O682   O     0.03378   0.11743   0.07857   0.00000  Uiso   1.00
O683   O     0.25903   0.92975   0.72162   0.00000  Uiso   1.00
O684   O     0.62856   0.30869   0.76133   0.00000  Uiso   1.00
N685   N     0.97172   0.07610   0.01666   0.00000  Uiso   1.00
N686   N     0.13226   0.94234   0.76230   0.00000  Uiso   1.00
N687   N     0.68299   0.21237   0.79059   0.00000  Uiso   1.00
N688   N     0.06129   0.15949   0.01131   0.00000  Uiso   1.00
N689   N     0.22183   0.02574   0.75695   0.00000  Uiso   1.00
N690   N     0.77255   0.29577   0.78524   0.00000  Uiso   1.00
C691   C     0.77968   0.45102   0.60279   0.00000  Uiso   1.00
C692   C     0.81108   0.43288   0.55852   0.00000  Uiso   1.00
C693   C     0.78691   0.46389   0.52127   0.00000  Uiso   1.00
C694   C     0.82284   0.43995   0.48401   0.00000  Uiso   1.00
C695   C     0.86280   0.41987   0.41526   0.00000  Uiso   1.00
C696   C     0.86247   0.46390   0.62868   0.00000  Uiso   1.00
C697   C     0.88150   0.52099   0.65043   0.00000  Uiso   1.00
C698   C     0.96068   0.52316   0.67223   0.00000  Uiso   1.00
C699   C     0.08040   0.55122   0.71244   0.00000  Uiso   1.00
C700   C     0.73869   0.38936   0.62121   0.00000  Uiso   1.00
C701   C     0.65364   0.38378   0.63669   0.00000  Uiso   1.00
C702   C     0.62862   0.32320   0.65220   0.00000  Uiso   1.00
C703   C     0.55615   0.23553   0.68081   0.00000  Uiso   1.00
C704   C     0.88649   0.35335   0.60284   0.00000  Uiso   1.00
C705   C     0.86910   0.37982   0.55855   0.00000  Uiso   1.00
C706   C     0.90507   0.35583   0.52133   0.00000  Uiso   1.00
C707   C     0.88095   0.38680   0.48403   0.00000  Uiso   1.00
C708   C     0.92049   0.41085   0.62871   0.00000  Uiso   1.00
C709   C     0.99966   0.41293   0.65049   0.00000  Uiso   1.00
C710   C     0.01880   0.47001   0.67226   0.00000  Uiso   1.00
C711   C     0.79670   0.33631   0.62123   0.00000  Uiso   1.00
C712   C     0.77181   0.27572   0.63673   0.00000  Uiso   1.00
C713   C     0.68673   0.27005   0.65223   0.00000  Uiso   1.00
H714   H     0.73452   0.49233   0.60277   0.00000  Uiso   1.00
H715   H     0.74202   0.50495   0.52127   0.00000  Uiso   1.00
H716   H     0.83659   0.56204   0.65041   0.00000  Uiso   1.00
H717   H     0.60877   0.42485   0.63666   0.00000  Uiso   1.00
H718   H     0.77593   0.49557   0.43092   0.00000  Uiso   1.00
H719   H     0.97532   0.61593   0.70323   0.00000  Uiso   1.00
H720   H     0.49492   0.32664   0.67424   0.00000  Uiso   1.00
H721   H     0.93165   0.31204   0.60286   0.00000  Uiso   1.00
H722   H     0.94996   0.31477   0.52136   0.00000  Uiso   1.00
H723   H     0.04453   0.37186   0.65050   0.00000  Uiso   1.00
H724   H     0.81672   0.23467   0.63675   0.00000  Uiso   1.00
H725   H     0.94471   0.34121   0.43099   0.00000  Uiso   1.00
H726   H     0.14410   0.46157   0.70331   0.00000  Uiso   1.00
H727   H     0.66370   0.17228   0.67431   0.00000  Uiso   1.00
O728   O     0.86883   0.42345   0.37734   0.00000  Uiso   1.00
O729   O     0.13042   0.58135   0.73461   0.00000  Uiso   1.00
O730   O     0.50014   0.20182   0.69657   0.00000  Uiso   1.00
N731   N     0.81313   0.45886   0.44212   0.00000  Uiso   1.00
N732   N     0.99955   0.57139   0.69671   0.00000  Uiso   1.00
N733   N     0.55043   0.30094   0.66962   0.00000  Uiso   1.00
N734   N     0.90395   0.37580   0.44216   0.00000  Uiso   1.00
N735   N     0.09037   0.48833   0.69675   0.00000  Uiso   1.00
N736   N     0.64125   0.21788   0.66965   0.00000  Uiso   1.00
