data_job_03687
_audit_creation_date              2018-12-19
_audit_creation_method            'Materials Studio'
_symmetry_space_group_name_H-M    'P1'
_symmetry_Int_Tables_number       1
_symmetry_cell_setting            triclinic
loop_
_symmetry_equiv_pos_as_xyz
  x,y,z
_cell_length_a                    19.3026
_cell_length_b                    19.3026
_cell_length_c                    27.9982
_cell_angle_alpha                 90.0000
_cell_angle_beta                  90.0000
_cell_angle_gamma                 90.0000
loop_
_atom_site_label
_atom_site_type_symbol
_atom_site_fract_x
_atom_site_fract_y
_atom_site_fract_z
_atom_site_U_iso_or_equiv
_atom_site_adp_type
_atom_site_occupancy
C1     C     0.90091   0.84270   0.29217   0.00000  Uiso   1.00
C2     C     0.97180   0.86414   0.31114   0.00000  Uiso   1.00
C3     C     0.98894   0.87340   0.35885   0.00000  Uiso   1.00
C4     C     0.05657   0.89311   0.36886   0.00000  Uiso   1.00
C5     C     0.15923   0.92491   0.40384   0.00000  Uiso   1.00
C6     C     0.87935   0.89903   0.25700   0.00000  Uiso   1.00
C7     C     0.81876   0.93761   0.25919   0.00000  Uiso   1.00
C8     C     0.80857   0.98668   0.22362   0.00000  Uiso   1.00
C9     C     0.76767   0.07260   0.17453   0.00000  Uiso   1.00
C10    C     0.91300   0.77764   0.26243   0.00000  Uiso   1.00
C11    C     0.88070   0.71416   0.26917   0.00000  Uiso   1.00
C12    C     0.89883   0.66103   0.23816   0.00000  Uiso   1.00
C13    C     0.91019   0.55849   0.19750   0.00000  Uiso   1.00
C14    C     0.99054   0.86124   0.22510   0.00000  Uiso   1.00
C15    C     0.02048   0.87422   0.27470   0.00000  Uiso   1.00
C16    C     0.08810   0.89392   0.28464   0.00000  Uiso   1.00
C17    C     0.10535   0.90320   0.33236   0.00000  Uiso   1.00
C18    C     0.92803   0.90910   0.22057   0.00000  Uiso   1.00
C19    C     0.91792   0.95812   0.18498   0.00000  Uiso   1.00
C20    C     0.85734   0.99677   0.18712   0.00000  Uiso   1.00
C21    C     0.96169   0.78771   0.22599   0.00000  Uiso   1.00
C22    C     0.97987   0.73468   0.19497   0.00000  Uiso   1.00
C23    C     0.94760   0.67113   0.20166   0.00000  Uiso   1.00
H24    H     0.86301   0.83486   0.32053   0.00000  Uiso   1.00
H25    H     0.95125   0.86560   0.38703   0.00000  Uiso   1.00
H26    H     0.78109   0.92979   0.28738   0.00000  Uiso   1.00
H27    H     0.84303   0.70638   0.29736   0.00000  Uiso   1.00
H28    H     0.07054   0.90416   0.44468   0.00000  Uiso   1.00
H29    H     0.71175   0.03949   0.23456   0.00000  Uiso   1.00
H30    H     0.84235   0.56838   0.25561   0.00000  Uiso   1.00
H31    H     0.02844   0.86909   0.19674   0.00000  Uiso   1.00
H32    H     0.12577   0.90171   0.25644   0.00000  Uiso   1.00
H33    H     0.95560   0.96590   0.15680   0.00000  Uiso   1.00
H34    H     0.01754   0.74249   0.16678   0.00000  Uiso   1.00
H35    H     0.21219   0.93346   0.33870   0.00000  Uiso   1.00
H36    H     0.85339   0.06879   0.12857   0.00000  Uiso   1.00
H37    H     0.98399   0.59769   0.14962   0.00000  Uiso   1.00
O38    O     0.20240   0.93968   0.43320   0.00000  Uiso   1.00
O39    O     0.73166   0.11721   0.15752   0.00000  Uiso   1.00
O40    O     0.90301   0.49914   0.18514   0.00000  Uiso   1.00
N41    N     0.09053   0.90656   0.41155   0.00000  Uiso   1.00
N42    N     0.75508   0.03310   0.21510   0.00000  Uiso   1.00
N43    N     0.87717   0.59266   0.23477   0.00000  Uiso   1.00
N44    N     0.16674   0.92233   0.35452   0.00000  Uiso   1.00
N45    N     0.83129   0.04887   0.15807   0.00000  Uiso   1.00
N46    N     0.95338   0.60843   0.17774   0.00000  Uiso   1.00
C47    C     0.40091   0.34270   0.79217   0.00000  Uiso   1.00
C48    C     0.47180   0.36414   0.81114   0.00000  Uiso   1.00
C49    C     0.48894   0.37340   0.85885   0.00000  Uiso   1.00
C50    C     0.55657   0.39311   0.86886   0.00000  Uiso   1.00
C51    C     0.65923   0.42491   0.90384   0.00000  Uiso   1.00
C52    C     0.37935   0.39903   0.75700   0.00000  Uiso   1.00
C53    C     0.31876   0.43761   0.75919   0.00000  Uiso   1.00
C54    C     0.30857   0.48668   0.72362   0.00000  Uiso   1.00
C55    C     0.26767   0.57260   0.67453   0.00000  Uiso   1.00
C56    C     0.41300   0.27764   0.76243   0.00000  Uiso   1.00
C57    C     0.38070   0.21416   0.76917   0.00000  Uiso   1.00
C58    C     0.39883   0.16103   0.73816   0.00000  Uiso   1.00
C59    C     0.41019   0.05849   0.69750   0.00000  Uiso   1.00
C60    C     0.49054   0.36124   0.72510   0.00000  Uiso   1.00
C61    C     0.52048   0.37422   0.77470   0.00000  Uiso   1.00
C62    C     0.58810   0.39392   0.78464   0.00000  Uiso   1.00
C63    C     0.60535   0.40320   0.83236   0.00000  Uiso   1.00
C64    C     0.42803   0.40910   0.72057   0.00000  Uiso   1.00
C65    C     0.41792   0.45812   0.68498   0.00000  Uiso   1.00
C66    C     0.35734   0.49677   0.68712   0.00000  Uiso   1.00
C67    C     0.46169   0.28771   0.72599   0.00000  Uiso   1.00
C68    C     0.47987   0.23468   0.69497   0.00000  Uiso   1.00
C69    C     0.44760   0.17113   0.70166   0.00000  Uiso   1.00
H70    H     0.36301   0.33486   0.82053   0.00000  Uiso   1.00
H71    H     0.45125   0.36560   0.88703   0.00000  Uiso   1.00
H72    H     0.28109   0.42979   0.78738   0.00000  Uiso   1.00
H73    H     0.34303   0.20638   0.79736   0.00000  Uiso   1.00
H74    H     0.57054   0.40416   0.94468   0.00000  Uiso   1.00
H75    H     0.21175   0.53949   0.73456   0.00000  Uiso   1.00
H76    H     0.34235   0.06838   0.75561   0.00000  Uiso   1.00
H77    H     0.52844   0.36909   0.69674   0.00000  Uiso   1.00
H78    H     0.62577   0.40171   0.75644   0.00000  Uiso   1.00
H79    H     0.45560   0.46590   0.65680   0.00000  Uiso   1.00
H80    H     0.51754   0.24249   0.66678   0.00000  Uiso   1.00
H81    H     0.71219   0.43346   0.83870   0.00000  Uiso   1.00
H82    H     0.35339   0.56879   0.62857   0.00000  Uiso   1.00
H83    H     0.48399   0.09769   0.64962   0.00000  Uiso   1.00
O84    O     0.70240   0.43968   0.93320   0.00000  Uiso   1.00
O85    O     0.23166   0.61721   0.65752   0.00000  Uiso   1.00
O86    O     0.40301   0.99914   0.68514   0.00000  Uiso   1.00
N87    N     0.59053   0.40656   0.91155   0.00000  Uiso   1.00
N88    N     0.25508   0.53310   0.71510   0.00000  Uiso   1.00
N89    N     0.37717   0.09266   0.73477   0.00000  Uiso   1.00
N90    N     0.66674   0.42233   0.85452   0.00000  Uiso   1.00
N91    N     0.33129   0.54887   0.65807   0.00000  Uiso   1.00
N92    N     0.45338   0.10843   0.67774   0.00000  Uiso   1.00
C93    C     0.09909   0.15730   0.29217   0.00000  Uiso   1.00
C94    C     0.02820   0.13586   0.31114   0.00000  Uiso   1.00
C95    C     0.01106   0.12660   0.35885   0.00000  Uiso   1.00
C96    C     0.94343   0.10689   0.36886   0.00000  Uiso   1.00
C97    C     0.84077   0.07509   0.40384   0.00000  Uiso   1.00
C98    C     0.12065   0.10097   0.25700   0.00000  Uiso   1.00
C99    C     0.18124   0.06239   0.25919   0.00000  Uiso   1.00
C100   C     0.19143   0.01332   0.22362   0.00000  Uiso   1.00
C101   C     0.23233   0.92740   0.17453   0.00000  Uiso   1.00
C102   C     0.08700   0.22236   0.26243   0.00000  Uiso   1.00
C103   C     0.11930   0.28584   0.26917   0.00000  Uiso   1.00
C104   C     0.10117   0.33897   0.23816   0.00000  Uiso   1.00
C105   C     0.08981   0.44151   0.19750   0.00000  Uiso   1.00
C106   C     0.00946   0.13876   0.22510   0.00000  Uiso   1.00
C107   C     0.97952   0.12578   0.27470   0.00000  Uiso   1.00
C108   C     0.91190   0.10608   0.28464   0.00000  Uiso   1.00
C109   C     0.89465   0.09680   0.33236   0.00000  Uiso   1.00
C110   C     0.07197   0.09090   0.22057   0.00000  Uiso   1.00
C111   C     0.08208   0.04188   0.18498   0.00000  Uiso   1.00
C112   C     0.14266   0.00323   0.18712   0.00000  Uiso   1.00
C113   C     0.03831   0.21229   0.22599   0.00000  Uiso   1.00
C114   C     0.02013   0.26532   0.19497   0.00000  Uiso   1.00
C115   C     0.05240   0.32887   0.20166   0.00000  Uiso   1.00
H116   H     0.13699   0.16514   0.32053   0.00000  Uiso   1.00
H117   H     0.04875   0.13440   0.38703   0.00000  Uiso   1.00
H118   H     0.21891   0.07021   0.28738   0.00000  Uiso   1.00
H119   H     0.15697   0.29362   0.29736   0.00000  Uiso   1.00
H120   H     0.92946   0.09584   0.44468   0.00000  Uiso   1.00
H121   H     0.28825   0.96051   0.23456   0.00000  Uiso   1.00
H122   H     0.15765   0.43162   0.25561   0.00000  Uiso   1.00
H123   H     0.97156   0.13091   0.19674   0.00000  Uiso   1.00
H124   H     0.87423   0.09829   0.25644   0.00000  Uiso   1.00
H125   H     0.04440   0.03410   0.15680   0.00000  Uiso   1.00
H126   H     0.98246   0.25751   0.16678   0.00000  Uiso   1.00
H127   H     0.78781   0.06654   0.33870   0.00000  Uiso   1.00
H128   H     0.14661   0.93121   0.12857   0.00000  Uiso   1.00
H129   H     0.01601   0.40231   0.14962   0.00000  Uiso   1.00
O130   O     0.79760   0.06032   0.43320   0.00000  Uiso   1.00
O131   O     0.26834   0.88279   0.15752   0.00000  Uiso   1.00
O132   O     0.09699   0.50086   0.18514   0.00000  Uiso   1.00
N133   N     0.90947   0.09344   0.41155   0.00000  Uiso   1.00
N134   N     0.24492   0.96690   0.21510   0.00000  Uiso   1.00
N135   N     0.12283   0.40734   0.23477   0.00000  Uiso   1.00
N136   N     0.83326   0.07767   0.35452   0.00000  Uiso   1.00
N137   N     0.16871   0.95113   0.15807   0.00000  Uiso   1.00
N138   N     0.04662   0.39157   0.17774   0.00000  Uiso   1.00
C139   C     0.59909   0.65730   0.79217   0.00000  Uiso   1.00
C140   C     0.52820   0.63586   0.81114   0.00000  Uiso   1.00
C141   C     0.51106   0.62660   0.85885   0.00000  Uiso   1.00
C142   C     0.44343   0.60689   0.86886   0.00000  Uiso   1.00
C143   C     0.34077   0.57509   0.90384   0.00000  Uiso   1.00
C144   C     0.62065   0.60097   0.75700   0.00000  Uiso   1.00
C145   C     0.68124   0.56239   0.75919   0.00000  Uiso   1.00
C146   C     0.69143   0.51332   0.72362   0.00000  Uiso   1.00
C147   C     0.73233   0.42740   0.67453   0.00000  Uiso   1.00
C148   C     0.58700   0.72236   0.76243   0.00000  Uiso   1.00
C149   C     0.61930   0.78584   0.76917   0.00000  Uiso   1.00
C150   C     0.60117   0.83897   0.73816   0.00000  Uiso   1.00
C151   C     0.58981   0.94151   0.69750   0.00000  Uiso   1.00
C152   C     0.50946   0.63876   0.72510   0.00000  Uiso   1.00
C153   C     0.47952   0.62578   0.77470   0.00000  Uiso   1.00
C154   C     0.41190   0.60608   0.78464   0.00000  Uiso   1.00
C155   C     0.39465   0.59680   0.83236   0.00000  Uiso   1.00
C156   C     0.57197   0.59090   0.72057   0.00000  Uiso   1.00
C157   C     0.58208   0.54188   0.68498   0.00000  Uiso   1.00
C158   C     0.64266   0.50323   0.68712   0.00000  Uiso   1.00
C159   C     0.53831   0.71229   0.72599   0.00000  Uiso   1.00
C160   C     0.52013   0.76532   0.69497   0.00000  Uiso   1.00
C161   C     0.55240   0.82887   0.70166   0.00000  Uiso   1.00
H162   H     0.63699   0.66514   0.82053   0.00000  Uiso   1.00
H163   H     0.54875   0.63440   0.88703   0.00000  Uiso   1.00
H164   H     0.71891   0.57021   0.78738   0.00000  Uiso   1.00
H165   H     0.65697   0.79362   0.79736   0.00000  Uiso   1.00
H166   H     0.42946   0.59584   0.94468   0.00000  Uiso   1.00
H167   H     0.78825   0.46051   0.73456   0.00000  Uiso   1.00
H168   H     0.65765   0.93162   0.75561   0.00000  Uiso   1.00
H169   H     0.47156   0.63091   0.69674   0.00000  Uiso   1.00
H170   H     0.37423   0.59829   0.75644   0.00000  Uiso   1.00
H171   H     0.54440   0.53410   0.65680   0.00000  Uiso   1.00
H172   H     0.48246   0.75751   0.66678   0.00000  Uiso   1.00
H173   H     0.28781   0.56654   0.83870   0.00000  Uiso   1.00
H174   H     0.64661   0.43121   0.62857   0.00000  Uiso   1.00
H175   H     0.51601   0.90231   0.64962   0.00000  Uiso   1.00
O176   O     0.29760   0.56032   0.93320   0.00000  Uiso   1.00
O177   O     0.76834   0.38279   0.65752   0.00000  Uiso   1.00
O178   O     0.59699   0.00086   0.68514   0.00000  Uiso   1.00
N179   N     0.40947   0.59344   0.91155   0.00000  Uiso   1.00
N180   N     0.74492   0.46690   0.71510   0.00000  Uiso   1.00
N181   N     0.62283   0.90734   0.73477   0.00000  Uiso   1.00
N182   N     0.33326   0.57767   0.85452   0.00000  Uiso   1.00
N183   N     0.66871   0.45113   0.65807   0.00000  Uiso   1.00
N184   N     0.54662   0.89157   0.67774   0.00000  Uiso   1.00
C185   C     0.84270   0.09909   0.70783   0.00000  Uiso   1.00
C186   C     0.86414   0.02820   0.68886   0.00000  Uiso   1.00
C187   C     0.87340   0.01106   0.64115   0.00000  Uiso   1.00
C188   C     0.89311   0.94343   0.63114   0.00000  Uiso   1.00
C189   C     0.92491   0.84077   0.59616   0.00000  Uiso   1.00
C190   C     0.89903   0.12065   0.74300   0.00000  Uiso   1.00
C191   C     0.93761   0.18124   0.74081   0.00000  Uiso   1.00
C192   C     0.98668   0.19143   0.77638   0.00000  Uiso   1.00
C193   C     0.07260   0.23233   0.82547   0.00000  Uiso   1.00
C194   C     0.77764   0.08700   0.73757   0.00000  Uiso   1.00
C195   C     0.71416   0.11930   0.73083   0.00000  Uiso   1.00
C196   C     0.66103   0.10117   0.76184   0.00000  Uiso   1.00
C197   C     0.55849   0.08981   0.80250   0.00000  Uiso   1.00
C198   C     0.86124   0.00946   0.77490   0.00000  Uiso   1.00
C199   C     0.87422   0.97952   0.72530   0.00000  Uiso   1.00
C200   C     0.89392   0.91190   0.71536   0.00000  Uiso   1.00
C201   C     0.90320   0.89465   0.66764   0.00000  Uiso   1.00
C202   C     0.90910   0.07197   0.77943   0.00000  Uiso   1.00
C203   C     0.95812   0.08208   0.81502   0.00000  Uiso   1.00
C204   C     0.99677   0.14266   0.81288   0.00000  Uiso   1.00
C205   C     0.78771   0.03831   0.77401   0.00000  Uiso   1.00
C206   C     0.73468   0.02013   0.80503   0.00000  Uiso   1.00
C207   C     0.67113   0.05240   0.79834   0.00000  Uiso   1.00
H208   H     0.83486   0.13699   0.67947   0.00000  Uiso   1.00
H209   H     0.86560   0.04875   0.61297   0.00000  Uiso   1.00
H210   H     0.92979   0.21891   0.71262   0.00000  Uiso   1.00
H211   H     0.70638   0.15697   0.70264   0.00000  Uiso   1.00
H212   H     0.90416   0.92946   0.55532   0.00000  Uiso   1.00
H213   H     0.03949   0.28825   0.76544   0.00000  Uiso   1.00
H214   H     0.56838   0.15765   0.74439   0.00000  Uiso   1.00
H215   H     0.86909   0.97156   0.80326   0.00000  Uiso   1.00
H216   H     0.90171   0.87423   0.74356   0.00000  Uiso   1.00
H217   H     0.96590   0.04440   0.84320   0.00000  Uiso   1.00
H218   H     0.74249   0.98246   0.83322   0.00000  Uiso   1.00
H219   H     0.93346   0.78781   0.66130   0.00000  Uiso   1.00
H220   H     0.06879   0.14661   0.87143   0.00000  Uiso   1.00
H221   H     0.59769   0.01601   0.85038   0.00000  Uiso   1.00
O222   O     0.93968   0.79760   0.56680   0.00000  Uiso   1.00
O223   O     0.11721   0.26834   0.84248   0.00000  Uiso   1.00
O224   O     0.49914   0.09699   0.81486   0.00000  Uiso   1.00
N225   N     0.90656   0.90947   0.58845   0.00000  Uiso   1.00
N226   N     0.03310   0.24492   0.78490   0.00000  Uiso   1.00
N227   N     0.59266   0.12283   0.76523   0.00000  Uiso   1.00
N228   N     0.92233   0.83326   0.64548   0.00000  Uiso   1.00
N229   N     0.04887   0.16871   0.84193   0.00000  Uiso   1.00
N230   N     0.60843   0.04662   0.82226   0.00000  Uiso   1.00
C231   C     0.34270   0.59909   0.20783   0.00000  Uiso   1.00
C232   C     0.36414   0.52820   0.18886   0.00000  Uiso   1.00
C233   C     0.37340   0.51106   0.14115   0.00000  Uiso   1.00
C234   C     0.39311   0.44343   0.13114   0.00000  Uiso   1.00
C235   C     0.42491   0.34077   0.09616   0.00000  Uiso   1.00
C236   C     0.39903   0.62065   0.24300   0.00000  Uiso   1.00
C237   C     0.43761   0.68124   0.24081   0.00000  Uiso   1.00
C238   C     0.48668   0.69143   0.27638   0.00000  Uiso   1.00
C239   C     0.57260   0.73233   0.32547   0.00000  Uiso   1.00
C240   C     0.27764   0.58700   0.23757   0.00000  Uiso   1.00
C241   C     0.21416   0.61930   0.23083   0.00000  Uiso   1.00
C242   C     0.16103   0.60117   0.26184   0.00000  Uiso   1.00
C243   C     0.05849   0.58981   0.30250   0.00000  Uiso   1.00
C244   C     0.36124   0.50946   0.27490   0.00000  Uiso   1.00
C245   C     0.37422   0.47952   0.22530   0.00000  Uiso   1.00
C246   C     0.39392   0.41190   0.21536   0.00000  Uiso   1.00
C247   C     0.40320   0.39465   0.16764   0.00000  Uiso   1.00
C248   C     0.40910   0.57197   0.27943   0.00000  Uiso   1.00
C249   C     0.45812   0.58208   0.31502   0.00000  Uiso   1.00
C250   C     0.49677   0.64266   0.31288   0.00000  Uiso   1.00
C251   C     0.28771   0.53831   0.27401   0.00000  Uiso   1.00
C252   C     0.23468   0.52013   0.30503   0.00000  Uiso   1.00
C253   C     0.17113   0.55240   0.29834   0.00000  Uiso   1.00
H254   H     0.33486   0.63699   0.17947   0.00000  Uiso   1.00
H255   H     0.36560   0.54875   0.11297   0.00000  Uiso   1.00
H256   H     0.42979   0.71891   0.21262   0.00000  Uiso   1.00
H257   H     0.20638   0.65697   0.20264   0.00000  Uiso   1.00
H258   H     0.40416   0.42946   0.05532   0.00000  Uiso   1.00
H259   H     0.53949   0.78825   0.26544   0.00000  Uiso   1.00
H260   H     0.06838   0.65765   0.24439   0.00000  Uiso   1.00
H261   H     0.36909   0.47156   0.30326   0.00000  Uiso   1.00
H262   H     0.40171   0.37423   0.24356   0.00000  Uiso   1.00
H263   H     0.46590   0.54440   0.34320   0.00000  Uiso   1.00
H264   H     0.24249   0.48246   0.33322   0.00000  Uiso   1.00
H265   H     0.43346   0.28781   0.16130   0.00000  Uiso   1.00
H266   H     0.56879   0.64661   0.37143   0.00000  Uiso   1.00
H267   H     0.09769   0.51601   0.35038   0.00000  Uiso   1.00
O268   O     0.43968   0.29760   0.06680   0.00000  Uiso   1.00
O269   O     0.61721   0.76834   0.34248   0.00000  Uiso   1.00
O270   O     0.99914   0.59699   0.31486   0.00000  Uiso   1.00
N271   N     0.40656   0.40947   0.08845   0.00000  Uiso   1.00
N272   N     0.53310   0.74492   0.28490   0.00000  Uiso   1.00
N273   N     0.09266   0.62283   0.26523   0.00000  Uiso   1.00
N274   N     0.42233   0.33326   0.14548   0.00000  Uiso   1.00
N275   N     0.54887   0.66871   0.34193   0.00000  Uiso   1.00
N276   N     0.10843   0.54662   0.32226   0.00000  Uiso   1.00
C277   C     0.15730   0.90091   0.70783   0.00000  Uiso   1.00
C278   C     0.13586   0.97180   0.68886   0.00000  Uiso   1.00
C279   C     0.12660   0.98894   0.64115   0.00000  Uiso   1.00
C280   C     0.10689   0.05657   0.63114   0.00000  Uiso   1.00
C281   C     0.07509   0.15923   0.59616   0.00000  Uiso   1.00
C282   C     0.10097   0.87935   0.74300   0.00000  Uiso   1.00
C283   C     0.06239   0.81876   0.74081   0.00000  Uiso   1.00
C284   C     0.01332   0.80857   0.77638   0.00000  Uiso   1.00
C285   C     0.92740   0.76767   0.82547   0.00000  Uiso   1.00
C286   C     0.22236   0.91300   0.73757   0.00000  Uiso   1.00
C287   C     0.28584   0.88070   0.73083   0.00000  Uiso   1.00
C288   C     0.33897   0.89883   0.76184   0.00000  Uiso   1.00
C289   C     0.44151   0.91019   0.80250   0.00000  Uiso   1.00
C290   C     0.13876   0.99054   0.77490   0.00000  Uiso   1.00
C291   C     0.12578   0.02048   0.72530   0.00000  Uiso   1.00
C292   C     0.10608   0.08810   0.71536   0.00000  Uiso   1.00
C293   C     0.09680   0.10535   0.66764   0.00000  Uiso   1.00
C294   C     0.09090   0.92803   0.77943   0.00000  Uiso   1.00
C295   C     0.04188   0.91792   0.81502   0.00000  Uiso   1.00
C296   C     0.00323   0.85734   0.81288   0.00000  Uiso   1.00
C297   C     0.21229   0.96169   0.77401   0.00000  Uiso   1.00
C298   C     0.26532   0.97987   0.80503   0.00000  Uiso   1.00
C299   C     0.32887   0.94760   0.79834   0.00000  Uiso   1.00
H300   H     0.16514   0.86301   0.67947   0.00000  Uiso   1.00
H301   H     0.13440   0.95125   0.61297   0.00000  Uiso   1.00
H302   H     0.07021   0.78109   0.71262   0.00000  Uiso   1.00
H303   H     0.29362   0.84303   0.70264   0.00000  Uiso   1.00
H304   H     0.09584   0.07054   0.55532   0.00000  Uiso   1.00
H305   H     0.96051   0.71175   0.76544   0.00000  Uiso   1.00
H306   H     0.43162   0.84235   0.74439   0.00000  Uiso   1.00
H307   H     0.13091   0.02844   0.80326   0.00000  Uiso   1.00
H308   H     0.09829   0.12577   0.74356   0.00000  Uiso   1.00
H309   H     0.03410   0.95560   0.84320   0.00000  Uiso   1.00
H310   H     0.25751   0.01754   0.83322   0.00000  Uiso   1.00
H311   H     0.06654   0.21219   0.66130   0.00000  Uiso   1.00
H312   H     0.93121   0.85339   0.87143   0.00000  Uiso   1.00
H313   H     0.40231   0.98399   0.85038   0.00000  Uiso   1.00
O314   O     0.06032   0.20240   0.56680   0.00000  Uiso   1.00
O315   O     0.88279   0.73166   0.84248   0.00000  Uiso   1.00
O316   O     0.50086   0.90301   0.81486   0.00000  Uiso   1.00
N317   N     0.09344   0.09053   0.58845   0.00000  Uiso   1.00
N318   N     0.96690   0.75508   0.78490   0.00000  Uiso   1.00
N319   N     0.40734   0.87717   0.76523   0.00000  Uiso   1.00
N320   N     0.07767   0.16674   0.64548   0.00000  Uiso   1.00
N321   N     0.95113   0.83129   0.84193   0.00000  Uiso   1.00
N322   N     0.39157   0.95338   0.82226   0.00000  Uiso   1.00
C323   C     0.65730   0.40091   0.20783   0.00000  Uiso   1.00
C324   C     0.63586   0.47180   0.18886   0.00000  Uiso   1.00
C325   C     0.62660   0.48894   0.14115   0.00000  Uiso   1.00
C326   C     0.60689   0.55657   0.13114   0.00000  Uiso   1.00
C327   C     0.57509   0.65923   0.09616   0.00000  Uiso   1.00
C328   C     0.60097   0.37935   0.24300   0.00000  Uiso   1.00
C329   C     0.56239   0.31876   0.24081   0.00000  Uiso   1.00
C330   C     0.51332   0.30857   0.27638   0.00000  Uiso   1.00
C331   C     0.42740   0.26767   0.32547   0.00000  Uiso   1.00
C332   C     0.72236   0.41300   0.23757   0.00000  Uiso   1.00
C333   C     0.78584   0.38070   0.23083   0.00000  Uiso   1.00
C334   C     0.83897   0.39883   0.26184   0.00000  Uiso   1.00
C335   C     0.94151   0.41019   0.30250   0.00000  Uiso   1.00
C336   C     0.63876   0.49054   0.27490   0.00000  Uiso   1.00
C337   C     0.62578   0.52048   0.22530   0.00000  Uiso   1.00
C338   C     0.60608   0.58810   0.21536   0.00000  Uiso   1.00
C339   C     0.59680   0.60535   0.16764   0.00000  Uiso   1.00
C340   C     0.59090   0.42803   0.27943   0.00000  Uiso   1.00
C341   C     0.54188   0.41792   0.31502   0.00000  Uiso   1.00
C342   C     0.50323   0.35734   0.31288   0.00000  Uiso   1.00
C343   C     0.71229   0.46169   0.27401   0.00000  Uiso   1.00
C344   C     0.76532   0.47987   0.30503   0.00000  Uiso   1.00
C345   C     0.82887   0.44760   0.29834   0.00000  Uiso   1.00
H346   H     0.66514   0.36301   0.17947   0.00000  Uiso   1.00
H347   H     0.63440   0.45125   0.11297   0.00000  Uiso   1.00
H348   H     0.57021   0.28109   0.21262   0.00000  Uiso   1.00
H349   H     0.79362   0.34303   0.20264   0.00000  Uiso   1.00
H350   H     0.59584   0.57054   0.05532   0.00000  Uiso   1.00
H351   H     0.46051   0.21175   0.26544   0.00000  Uiso   1.00
H352   H     0.93162   0.34235   0.24439   0.00000  Uiso   1.00
H353   H     0.63091   0.52844   0.30326   0.00000  Uiso   1.00
H354   H     0.59829   0.62577   0.24356   0.00000  Uiso   1.00
H355   H     0.53410   0.45560   0.34320   0.00000  Uiso   1.00
H356   H     0.75751   0.51754   0.33322   0.00000  Uiso   1.00
H357   H     0.56654   0.71219   0.16130   0.00000  Uiso   1.00
H358   H     0.43121   0.35339   0.37143   0.00000  Uiso   1.00
H359   H     0.90231   0.48399   0.35038   0.00000  Uiso   1.00
O360   O     0.56032   0.70240   0.06680   0.00000  Uiso   1.00
O361   O     0.38279   0.23166   0.34248   0.00000  Uiso   1.00
O362   O     0.00086   0.40301   0.31486   0.00000  Uiso   1.00
N363   N     0.59344   0.59053   0.08845   0.00000  Uiso   1.00
N364   N     0.46690   0.25508   0.28490   0.00000  Uiso   1.00
N365   N     0.90734   0.37717   0.26523   0.00000  Uiso   1.00
N366   N     0.57767   0.66674   0.14548   0.00000  Uiso   1.00
N367   N     0.45113   0.33129   0.34193   0.00000  Uiso   1.00
N368   N     0.89157   0.45338   0.32226   0.00000  Uiso   1.00
C369   C     0.59909   0.84270   0.45783   0.00000  Uiso   1.00
C370   C     0.52820   0.86414   0.43886   0.00000  Uiso   1.00
C371   C     0.51106   0.87340   0.39115   0.00000  Uiso   1.00
C372   C     0.44343   0.89311   0.38114   0.00000  Uiso   1.00
C373   C     0.34077   0.92491   0.34616   0.00000  Uiso   1.00
C374   C     0.62065   0.89903   0.49300   0.00000  Uiso   1.00
C375   C     0.68124   0.93761   0.49081   0.00000  Uiso   1.00
C376   C     0.69143   0.98668   0.52638   0.00000  Uiso   1.00
C377   C     0.73233   0.07260   0.57547   0.00000  Uiso   1.00
C378   C     0.58700   0.77764   0.48757   0.00000  Uiso   1.00
C379   C     0.61930   0.71416   0.48083   0.00000  Uiso   1.00
C380   C     0.60117   0.66103   0.51184   0.00000  Uiso   1.00
C381   C     0.58981   0.55849   0.55250   0.00000  Uiso   1.00
C382   C     0.50946   0.86124   0.52490   0.00000  Uiso   1.00
C383   C     0.47952   0.87422   0.47530   0.00000  Uiso   1.00
C384   C     0.41190   0.89392   0.46536   0.00000  Uiso   1.00
C385   C     0.39465   0.90320   0.41764   0.00000  Uiso   1.00
C386   C     0.57197   0.90910   0.52943   0.00000  Uiso   1.00
C387   C     0.58208   0.95812   0.56502   0.00000  Uiso   1.00
C388   C     0.64266   0.99677   0.56288   0.00000  Uiso   1.00
C389   C     0.53831   0.78771   0.52401   0.00000  Uiso   1.00
C390   C     0.52013   0.73468   0.55503   0.00000  Uiso   1.00
C391   C     0.55240   0.67113   0.54834   0.00000  Uiso   1.00
H392   H     0.63699   0.83486   0.42947   0.00000  Uiso   1.00
H393   H     0.54875   0.86560   0.36297   0.00000  Uiso   1.00
H394   H     0.71891   0.92979   0.46262   0.00000  Uiso   1.00
H395   H     0.65697   0.70638   0.45264   0.00000  Uiso   1.00
H396   H     0.42946   0.90416   0.30532   0.00000  Uiso   1.00
H397   H     0.78825   0.03949   0.51544   0.00000  Uiso   1.00
H398   H     0.65765   0.56838   0.49439   0.00000  Uiso   1.00
H399   H     0.47156   0.86909   0.55326   0.00000  Uiso   1.00
H400   H     0.37423   0.90171   0.49356   0.00000  Uiso   1.00
H401   H     0.54440   0.96590   0.59320   0.00000  Uiso   1.00
H402   H     0.48246   0.74249   0.58322   0.00000  Uiso   1.00
H403   H     0.28781   0.93346   0.41130   0.00000  Uiso   1.00
H404   H     0.64661   0.06879   0.62143   0.00000  Uiso   1.00
H405   H     0.51601   0.59769   0.60038   0.00000  Uiso   1.00
O406   O     0.29760   0.93968   0.31680   0.00000  Uiso   1.00
O407   O     0.76834   0.11721   0.59248   0.00000  Uiso   1.00
O408   O     0.59699   0.49914   0.56486   0.00000  Uiso   1.00
N409   N     0.40947   0.90656   0.33845   0.00000  Uiso   1.00
N410   N     0.74492   0.03310   0.53490   0.00000  Uiso   1.00
N411   N     0.62283   0.59266   0.51523   0.00000  Uiso   1.00
N412   N     0.33326   0.92233   0.39548   0.00000  Uiso   1.00
N413   N     0.66871   0.04887   0.59193   0.00000  Uiso   1.00
N414   N     0.54662   0.60843   0.57226   0.00000  Uiso   1.00
C415   C     0.09909   0.34270   0.95783   0.00000  Uiso   1.00
C416   C     0.02820   0.36414   0.93886   0.00000  Uiso   1.00
C417   C     0.01106   0.37340   0.89115   0.00000  Uiso   1.00
C418   C     0.94343   0.39311   0.88114   0.00000  Uiso   1.00
C419   C     0.84077   0.42491   0.84616   0.00000  Uiso   1.00
C420   C     0.12065   0.39903   0.99300   0.00000  Uiso   1.00
C421   C     0.18124   0.43761   0.99081   0.00000  Uiso   1.00
C422   C     0.19143   0.48668   0.02638   0.00000  Uiso   1.00
C423   C     0.23233   0.57260   0.07547   0.00000  Uiso   1.00
C424   C     0.08700   0.27764   0.98757   0.00000  Uiso   1.00
C425   C     0.11930   0.21416   0.98083   0.00000  Uiso   1.00
C426   C     0.10117   0.16103   0.01184   0.00000  Uiso   1.00
C427   C     0.08981   0.05849   0.05250   0.00000  Uiso   1.00
C428   C     0.00946   0.36124   0.02490   0.00000  Uiso   1.00
C429   C     0.97952   0.37422   0.97530   0.00000  Uiso   1.00
C430   C     0.91190   0.39392   0.96536   0.00000  Uiso   1.00
C431   C     0.89465   0.40320   0.91764   0.00000  Uiso   1.00
C432   C     0.07197   0.40910   0.02943   0.00000  Uiso   1.00
C433   C     0.08208   0.45812   0.06502   0.00000  Uiso   1.00
C434   C     0.14266   0.49677   0.06288   0.00000  Uiso   1.00
C435   C     0.03831   0.28771   0.02401   0.00000  Uiso   1.00
C436   C     0.02013   0.23468   0.05503   0.00000  Uiso   1.00
C437   C     0.05240   0.17113   0.04834   0.00000  Uiso   1.00
H438   H     0.13699   0.33486   0.92947   0.00000  Uiso   1.00
H439   H     0.04875   0.36560   0.86297   0.00000  Uiso   1.00
H440   H     0.21891   0.42979   0.96262   0.00000  Uiso   1.00
H441   H     0.15697   0.20638   0.95264   0.00000  Uiso   1.00
H442   H     0.92946   0.40416   0.80532   0.00000  Uiso   1.00
H443   H     0.28825   0.53949   0.01544   0.00000  Uiso   1.00
H444   H     0.15765   0.06838   0.99439   0.00000  Uiso   1.00
H445   H     0.97156   0.36909   0.05326   0.00000  Uiso   1.00
H446   H     0.87423   0.40171   0.99356   0.00000  Uiso   1.00
H447   H     0.04440   0.46590   0.09320   0.00000  Uiso   1.00
H448   H     0.98246   0.24249   0.08322   0.00000  Uiso   1.00
H449   H     0.78781   0.43346   0.91130   0.00000  Uiso   1.00
H450   H     0.14661   0.56879   0.12143   0.00000  Uiso   1.00
H451   H     0.01601   0.09769   0.10038   0.00000  Uiso   1.00
O452   O     0.79760   0.43968   0.81680   0.00000  Uiso   1.00
O453   O     0.26834   0.61721   0.09248   0.00000  Uiso   1.00
O454   O     0.09699   0.99914   0.06486   0.00000  Uiso   1.00
N455   N     0.90947   0.40656   0.83845   0.00000  Uiso   1.00
N456   N     0.24492   0.53310   0.03490   0.00000  Uiso   1.00
N457   N     0.12283   0.09266   0.01523   0.00000  Uiso   1.00
N458   N     0.83326   0.42233   0.89548   0.00000  Uiso   1.00
N459   N     0.16871   0.54887   0.09193   0.00000  Uiso   1.00
N460   N     0.04662   0.10843   0.07226   0.00000  Uiso   1.00
C461   C     0.40091   0.15730   0.45783   0.00000  Uiso   1.00
C462   C     0.47180   0.13586   0.43886   0.00000  Uiso   1.00
C463   C     0.48894   0.12660   0.39115   0.00000  Uiso   1.00
C464   C     0.55657   0.10689   0.38114   0.00000  Uiso   1.00
C465   C     0.65923   0.07509   0.34616   0.00000  Uiso   1.00
C466   C     0.37935   0.10097   0.49300   0.00000  Uiso   1.00
C467   C     0.31876   0.06239   0.49081   0.00000  Uiso   1.00
C468   C     0.30857   0.01332   0.52638   0.00000  Uiso   1.00
C469   C     0.26767   0.92740   0.57547   0.00000  Uiso   1.00
C470   C     0.41300   0.22236   0.48757   0.00000  Uiso   1.00
C471   C     0.38070   0.28584   0.48083   0.00000  Uiso   1.00
C472   C     0.39883   0.33897   0.51184   0.00000  Uiso   1.00
C473   C     0.41019   0.44151   0.55250   0.00000  Uiso   1.00
C474   C     0.49054   0.13876   0.52490   0.00000  Uiso   1.00
C475   C     0.52048   0.12578   0.47530   0.00000  Uiso   1.00
C476   C     0.58810   0.10608   0.46536   0.00000  Uiso   1.00
C477   C     0.60535   0.09680   0.41764   0.00000  Uiso   1.00
C478   C     0.42803   0.09090   0.52943   0.00000  Uiso   1.00
C479   C     0.41792   0.04188   0.56502   0.00000  Uiso   1.00
C480   C     0.35734   0.00323   0.56288   0.00000  Uiso   1.00
C481   C     0.46169   0.21229   0.52401   0.00000  Uiso   1.00
C482   C     0.47987   0.26532   0.55503   0.00000  Uiso   1.00
C483   C     0.44760   0.32887   0.54834   0.00000  Uiso   1.00
H484   H     0.36301   0.16514   0.42947   0.00000  Uiso   1.00
H485   H     0.45125   0.13440   0.36297   0.00000  Uiso   1.00
H486   H     0.28109   0.07021   0.46262   0.00000  Uiso   1.00
H487   H     0.34303   0.29362   0.45264   0.00000  Uiso   1.00
H488   H     0.57054   0.09584   0.30532   0.00000  Uiso   1.00
H489   H     0.21175   0.96051   0.51544   0.00000  Uiso   1.00
H490   H     0.34235   0.43162   0.49439   0.00000  Uiso   1.00
H491   H     0.52844   0.13091   0.55326   0.00000  Uiso   1.00
H492   H     0.62577   0.09829   0.49356   0.00000  Uiso   1.00
H493   H     0.45560   0.03410   0.59320   0.00000  Uiso   1.00
H494   H     0.51754   0.25751   0.58322   0.00000  Uiso   1.00
H495   H     0.71219   0.06654   0.41130   0.00000  Uiso   1.00
H496   H     0.35339   0.93121   0.62143   0.00000  Uiso   1.00
H497   H     0.48399   0.40231   0.60038   0.00000  Uiso   1.00
O498   O     0.70240   0.06032   0.31680   0.00000  Uiso   1.00
O499   O     0.23166   0.88279   0.59248   0.00000  Uiso   1.00
O500   O     0.40301   0.50086   0.56486   0.00000  Uiso   1.00
N501   N     0.59053   0.09344   0.33845   0.00000  Uiso   1.00
N502   N     0.25508   0.96690   0.53490   0.00000  Uiso   1.00
N503   N     0.37717   0.40734   0.51523   0.00000  Uiso   1.00
N504   N     0.66674   0.07767   0.39548   0.00000  Uiso   1.00
N505   N     0.33129   0.95113   0.59193   0.00000  Uiso   1.00
N506   N     0.45338   0.39157   0.57226   0.00000  Uiso   1.00
C507   C     0.90091   0.65730   0.95783   0.00000  Uiso   1.00
C508   C     0.97180   0.63586   0.93886   0.00000  Uiso   1.00
C509   C     0.98894   0.62660   0.89115   0.00000  Uiso   1.00
C510   C     0.05657   0.60689   0.88114   0.00000  Uiso   1.00
C511   C     0.15923   0.57509   0.84616   0.00000  Uiso   1.00
C512   C     0.87935   0.60097   0.99300   0.00000  Uiso   1.00
C513   C     0.81876   0.56239   0.99081   0.00000  Uiso   1.00
C514   C     0.80857   0.51332   0.02638   0.00000  Uiso   1.00
C515   C     0.76767   0.42740   0.07547   0.00000  Uiso   1.00
C516   C     0.91300   0.72236   0.98757   0.00000  Uiso   1.00
C517   C     0.88070   0.78584   0.98083   0.00000  Uiso   1.00
C518   C     0.89883   0.83897   0.01184   0.00000  Uiso   1.00
C519   C     0.91019   0.94151   0.05250   0.00000  Uiso   1.00
C520   C     0.99054   0.63876   0.02490   0.00000  Uiso   1.00
C521   C     0.02048   0.62578   0.97530   0.00000  Uiso   1.00
C522   C     0.08810   0.60608   0.96536   0.00000  Uiso   1.00
C523   C     0.10535   0.59680   0.91764   0.00000  Uiso   1.00
C524   C     0.92803   0.59090   0.02943   0.00000  Uiso   1.00
C525   C     0.91792   0.54188   0.06502   0.00000  Uiso   1.00
C526   C     0.85734   0.50323   0.06288   0.00000  Uiso   1.00
C527   C     0.96169   0.71229   0.02401   0.00000  Uiso   1.00
C528   C     0.97987   0.76532   0.05503   0.00000  Uiso   1.00
C529   C     0.94760   0.82887   0.04834   0.00000  Uiso   1.00
H530   H     0.86301   0.66514   0.92947   0.00000  Uiso   1.00
H531   H     0.95125   0.63440   0.86297   0.00000  Uiso   1.00
H532   H     0.78109   0.57021   0.96262   0.00000  Uiso   1.00
H533   H     0.84303   0.79362   0.95264   0.00000  Uiso   1.00
H534   H     0.07054   0.59584   0.80532   0.00000  Uiso   1.00
H535   H     0.71175   0.46051   0.01544   0.00000  Uiso   1.00
H536   H     0.84235   0.93162   0.99439   0.00000  Uiso   1.00
H537   H     0.02844   0.63091   0.05326   0.00000  Uiso   1.00
H538   H     0.12577   0.59829   0.99356   0.00000  Uiso   1.00
H539   H     0.95560   0.53410   0.09320   0.00000  Uiso   1.00
H540   H     0.01754   0.75751   0.08322   0.00000  Uiso   1.00
H541   H     0.21219   0.56654   0.91130   0.00000  Uiso   1.00
H542   H     0.85339   0.43121   0.12143   0.00000  Uiso   1.00
H543   H     0.98399   0.90231   0.10038   0.00000  Uiso   1.00
O544   O     0.20240   0.56032   0.81680   0.00000  Uiso   1.00
O545   O     0.73166   0.38279   0.09248   0.00000  Uiso   1.00
O546   O     0.90301   0.00086   0.06486   0.00000  Uiso   1.00
N547   N     0.09053   0.59344   0.83845   0.00000  Uiso   1.00
N548   N     0.75508   0.46690   0.03490   0.00000  Uiso   1.00
N549   N     0.87717   0.90734   0.01523   0.00000  Uiso   1.00
N550   N     0.16674   0.57767   0.89548   0.00000  Uiso   1.00
N551   N     0.83129   0.45113   0.09193   0.00000  Uiso   1.00
N552   N     0.95338   0.89157   0.07226   0.00000  Uiso   1.00
C553   C     0.65730   0.09909   0.04217   0.00000  Uiso   1.00
C554   C     0.63586   0.02820   0.06114   0.00000  Uiso   1.00
C555   C     0.62660   0.01106   0.10885   0.00000  Uiso   1.00
C556   C     0.60689   0.94343   0.11886   0.00000  Uiso   1.00
C557   C     0.57509   0.84077   0.15384   0.00000  Uiso   1.00
C558   C     0.60097   0.12065   0.00700   0.00000  Uiso   1.00
C559   C     0.56239   0.18124   0.00919   0.00000  Uiso   1.00
C560   C     0.51332   0.19143   0.97362   0.00000  Uiso   1.00
C561   C     0.42740   0.23233   0.92453   0.00000  Uiso   1.00
C562   C     0.72236   0.08700   0.01243   0.00000  Uiso   1.00
C563   C     0.78584   0.11930   0.01917   0.00000  Uiso   1.00
C564   C     0.83897   0.10117   0.98816   0.00000  Uiso   1.00
C565   C     0.94151   0.08981   0.94750   0.00000  Uiso   1.00
C566   C     0.63876   0.00946   0.97510   0.00000  Uiso   1.00
C567   C     0.62578   0.97952   0.02470   0.00000  Uiso   1.00
C568   C     0.60608   0.91190   0.03464   0.00000  Uiso   1.00
C569   C     0.59680   0.89465   0.08236   0.00000  Uiso   1.00
C570   C     0.59090   0.07197   0.97057   0.00000  Uiso   1.00
C571   C     0.54188   0.08208   0.93498   0.00000  Uiso   1.00
C572   C     0.50323   0.14266   0.93712   0.00000  Uiso   1.00
C573   C     0.71229   0.03831   0.97599   0.00000  Uiso   1.00
C574   C     0.76532   0.02013   0.94497   0.00000  Uiso   1.00
C575   C     0.82887   0.05240   0.95166   0.00000  Uiso   1.00
H576   H     0.66514   0.13699   0.07053   0.00000  Uiso   1.00
H577   H     0.63440   0.04875   0.13703   0.00000  Uiso   1.00
H578   H     0.57021   0.21891   0.03738   0.00000  Uiso   1.00
H579   H     0.79362   0.15697   0.04736   0.00000  Uiso   1.00
H580   H     0.59584   0.92946   0.19468   0.00000  Uiso   1.00
H581   H     0.46051   0.28825   0.98456   0.00000  Uiso   1.00
H582   H     0.93162   0.15765   0.00561   0.00000  Uiso   1.00
H583   H     0.63091   0.97156   0.94674   0.00000  Uiso   1.00
H584   H     0.59829   0.87423   0.00644   0.00000  Uiso   1.00
H585   H     0.53410   0.04440   0.90680   0.00000  Uiso   1.00
H586   H     0.75751   0.98246   0.91678   0.00000  Uiso   1.00
H587   H     0.56654   0.78781   0.08870   0.00000  Uiso   1.00
H588   H     0.43121   0.14661   0.87857   0.00000  Uiso   1.00
H589   H     0.90231   0.01601   0.89962   0.00000  Uiso   1.00
O590   O     0.56032   0.79760   0.18320   0.00000  Uiso   1.00
O591   O     0.38279   0.26834   0.90752   0.00000  Uiso   1.00
O592   O     0.00086   0.09699   0.93514   0.00000  Uiso   1.00
N593   N     0.59344   0.90947   0.16155   0.00000  Uiso   1.00
N594   N     0.46690   0.24492   0.96510   0.00000  Uiso   1.00
N595   N     0.90734   0.12283   0.98477   0.00000  Uiso   1.00
N596   N     0.57767   0.83326   0.10452   0.00000  Uiso   1.00
N597   N     0.45113   0.16871   0.90807   0.00000  Uiso   1.00
N598   N     0.89157   0.04662   0.92774   0.00000  Uiso   1.00
C599   C     0.15730   0.59909   0.54217   0.00000  Uiso   1.00
C600   C     0.13586   0.52820   0.56114   0.00000  Uiso   1.00
C601   C     0.12660   0.51106   0.60885   0.00000  Uiso   1.00
C602   C     0.10689   0.44343   0.61886   0.00000  Uiso   1.00
C603   C     0.07509   0.34077   0.65384   0.00000  Uiso   1.00
C604   C     0.10097   0.62065   0.50700   0.00000  Uiso   1.00
C605   C     0.06239   0.68124   0.50919   0.00000  Uiso   1.00
C606   C     0.01332   0.69143   0.47362   0.00000  Uiso   1.00
C607   C     0.92740   0.73233   0.42453   0.00000  Uiso   1.00
C608   C     0.22236   0.58700   0.51243   0.00000  Uiso   1.00
C609   C     0.28584   0.61930   0.51917   0.00000  Uiso   1.00
C610   C     0.33897   0.60117   0.48816   0.00000  Uiso   1.00
C611   C     0.44151   0.58981   0.44750   0.00000  Uiso   1.00
C612   C     0.13876   0.50946   0.47510   0.00000  Uiso   1.00
C613   C     0.12578   0.47952   0.52470   0.00000  Uiso   1.00
C614   C     0.10608   0.41190   0.53464   0.00000  Uiso   1.00
C615   C     0.09680   0.39465   0.58236   0.00000  Uiso   1.00
C616   C     0.09090   0.57197   0.47057   0.00000  Uiso   1.00
C617   C     0.04188   0.58208   0.43498   0.00000  Uiso   1.00
C618   C     0.00323   0.64266   0.43712   0.00000  Uiso   1.00
C619   C     0.21229   0.53831   0.47599   0.00000  Uiso   1.00
C620   C     0.26532   0.52013   0.44497   0.00000  Uiso   1.00
C621   C     0.32887   0.55240   0.45166   0.00000  Uiso   1.00
H622   H     0.16514   0.63699   0.57053   0.00000  Uiso   1.00
H623   H     0.13440   0.54875   0.63703   0.00000  Uiso   1.00
H624   H     0.07021   0.71891   0.53738   0.00000  Uiso   1.00
H625   H     0.29362   0.65697   0.54736   0.00000  Uiso   1.00
H626   H     0.09584   0.42946   0.69468   0.00000  Uiso   1.00
H627   H     0.96051   0.78825   0.48456   0.00000  Uiso   1.00
H628   H     0.43162   0.65765   0.50561   0.00000  Uiso   1.00
H629   H     0.13091   0.47156   0.44674   0.00000  Uiso   1.00
H630   H     0.09829   0.37423   0.50644   0.00000  Uiso   1.00
H631   H     0.03410   0.54440   0.40680   0.00000  Uiso   1.00
H632   H     0.25751   0.48246   0.41678   0.00000  Uiso   1.00
H633   H     0.06654   0.28781   0.58870   0.00000  Uiso   1.00
H634   H     0.93121   0.64661   0.37857   0.00000  Uiso   1.00
H635   H     0.40231   0.51601   0.39962   0.00000  Uiso   1.00
O636   O     0.06032   0.29760   0.68320   0.00000  Uiso   1.00
O637   O     0.88279   0.76834   0.40752   0.00000  Uiso   1.00
O638   O     0.50086   0.59699   0.43514   0.00000  Uiso   1.00
N639   N     0.09344   0.40947   0.66155   0.00000  Uiso   1.00
N640   N     0.96690   0.74492   0.46510   0.00000  Uiso   1.00
N641   N     0.40734   0.62283   0.48477   0.00000  Uiso   1.00
N642   N     0.07767   0.33326   0.60452   0.00000  Uiso   1.00
N643   N     0.95113   0.66871   0.40807   0.00000  Uiso   1.00
N644   N     0.39157   0.54662   0.42774   0.00000  Uiso   1.00
C645   C     0.34270   0.90091   0.04217   0.00000  Uiso   1.00
C646   C     0.36414   0.97180   0.06114   0.00000  Uiso   1.00
C647   C     0.37340   0.98894   0.10885   0.00000  Uiso   1.00
C648   C     0.39311   0.05657   0.11886   0.00000  Uiso   1.00
C649   C     0.42491   0.15923   0.15384   0.00000  Uiso   1.00
C650   C     0.39903   0.87935   0.00700   0.00000  Uiso   1.00
C651   C     0.43761   0.81876   0.00919   0.00000  Uiso   1.00
C652   C     0.48668   0.80857   0.97362   0.00000  Uiso   1.00
C653   C     0.57260   0.76767   0.92453   0.00000  Uiso   1.00
C654   C     0.27764   0.91300   0.01243   0.00000  Uiso   1.00
C655   C     0.21416   0.88070   0.01917   0.00000  Uiso   1.00
C656   C     0.16103   0.89883   0.98816   0.00000  Uiso   1.00
C657   C     0.05849   0.91019   0.94750   0.00000  Uiso   1.00
C658   C     0.36124   0.99054   0.97510   0.00000  Uiso   1.00
C659   C     0.37422   0.02048   0.02470   0.00000  Uiso   1.00
C660   C     0.39392   0.08810   0.03464   0.00000  Uiso   1.00
C661   C     0.40320   0.10535   0.08236   0.00000  Uiso   1.00
C662   C     0.40910   0.92803   0.97057   0.00000  Uiso   1.00
C663   C     0.45812   0.91792   0.93498   0.00000  Uiso   1.00
C664   C     0.49677   0.85734   0.93712   0.00000  Uiso   1.00
C665   C     0.28771   0.96169   0.97599   0.00000  Uiso   1.00
C666   C     0.23468   0.97987   0.94497   0.00000  Uiso   1.00
C667   C     0.17113   0.94760   0.95166   0.00000  Uiso   1.00
H668   H     0.33486   0.86301   0.07053   0.00000  Uiso   1.00
H669   H     0.36560   0.95125   0.13703   0.00000  Uiso   1.00
H670   H     0.42979   0.78109   0.03738   0.00000  Uiso   1.00
H671   H     0.20638   0.84303   0.04736   0.00000  Uiso   1.00
H672   H     0.40416   0.07054   0.19468   0.00000  Uiso   1.00
H673   H     0.53949   0.71175   0.98456   0.00000  Uiso   1.00
H674   H     0.06838   0.84235   0.00561   0.00000  Uiso   1.00
H675   H     0.36909   0.02844   0.94674   0.00000  Uiso   1.00
H676   H     0.40171   0.12577   0.00644   0.00000  Uiso   1.00
H677   H     0.46590   0.95560   0.90680   0.00000  Uiso   1.00
H678   H     0.24249   0.01754   0.91678   0.00000  Uiso   1.00
H679   H     0.43346   0.21219   0.08870   0.00000  Uiso   1.00
H680   H     0.56879   0.85339   0.87857   0.00000  Uiso   1.00
H681   H     0.09769   0.98399   0.89962   0.00000  Uiso   1.00
O682   O     0.43968   0.20240   0.18320   0.00000  Uiso   1.00
O683   O     0.61721   0.73166   0.90752   0.00000  Uiso   1.00
O684   O     0.99914   0.90301   0.93514   0.00000  Uiso   1.00
N685   N     0.40656   0.09053   0.16155   0.00000  Uiso   1.00
N686   N     0.53310   0.75508   0.96510   0.00000  Uiso   1.00
N687   N     0.09266   0.87717   0.98477   0.00000  Uiso   1.00
N688   N     0.42233   0.16674   0.10452   0.00000  Uiso   1.00
N689   N     0.54887   0.83129   0.90807   0.00000  Uiso   1.00
N690   N     0.10843   0.95338   0.92774   0.00000  Uiso   1.00
C691   C     0.84270   0.40091   0.54217   0.00000  Uiso   1.00
C692   C     0.86414   0.47180   0.56114   0.00000  Uiso   1.00
C693   C     0.87340   0.48894   0.60885   0.00000  Uiso   1.00
C694   C     0.89311   0.55657   0.61886   0.00000  Uiso   1.00
C695   C     0.92491   0.65923   0.65384   0.00000  Uiso   1.00
C696   C     0.89903   0.37935   0.50700   0.00000  Uiso   1.00
C697   C     0.93761   0.31876   0.50919   0.00000  Uiso   1.00
C698   C     0.98668   0.30857   0.47362   0.00000  Uiso   1.00
C699   C     0.07260   0.26767   0.42453   0.00000  Uiso   1.00
C700   C     0.77764   0.41300   0.51243   0.00000  Uiso   1.00
C701   C     0.71416   0.38070   0.51917   0.00000  Uiso   1.00
C702   C     0.66103   0.39883   0.48816   0.00000  Uiso   1.00
C703   C     0.55849   0.41019   0.44750   0.00000  Uiso   1.00
C704   C     0.86124   0.49054   0.47510   0.00000  Uiso   1.00
C705   C     0.87422   0.52048   0.52470   0.00000  Uiso   1.00
C706   C     0.89392   0.58810   0.53464   0.00000  Uiso   1.00
C707   C     0.90320   0.60535   0.58236   0.00000  Uiso   1.00
C708   C     0.90910   0.42803   0.47057   0.00000  Uiso   1.00
C709   C     0.95812   0.41792   0.43498   0.00000  Uiso   1.00
C710   C     0.99677   0.35734   0.43712   0.00000  Uiso   1.00
C711   C     0.78771   0.46169   0.47599   0.00000  Uiso   1.00
C712   C     0.73468   0.47987   0.44497   0.00000  Uiso   1.00
C713   C     0.67113   0.44760   0.45166   0.00000  Uiso   1.00
H714   H     0.83486   0.36301   0.57053   0.00000  Uiso   1.00
H715   H     0.86560   0.45125   0.63703   0.00000  Uiso   1.00
H716   H     0.92979   0.28109   0.53738   0.00000  Uiso   1.00
H717   H     0.70638   0.34303   0.54736   0.00000  Uiso   1.00
H718   H     0.90416   0.57054   0.69468   0.00000  Uiso   1.00
H719   H     0.03949   0.21175   0.48456   0.00000  Uiso   1.00
H720   H     0.56838   0.34235   0.50561   0.00000  Uiso   1.00
H721   H     0.86909   0.52844   0.44674   0.00000  Uiso   1.00
H722   H     0.90171   0.62577   0.50644   0.00000  Uiso   1.00
H723   H     0.96590   0.45560   0.40680   0.00000  Uiso   1.00
H724   H     0.74249   0.51754   0.41678   0.00000  Uiso   1.00
H725   H     0.93346   0.71219   0.58870   0.00000  Uiso   1.00
H726   H     0.06879   0.35339   0.37857   0.00000  Uiso   1.00
H727   H     0.59769   0.48399   0.39962   0.00000  Uiso   1.00
O728   O     0.93968   0.70240   0.68320   0.00000  Uiso   1.00
O729   O     0.11721   0.23166   0.40752   0.00000  Uiso   1.00
O730   O     0.49914   0.40301   0.43514   0.00000  Uiso   1.00
N731   N     0.90656   0.59053   0.66155   0.00000  Uiso   1.00
N732   N     0.03310   0.25508   0.46510   0.00000  Uiso   1.00
N733   N     0.59266   0.37717   0.48477   0.00000  Uiso   1.00
N734   N     0.92233   0.66674   0.60452   0.00000  Uiso   1.00
N735   N     0.04887   0.33129   0.40807   0.00000  Uiso   1.00
N736   N     0.60843   0.45338   0.42774   0.00000  Uiso   1.00
