data_job_01845
_audit_creation_date              2018-12-19
_audit_creation_method            'Materials Studio'
_symmetry_space_group_name_H-M    'P1'
_symmetry_Int_Tables_number       1
_symmetry_cell_setting            triclinic
loop_
_symmetry_equiv_pos_as_xyz
  x,y,z
_cell_length_a                    17.2041
_cell_length_b                    17.2041
_cell_length_c                    40.1638
_cell_angle_alpha                 90.0000
_cell_angle_beta                  90.0000
_cell_angle_gamma                 90.0000
loop_
_atom_site_label
_atom_site_type_symbol
_atom_site_fract_x
_atom_site_fract_y
_atom_site_fract_z
_atom_site_U_iso_or_equiv
_atom_site_adp_type
_atom_site_occupancy
C1     C     0.74250   0.72328   0.93698   0.00000  Uiso   1.00
C2     C     0.72096   0.80575   0.92656   0.00000  Uiso   1.00
C3     C     0.65354   0.82737   0.91001   0.00000  Uiso   1.00
C4     C     0.64465   0.90574   0.90269   0.00000  Uiso   1.00
C5     C     0.60261   0.02546   0.88514   0.00000  Uiso   1.00
C6     C     0.82140   0.70671   0.92120   0.00000  Uiso   1.00
C7     C     0.83843   0.64506   0.90014   0.00000  Uiso   1.00
C8     C     0.91410   0.64005   0.88831   0.00000  Uiso   1.00
C9     C     0.02801   0.60599   0.86246   0.00000  Uiso   1.00
C10    C     0.75650   0.72640   0.97444   0.00000  Uiso   1.00
C11    C     0.71898   0.68130   0.99816   0.00000  Uiso   1.00
C12    C     0.74002   0.69287   0.03116   0.00000  Uiso   1.00
C13    C     0.75317   0.68938   0.08798   0.00000  Uiso   1.00
C14    C     0.84662   0.82401   0.95342   0.00000  Uiso   1.00
C15    C     0.77751   0.86046   0.93549   0.00000  Uiso   1.00
C16    C     0.76872   0.93882   0.92820   0.00000  Uiso   1.00
C17    C     0.70130   0.96055   0.91164   0.00000  Uiso   1.00
C18    C     0.87795   0.76142   0.93013   0.00000  Uiso   1.00
C19    C     0.95361   0.75650   0.91833   0.00000  Uiso   1.00
C20    C     0.97075   0.69486   0.89726   0.00000  Uiso   1.00
C21    C     0.81305   0.78112   0.98338   0.00000  Uiso   1.00
C22    C     0.83416   0.79275   0.01635   0.00000  Uiso   1.00
C23    C     0.79667   0.74768   0.04011   0.00000  Uiso   1.00
H24    H     0.69848   0.68068   0.93002   0.00000  Uiso   1.00
H25    H     0.60979   0.78501   0.90310   0.00000  Uiso   1.00
H26    H     0.79465   0.60272   0.89323   0.00000  Uiso   1.00
H27    H     0.67522   0.63897   0.99124   0.00000  Uiso   1.00
H28    H     0.53641   0.92480   0.87717   0.00000  Uiso   1.00
H29    H     0.92621   0.54043   0.85638   0.00000  Uiso   1.00
H30    H     0.67436   0.61685   0.06304   0.00000  Uiso   1.00
H31    H     0.89065   0.86660   0.96038   0.00000  Uiso   1.00
H32    H     0.81250   0.98114   0.93512   0.00000  Uiso   1.00
H33    H     0.99736   0.79885   0.92525   0.00000  Uiso   1.00
H34    H     0.87793   0.83509   0.02326   0.00000  Uiso   1.00
H35    H     0.70094   0.08399   0.90316   0.00000  Uiso   1.00
H36    H     0.09074   0.69961   0.88237   0.00000  Uiso   1.00
H37    H     0.83889   0.77603   0.08903   0.00000  Uiso   1.00
O38    O     0.56381   0.07639   0.87299   0.00000  Uiso   1.00
O39    O     0.07522   0.57209   0.84572   0.00000  Uiso   1.00
O40    O     0.74479   0.67236   0.11685   0.00000  Uiso   1.00
N41    N     0.58585   0.94655   0.88676   0.00000  Uiso   1.00
N42    N     0.95029   0.58719   0.86732   0.00000  Uiso   1.00
N43    N     0.71484   0.65862   0.06053   0.00000  Uiso   1.00
N44    N     0.67438   0.03221   0.90074   0.00000  Uiso   1.00
N45    N     0.03882   0.67285   0.88130   0.00000  Uiso   1.00
N46    N     0.80337   0.74428   0.07451   0.00000  Uiso   1.00
C47    C     0.24250   0.22328   0.43698   0.00000  Uiso   1.00
C48    C     0.22096   0.30575   0.42656   0.00000  Uiso   1.00
C49    C     0.15354   0.32737   0.41001   0.00000  Uiso   1.00
C50    C     0.14465   0.40574   0.40269   0.00000  Uiso   1.00
C51    C     0.10261   0.52546   0.38514   0.00000  Uiso   1.00
C52    C     0.32140   0.20671   0.42120   0.00000  Uiso   1.00
C53    C     0.33843   0.14506   0.40014   0.00000  Uiso   1.00
C54    C     0.41410   0.14005   0.38831   0.00000  Uiso   1.00
C55    C     0.52801   0.10599   0.36246   0.00000  Uiso   1.00
C56    C     0.25650   0.22640   0.47444   0.00000  Uiso   1.00
C57    C     0.21898   0.18130   0.49816   0.00000  Uiso   1.00
C58    C     0.24002   0.19287   0.53116   0.00000  Uiso   1.00
C59    C     0.25317   0.18938   0.58798   0.00000  Uiso   1.00
C60    C     0.34662   0.32401   0.45342   0.00000  Uiso   1.00
C61    C     0.27751   0.36046   0.43549   0.00000  Uiso   1.00
C62    C     0.26872   0.43882   0.42820   0.00000  Uiso   1.00
C63    C     0.20130   0.46055   0.41164   0.00000  Uiso   1.00
C64    C     0.37795   0.26142   0.43013   0.00000  Uiso   1.00
C65    C     0.45361   0.25650   0.41833   0.00000  Uiso   1.00
C66    C     0.47075   0.19486   0.39726   0.00000  Uiso   1.00
C67    C     0.31305   0.28112   0.48338   0.00000  Uiso   1.00
C68    C     0.33416   0.29275   0.51635   0.00000  Uiso   1.00
C69    C     0.29667   0.24768   0.54011   0.00000  Uiso   1.00
H70    H     0.19848   0.18068   0.43002   0.00000  Uiso   1.00
H71    H     0.10979   0.28501   0.40310   0.00000  Uiso   1.00
H72    H     0.29465   0.10272   0.39323   0.00000  Uiso   1.00
H73    H     0.17522   0.13897   0.49124   0.00000  Uiso   1.00
H74    H     0.03641   0.42480   0.37717   0.00000  Uiso   1.00
H75    H     0.42621   0.04043   0.35638   0.00000  Uiso   1.00
H76    H     0.17436   0.11685   0.56304   0.00000  Uiso   1.00
H77    H     0.39065   0.36660   0.46038   0.00000  Uiso   1.00
H78    H     0.31250   0.48114   0.43512   0.00000  Uiso   1.00
H79    H     0.49736   0.29885   0.42525   0.00000  Uiso   1.00
H80    H     0.37793   0.33509   0.52326   0.00000  Uiso   1.00
H81    H     0.20094   0.58399   0.40316   0.00000  Uiso   1.00
H82    H     0.59074   0.19961   0.38237   0.00000  Uiso   1.00
H83    H     0.33889   0.27603   0.58903   0.00000  Uiso   1.00
O84    O     0.06381   0.57639   0.37299   0.00000  Uiso   1.00
O85    O     0.57522   0.07209   0.34572   0.00000  Uiso   1.00
O86    O     0.24479   0.17236   0.61685   0.00000  Uiso   1.00
N87    N     0.08585   0.44655   0.38676   0.00000  Uiso   1.00
N88    N     0.45029   0.08719   0.36732   0.00000  Uiso   1.00
N89    N     0.21484   0.15862   0.56053   0.00000  Uiso   1.00
N90    N     0.17438   0.53221   0.40074   0.00000  Uiso   1.00
N91    N     0.53882   0.17285   0.38130   0.00000  Uiso   1.00
N92    N     0.30337   0.24428   0.57451   0.00000  Uiso   1.00
C93    C     0.25750   0.27672   0.93698   0.00000  Uiso   1.00
C94    C     0.27904   0.19425   0.92656   0.00000  Uiso   1.00
C95    C     0.34646   0.17263   0.91001   0.00000  Uiso   1.00
C96    C     0.35535   0.09426   0.90269   0.00000  Uiso   1.00
C97    C     0.39739   0.97454   0.88514   0.00000  Uiso   1.00
C98    C     0.17860   0.29329   0.92120   0.00000  Uiso   1.00
C99    C     0.16157   0.35494   0.90014   0.00000  Uiso   1.00
C100   C     0.08590   0.35995   0.88831   0.00000  Uiso   1.00
C101   C     0.97199   0.39401   0.86246   0.00000  Uiso   1.00
C102   C     0.24350   0.27360   0.97444   0.00000  Uiso   1.00
C103   C     0.28102   0.31870   0.99816   0.00000  Uiso   1.00
C104   C     0.25998   0.30713   0.03116   0.00000  Uiso   1.00
C105   C     0.24683   0.31062   0.08798   0.00000  Uiso   1.00
C106   C     0.15338   0.17599   0.95342   0.00000  Uiso   1.00
C107   C     0.22249   0.13954   0.93549   0.00000  Uiso   1.00
C108   C     0.23128   0.06118   0.92820   0.00000  Uiso   1.00
C109   C     0.29870   0.03945   0.91164   0.00000  Uiso   1.00
C110   C     0.12205   0.23858   0.93013   0.00000  Uiso   1.00
C111   C     0.04639   0.24350   0.91833   0.00000  Uiso   1.00
C112   C     0.02925   0.30514   0.89726   0.00000  Uiso   1.00
C113   C     0.18695   0.21888   0.98338   0.00000  Uiso   1.00
C114   C     0.16584   0.20725   0.01635   0.00000  Uiso   1.00
C115   C     0.20333   0.25232   0.04011   0.00000  Uiso   1.00
H116   H     0.30152   0.31932   0.93002   0.00000  Uiso   1.00
H117   H     0.39021   0.21499   0.90310   0.00000  Uiso   1.00
H118   H     0.20535   0.39728   0.89323   0.00000  Uiso   1.00
H119   H     0.32478   0.36103   0.99124   0.00000  Uiso   1.00
H120   H     0.46359   0.07520   0.87717   0.00000  Uiso   1.00
H121   H     0.07379   0.45957   0.85638   0.00000  Uiso   1.00
H122   H     0.32564   0.38315   0.06304   0.00000  Uiso   1.00
H123   H     0.10935   0.13340   0.96038   0.00000  Uiso   1.00
H124   H     0.18750   0.01886   0.93512   0.00000  Uiso   1.00
H125   H     0.00264   0.20115   0.92525   0.00000  Uiso   1.00
H126   H     0.12207   0.16491   0.02326   0.00000  Uiso   1.00
H127   H     0.29906   0.91601   0.90316   0.00000  Uiso   1.00
H128   H     0.90926   0.30039   0.88237   0.00000  Uiso   1.00
H129   H     0.16111   0.22397   0.08903   0.00000  Uiso   1.00
O130   O     0.43619   0.92361   0.87299   0.00000  Uiso   1.00
O131   O     0.92478   0.42791   0.84572   0.00000  Uiso   1.00
O132   O     0.25521   0.32764   0.11685   0.00000  Uiso   1.00
N133   N     0.41415   0.05345   0.88676   0.00000  Uiso   1.00
N134   N     0.04971   0.41281   0.86732   0.00000  Uiso   1.00
N135   N     0.28516   0.34138   0.06053   0.00000  Uiso   1.00
N136   N     0.32562   0.96779   0.90074   0.00000  Uiso   1.00
N137   N     0.96118   0.32715   0.88130   0.00000  Uiso   1.00
N138   N     0.19663   0.25572   0.07451   0.00000  Uiso   1.00
C139   C     0.75750   0.77672   0.43698   0.00000  Uiso   1.00
C140   C     0.77904   0.69425   0.42656   0.00000  Uiso   1.00
C141   C     0.84646   0.67263   0.41001   0.00000  Uiso   1.00
C142   C     0.85535   0.59426   0.40269   0.00000  Uiso   1.00
C143   C     0.89739   0.47454   0.38514   0.00000  Uiso   1.00
C144   C     0.67860   0.79329   0.42120   0.00000  Uiso   1.00
C145   C     0.66157   0.85494   0.40014   0.00000  Uiso   1.00
C146   C     0.58590   0.85995   0.38831   0.00000  Uiso   1.00
C147   C     0.47199   0.89401   0.36246   0.00000  Uiso   1.00
C148   C     0.74350   0.77360   0.47444   0.00000  Uiso   1.00
C149   C     0.78102   0.81870   0.49816   0.00000  Uiso   1.00
C150   C     0.75998   0.80713   0.53116   0.00000  Uiso   1.00
C151   C     0.74683   0.81062   0.58798   0.00000  Uiso   1.00
C152   C     0.65338   0.67599   0.45342   0.00000  Uiso   1.00
C153   C     0.72249   0.63954   0.43549   0.00000  Uiso   1.00
C154   C     0.73128   0.56118   0.42820   0.00000  Uiso   1.00
C155   C     0.79870   0.53945   0.41164   0.00000  Uiso   1.00
C156   C     0.62205   0.73858   0.43013   0.00000  Uiso   1.00
C157   C     0.54639   0.74350   0.41833   0.00000  Uiso   1.00
C158   C     0.52925   0.80514   0.39726   0.00000  Uiso   1.00
C159   C     0.68695   0.71888   0.48338   0.00000  Uiso   1.00
C160   C     0.66584   0.70725   0.51635   0.00000  Uiso   1.00
C161   C     0.70333   0.75232   0.54011   0.00000  Uiso   1.00
H162   H     0.80152   0.81932   0.43002   0.00000  Uiso   1.00
H163   H     0.89021   0.71499   0.40310   0.00000  Uiso   1.00
H164   H     0.70535   0.89728   0.39323   0.00000  Uiso   1.00
H165   H     0.82478   0.86103   0.49124   0.00000  Uiso   1.00
H166   H     0.96359   0.57520   0.37717   0.00000  Uiso   1.00
H167   H     0.57379   0.95957   0.35638   0.00000  Uiso   1.00
H168   H     0.82564   0.88315   0.56304   0.00000  Uiso   1.00
H169   H     0.60935   0.63340   0.46038   0.00000  Uiso   1.00
H170   H     0.68750   0.51886   0.43512   0.00000  Uiso   1.00
H171   H     0.50264   0.70115   0.42525   0.00000  Uiso   1.00
H172   H     0.62207   0.66491   0.52326   0.00000  Uiso   1.00
H173   H     0.79906   0.41601   0.40316   0.00000  Uiso   1.00
H174   H     0.40926   0.80039   0.38237   0.00000  Uiso   1.00
H175   H     0.66111   0.72397   0.58903   0.00000  Uiso   1.00
O176   O     0.93619   0.42361   0.37299   0.00000  Uiso   1.00
O177   O     0.42478   0.92791   0.34572   0.00000  Uiso   1.00
O178   O     0.75521   0.82764   0.61685   0.00000  Uiso   1.00
N179   N     0.91415   0.55345   0.38676   0.00000  Uiso   1.00
N180   N     0.54971   0.91281   0.36732   0.00000  Uiso   1.00
N181   N     0.78516   0.84138   0.56053   0.00000  Uiso   1.00
N182   N     0.82562   0.46779   0.40074   0.00000  Uiso   1.00
N183   N     0.46118   0.82715   0.38130   0.00000  Uiso   1.00
N184   N     0.69663   0.75572   0.57451   0.00000  Uiso   1.00
C185   C     0.72328   0.25750   0.06302   0.00000  Uiso   1.00
C186   C     0.80575   0.27904   0.07344   0.00000  Uiso   1.00
C187   C     0.82737   0.34646   0.08999   0.00000  Uiso   1.00
C188   C     0.90574   0.35535   0.09731   0.00000  Uiso   1.00
C189   C     0.02546   0.39739   0.11486   0.00000  Uiso   1.00
C190   C     0.70671   0.17860   0.07880   0.00000  Uiso   1.00
C191   C     0.64506   0.16157   0.09986   0.00000  Uiso   1.00
C192   C     0.64005   0.08590   0.11169   0.00000  Uiso   1.00
C193   C     0.60599   0.97199   0.13754   0.00000  Uiso   1.00
C194   C     0.72640   0.24350   0.02556   0.00000  Uiso   1.00
C195   C     0.68130   0.28102   0.00184   0.00000  Uiso   1.00
C196   C     0.69287   0.25998   0.96884   0.00000  Uiso   1.00
C197   C     0.68938   0.24683   0.91202   0.00000  Uiso   1.00
C198   C     0.82401   0.15338   0.04658   0.00000  Uiso   1.00
C199   C     0.86046   0.22249   0.06451   0.00000  Uiso   1.00
C200   C     0.93882   0.23128   0.07180   0.00000  Uiso   1.00
C201   C     0.96055   0.29870   0.08836   0.00000  Uiso   1.00
C202   C     0.76142   0.12205   0.06987   0.00000  Uiso   1.00
C203   C     0.75650   0.04639   0.08167   0.00000  Uiso   1.00
C204   C     0.69486   0.02925   0.10274   0.00000  Uiso   1.00
C205   C     0.78112   0.18695   0.01662   0.00000  Uiso   1.00
C206   C     0.79275   0.16584   0.98365   0.00000  Uiso   1.00
C207   C     0.74768   0.20333   0.95989   0.00000  Uiso   1.00
H208   H     0.68068   0.30152   0.06998   0.00000  Uiso   1.00
H209   H     0.78501   0.39021   0.09690   0.00000  Uiso   1.00
H210   H     0.60272   0.20535   0.10677   0.00000  Uiso   1.00
H211   H     0.63897   0.32478   0.00876   0.00000  Uiso   1.00
H212   H     0.92480   0.46359   0.12283   0.00000  Uiso   1.00
H213   H     0.54043   0.07379   0.14362   0.00000  Uiso   1.00
H214   H     0.61685   0.32564   0.93696   0.00000  Uiso   1.00
H215   H     0.86660   0.10935   0.03962   0.00000  Uiso   1.00
H216   H     0.98114   0.18750   0.06488   0.00000  Uiso   1.00
H217   H     0.79885   0.00264   0.07475   0.00000  Uiso   1.00
H218   H     0.83509   0.12207   0.97674   0.00000  Uiso   1.00
H219   H     0.08399   0.29906   0.09684   0.00000  Uiso   1.00
H220   H     0.69961   0.90926   0.11763   0.00000  Uiso   1.00
H221   H     0.77603   0.16111   0.91097   0.00000  Uiso   1.00
O222   O     0.07639   0.43619   0.12701   0.00000  Uiso   1.00
O223   O     0.57209   0.92478   0.15428   0.00000  Uiso   1.00
O224   O     0.67236   0.25521   0.88315   0.00000  Uiso   1.00
N225   N     0.94655   0.41415   0.11324   0.00000  Uiso   1.00
N226   N     0.58719   0.04971   0.13268   0.00000  Uiso   1.00
N227   N     0.65862   0.28516   0.93947   0.00000  Uiso   1.00
N228   N     0.03221   0.32562   0.09926   0.00000  Uiso   1.00
N229   N     0.67285   0.96118   0.11870   0.00000  Uiso   1.00
N230   N     0.74428   0.19663   0.92549   0.00000  Uiso   1.00
C231   C     0.22328   0.75750   0.56302   0.00000  Uiso   1.00
C232   C     0.30575   0.77904   0.57344   0.00000  Uiso   1.00
C233   C     0.32737   0.84646   0.58999   0.00000  Uiso   1.00
C234   C     0.40574   0.85535   0.59731   0.00000  Uiso   1.00
C235   C     0.52546   0.89739   0.61486   0.00000  Uiso   1.00
C236   C     0.20671   0.67860   0.57880   0.00000  Uiso   1.00
C237   C     0.14506   0.66157   0.59986   0.00000  Uiso   1.00
C238   C     0.14005   0.58590   0.61169   0.00000  Uiso   1.00
C239   C     0.10599   0.47199   0.63754   0.00000  Uiso   1.00
C240   C     0.22640   0.74350   0.52556   0.00000  Uiso   1.00
C241   C     0.18130   0.78102   0.50184   0.00000  Uiso   1.00
C242   C     0.19287   0.75998   0.46884   0.00000  Uiso   1.00
C243   C     0.18938   0.74683   0.41202   0.00000  Uiso   1.00
C244   C     0.32401   0.65338   0.54658   0.00000  Uiso   1.00
C245   C     0.36046   0.72249   0.56451   0.00000  Uiso   1.00
C246   C     0.43882   0.73128   0.57180   0.00000  Uiso   1.00
C247   C     0.46055   0.79870   0.58836   0.00000  Uiso   1.00
C248   C     0.26142   0.62205   0.56987   0.00000  Uiso   1.00
C249   C     0.25650   0.54639   0.58167   0.00000  Uiso   1.00
C250   C     0.19486   0.52925   0.60274   0.00000  Uiso   1.00
C251   C     0.28112   0.68695   0.51662   0.00000  Uiso   1.00
C252   C     0.29275   0.66584   0.48365   0.00000  Uiso   1.00
C253   C     0.24768   0.70333   0.45989   0.00000  Uiso   1.00
H254   H     0.18068   0.80152   0.56998   0.00000  Uiso   1.00
H255   H     0.28501   0.89021   0.59690   0.00000  Uiso   1.00
H256   H     0.10272   0.70535   0.60677   0.00000  Uiso   1.00
H257   H     0.13897   0.82478   0.50876   0.00000  Uiso   1.00
H258   H     0.42480   0.96359   0.62283   0.00000  Uiso   1.00
H259   H     0.04043   0.57379   0.64362   0.00000  Uiso   1.00
H260   H     0.11685   0.82564   0.43696   0.00000  Uiso   1.00
H261   H     0.36660   0.60935   0.53962   0.00000  Uiso   1.00
H262   H     0.48114   0.68750   0.56488   0.00000  Uiso   1.00
H263   H     0.29885   0.50264   0.57475   0.00000  Uiso   1.00
H264   H     0.33509   0.62207   0.47674   0.00000  Uiso   1.00
H265   H     0.58399   0.79906   0.59684   0.00000  Uiso   1.00
H266   H     0.19961   0.40926   0.61763   0.00000  Uiso   1.00
H267   H     0.27603   0.66111   0.41097   0.00000  Uiso   1.00
O268   O     0.57639   0.93619   0.62701   0.00000  Uiso   1.00
O269   O     0.07209   0.42478   0.65428   0.00000  Uiso   1.00
O270   O     0.17236   0.75521   0.38315   0.00000  Uiso   1.00
N271   N     0.44655   0.91415   0.61324   0.00000  Uiso   1.00
N272   N     0.08719   0.54971   0.63268   0.00000  Uiso   1.00
N273   N     0.15862   0.78516   0.43947   0.00000  Uiso   1.00
N274   N     0.53221   0.82562   0.59926   0.00000  Uiso   1.00
N275   N     0.17285   0.46118   0.61870   0.00000  Uiso   1.00
N276   N     0.24428   0.69663   0.42549   0.00000  Uiso   1.00
C277   C     0.27672   0.74250   0.06302   0.00000  Uiso   1.00
C278   C     0.19425   0.72096   0.07344   0.00000  Uiso   1.00
C279   C     0.17263   0.65354   0.08999   0.00000  Uiso   1.00
C280   C     0.09426   0.64465   0.09731   0.00000  Uiso   1.00
C281   C     0.97454   0.60261   0.11486   0.00000  Uiso   1.00
C282   C     0.29329   0.82140   0.07880   0.00000  Uiso   1.00
C283   C     0.35494   0.83843   0.09986   0.00000  Uiso   1.00
C284   C     0.35995   0.91410   0.11169   0.00000  Uiso   1.00
C285   C     0.39401   0.02801   0.13754   0.00000  Uiso   1.00
C286   C     0.27360   0.75650   0.02556   0.00000  Uiso   1.00
C287   C     0.31870   0.71898   0.00184   0.00000  Uiso   1.00
C288   C     0.30713   0.74002   0.96884   0.00000  Uiso   1.00
C289   C     0.31062   0.75317   0.91202   0.00000  Uiso   1.00
C290   C     0.17599   0.84662   0.04658   0.00000  Uiso   1.00
C291   C     0.13954   0.77751   0.06451   0.00000  Uiso   1.00
C292   C     0.06118   0.76872   0.07180   0.00000  Uiso   1.00
C293   C     0.03945   0.70130   0.08836   0.00000  Uiso   1.00
C294   C     0.23858   0.87795   0.06987   0.00000  Uiso   1.00
C295   C     0.24350   0.95361   0.08167   0.00000  Uiso   1.00
C296   C     0.30514   0.97075   0.10274   0.00000  Uiso   1.00
C297   C     0.21888   0.81305   0.01662   0.00000  Uiso   1.00
C298   C     0.20725   0.83416   0.98365   0.00000  Uiso   1.00
C299   C     0.25232   0.79667   0.95989   0.00000  Uiso   1.00
H300   H     0.31932   0.69848   0.06998   0.00000  Uiso   1.00
H301   H     0.21499   0.60979   0.09690   0.00000  Uiso   1.00
H302   H     0.39728   0.79465   0.10677   0.00000  Uiso   1.00
H303   H     0.36103   0.67522   0.00876   0.00000  Uiso   1.00
H304   H     0.07520   0.53641   0.12283   0.00000  Uiso   1.00
H305   H     0.45957   0.92621   0.14362   0.00000  Uiso   1.00
H306   H     0.38315   0.67436   0.93696   0.00000  Uiso   1.00
H307   H     0.13340   0.89065   0.03962   0.00000  Uiso   1.00
H308   H     0.01886   0.81250   0.06488   0.00000  Uiso   1.00
H309   H     0.20115   0.99736   0.07475   0.00000  Uiso   1.00
H310   H     0.16491   0.87793   0.97674   0.00000  Uiso   1.00
H311   H     0.91601   0.70094   0.09684   0.00000  Uiso   1.00
H312   H     0.30039   0.09074   0.11763   0.00000  Uiso   1.00
H313   H     0.22397   0.83889   0.91097   0.00000  Uiso   1.00
O314   O     0.92361   0.56381   0.12701   0.00000  Uiso   1.00
O315   O     0.42791   0.07522   0.15428   0.00000  Uiso   1.00
O316   O     0.32764   0.74479   0.88315   0.00000  Uiso   1.00
N317   N     0.05345   0.58585   0.11324   0.00000  Uiso   1.00
N318   N     0.41281   0.95029   0.13268   0.00000  Uiso   1.00
N319   N     0.34138   0.71484   0.93947   0.00000  Uiso   1.00
N320   N     0.96779   0.67438   0.09926   0.00000  Uiso   1.00
N321   N     0.32715   0.03882   0.11870   0.00000  Uiso   1.00
N322   N     0.25572   0.80337   0.92549   0.00000  Uiso   1.00
C323   C     0.77672   0.24250   0.56302   0.00000  Uiso   1.00
C324   C     0.69425   0.22096   0.57344   0.00000  Uiso   1.00
C325   C     0.67263   0.15354   0.58999   0.00000  Uiso   1.00
C326   C     0.59426   0.14465   0.59731   0.00000  Uiso   1.00
C327   C     0.47454   0.10261   0.61486   0.00000  Uiso   1.00
C328   C     0.79329   0.32140   0.57880   0.00000  Uiso   1.00
C329   C     0.85494   0.33843   0.59986   0.00000  Uiso   1.00
C330   C     0.85995   0.41410   0.61169   0.00000  Uiso   1.00
C331   C     0.89401   0.52801   0.63754   0.00000  Uiso   1.00
C332   C     0.77360   0.25650   0.52556   0.00000  Uiso   1.00
C333   C     0.81870   0.21898   0.50184   0.00000  Uiso   1.00
C334   C     0.80713   0.24002   0.46884   0.00000  Uiso   1.00
C335   C     0.81062   0.25317   0.41202   0.00000  Uiso   1.00
C336   C     0.67599   0.34662   0.54658   0.00000  Uiso   1.00
C337   C     0.63954   0.27751   0.56451   0.00000  Uiso   1.00
C338   C     0.56118   0.26872   0.57180   0.00000  Uiso   1.00
C339   C     0.53945   0.20130   0.58836   0.00000  Uiso   1.00
C340   C     0.73858   0.37795   0.56987   0.00000  Uiso   1.00
C341   C     0.74350   0.45361   0.58167   0.00000  Uiso   1.00
C342   C     0.80514   0.47075   0.60274   0.00000  Uiso   1.00
C343   C     0.71888   0.31305   0.51662   0.00000  Uiso   1.00
C344   C     0.70725   0.33416   0.48365   0.00000  Uiso   1.00
C345   C     0.75232   0.29667   0.45989   0.00000  Uiso   1.00
H346   H     0.81932   0.19848   0.56998   0.00000  Uiso   1.00
H347   H     0.71499   0.10979   0.59690   0.00000  Uiso   1.00
H348   H     0.89728   0.29465   0.60677   0.00000  Uiso   1.00
H349   H     0.86103   0.17522   0.50876   0.00000  Uiso   1.00
H350   H     0.57520   0.03641   0.62283   0.00000  Uiso   1.00
H351   H     0.95957   0.42621   0.64362   0.00000  Uiso   1.00
H352   H     0.88315   0.17436   0.43696   0.00000  Uiso   1.00
H353   H     0.63340   0.39065   0.53962   0.00000  Uiso   1.00
H354   H     0.51886   0.31250   0.56488   0.00000  Uiso   1.00
H355   H     0.70115   0.49736   0.57475   0.00000  Uiso   1.00
H356   H     0.66491   0.37793   0.47674   0.00000  Uiso   1.00
H357   H     0.41601   0.20094   0.59684   0.00000  Uiso   1.00
H358   H     0.80039   0.59074   0.61763   0.00000  Uiso   1.00
H359   H     0.72397   0.33889   0.41097   0.00000  Uiso   1.00
O360   O     0.42361   0.06381   0.62701   0.00000  Uiso   1.00
O361   O     0.92791   0.57522   0.65428   0.00000  Uiso   1.00
O362   O     0.82764   0.24479   0.38315   0.00000  Uiso   1.00
N363   N     0.55345   0.08585   0.61324   0.00000  Uiso   1.00
N364   N     0.91281   0.45029   0.63268   0.00000  Uiso   1.00
N365   N     0.84138   0.21484   0.43947   0.00000  Uiso   1.00
N366   N     0.46779   0.17438   0.59926   0.00000  Uiso   1.00
N367   N     0.82715   0.53882   0.61870   0.00000  Uiso   1.00
N368   N     0.75572   0.30337   0.42549   0.00000  Uiso   1.00
C369   C     0.75750   0.72328   0.81302   0.00000  Uiso   1.00
C370   C     0.77904   0.80575   0.82344   0.00000  Uiso   1.00
C371   C     0.84646   0.82737   0.83999   0.00000  Uiso   1.00
C372   C     0.85535   0.90574   0.84731   0.00000  Uiso   1.00
C373   C     0.89739   0.02546   0.86486   0.00000  Uiso   1.00
C374   C     0.67860   0.70671   0.82880   0.00000  Uiso   1.00
C375   C     0.66157   0.64506   0.84986   0.00000  Uiso   1.00
C376   C     0.58590   0.64005   0.86169   0.00000  Uiso   1.00
C377   C     0.47199   0.60599   0.88754   0.00000  Uiso   1.00
C378   C     0.74350   0.72640   0.77556   0.00000  Uiso   1.00
C379   C     0.78102   0.68130   0.75184   0.00000  Uiso   1.00
C380   C     0.75998   0.69287   0.71884   0.00000  Uiso   1.00
C381   C     0.74683   0.68938   0.66202   0.00000  Uiso   1.00
C382   C     0.65338   0.82401   0.79658   0.00000  Uiso   1.00
C383   C     0.72249   0.86046   0.81451   0.00000  Uiso   1.00
C384   C     0.73128   0.93882   0.82180   0.00000  Uiso   1.00
C385   C     0.79870   0.96055   0.83836   0.00000  Uiso   1.00
C386   C     0.62205   0.76142   0.81987   0.00000  Uiso   1.00
C387   C     0.54639   0.75650   0.83167   0.00000  Uiso   1.00
C388   C     0.52925   0.69486   0.85274   0.00000  Uiso   1.00
C389   C     0.68695   0.78112   0.76662   0.00000  Uiso   1.00
C390   C     0.66584   0.79275   0.73365   0.00000  Uiso   1.00
C391   C     0.70333   0.74768   0.70989   0.00000  Uiso   1.00
H392   H     0.80152   0.68068   0.81998   0.00000  Uiso   1.00
H393   H     0.89021   0.78501   0.84690   0.00000  Uiso   1.00
H394   H     0.70535   0.60272   0.85677   0.00000  Uiso   1.00
H395   H     0.82478   0.63897   0.75876   0.00000  Uiso   1.00
H396   H     0.96359   0.92480   0.87283   0.00000  Uiso   1.00
H397   H     0.57379   0.54043   0.89362   0.00000  Uiso   1.00
H398   H     0.82564   0.61685   0.68696   0.00000  Uiso   1.00
H399   H     0.60935   0.86660   0.78962   0.00000  Uiso   1.00
H400   H     0.68750   0.98114   0.81488   0.00000  Uiso   1.00
H401   H     0.50264   0.79885   0.82475   0.00000  Uiso   1.00
H402   H     0.62207   0.83509   0.72674   0.00000  Uiso   1.00
H403   H     0.79906   0.08399   0.84684   0.00000  Uiso   1.00
H404   H     0.40926   0.69961   0.86763   0.00000  Uiso   1.00
H405   H     0.66111   0.77603   0.66097   0.00000  Uiso   1.00
O406   O     0.93619   0.07639   0.87701   0.00000  Uiso   1.00
O407   O     0.42478   0.57209   0.90428   0.00000  Uiso   1.00
O408   O     0.75521   0.67236   0.63315   0.00000  Uiso   1.00
N409   N     0.91415   0.94655   0.86324   0.00000  Uiso   1.00
N410   N     0.54971   0.58719   0.88268   0.00000  Uiso   1.00
N411   N     0.78516   0.65862   0.68947   0.00000  Uiso   1.00
N412   N     0.82562   0.03221   0.84926   0.00000  Uiso   1.00
N413   N     0.46118   0.67285   0.86870   0.00000  Uiso   1.00
N414   N     0.69663   0.74428   0.67549   0.00000  Uiso   1.00
C415   C     0.25750   0.22328   0.31302   0.00000  Uiso   1.00
C416   C     0.27904   0.30575   0.32344   0.00000  Uiso   1.00
C417   C     0.34646   0.32737   0.33999   0.00000  Uiso   1.00
C418   C     0.35535   0.40574   0.34731   0.00000  Uiso   1.00
C419   C     0.39739   0.52546   0.36486   0.00000  Uiso   1.00
C420   C     0.17860   0.20671   0.32880   0.00000  Uiso   1.00
C421   C     0.16157   0.14506   0.34986   0.00000  Uiso   1.00
C422   C     0.08590   0.14005   0.36169   0.00000  Uiso   1.00
C423   C     0.97199   0.10599   0.38754   0.00000  Uiso   1.00
C424   C     0.24350   0.22640   0.27556   0.00000  Uiso   1.00
C425   C     0.28102   0.18130   0.25184   0.00000  Uiso   1.00
C426   C     0.25998   0.19287   0.21884   0.00000  Uiso   1.00
C427   C     0.24683   0.18938   0.16202   0.00000  Uiso   1.00
C428   C     0.15338   0.32401   0.29658   0.00000  Uiso   1.00
C429   C     0.22249   0.36046   0.31451   0.00000  Uiso   1.00
C430   C     0.23128   0.43882   0.32180   0.00000  Uiso   1.00
C431   C     0.29870   0.46055   0.33836   0.00000  Uiso   1.00
C432   C     0.12205   0.26142   0.31987   0.00000  Uiso   1.00
C433   C     0.04639   0.25650   0.33167   0.00000  Uiso   1.00
C434   C     0.02925   0.19486   0.35274   0.00000  Uiso   1.00
C435   C     0.18695   0.28112   0.26662   0.00000  Uiso   1.00
C436   C     0.16584   0.29275   0.23365   0.00000  Uiso   1.00
C437   C     0.20333   0.24768   0.20989   0.00000  Uiso   1.00
H438   H     0.30152   0.18068   0.31998   0.00000  Uiso   1.00
H439   H     0.39021   0.28501   0.34690   0.00000  Uiso   1.00
H440   H     0.20535   0.10272   0.35677   0.00000  Uiso   1.00
H441   H     0.32478   0.13897   0.25876   0.00000  Uiso   1.00
H442   H     0.46359   0.42480   0.37283   0.00000  Uiso   1.00
H443   H     0.07379   0.04043   0.39362   0.00000  Uiso   1.00
H444   H     0.32564   0.11685   0.18696   0.00000  Uiso   1.00
H445   H     0.10935   0.36660   0.28962   0.00000  Uiso   1.00
H446   H     0.18750   0.48114   0.31488   0.00000  Uiso   1.00
H447   H     0.00264   0.29885   0.32475   0.00000  Uiso   1.00
H448   H     0.12207   0.33509   0.22674   0.00000  Uiso   1.00
H449   H     0.29906   0.58399   0.34684   0.00000  Uiso   1.00
H450   H     0.90926   0.19961   0.36763   0.00000  Uiso   1.00
H451   H     0.16111   0.27603   0.16097   0.00000  Uiso   1.00
O452   O     0.43619   0.57639   0.37701   0.00000  Uiso   1.00
O453   O     0.92478   0.07209   0.40428   0.00000  Uiso   1.00
O454   O     0.25521   0.17236   0.13315   0.00000  Uiso   1.00
N455   N     0.41415   0.44655   0.36324   0.00000  Uiso   1.00
N456   N     0.04971   0.08719   0.38268   0.00000  Uiso   1.00
N457   N     0.28516   0.15862   0.18947   0.00000  Uiso   1.00
N458   N     0.32562   0.53221   0.34926   0.00000  Uiso   1.00
N459   N     0.96118   0.17285   0.36870   0.00000  Uiso   1.00
N460   N     0.19663   0.24428   0.17549   0.00000  Uiso   1.00
C461   C     0.24250   0.27672   0.81302   0.00000  Uiso   1.00
C462   C     0.22096   0.19425   0.82344   0.00000  Uiso   1.00
C463   C     0.15354   0.17263   0.83999   0.00000  Uiso   1.00
C464   C     0.14465   0.09426   0.84731   0.00000  Uiso   1.00
C465   C     0.10261   0.97454   0.86486   0.00000  Uiso   1.00
C466   C     0.32140   0.29329   0.82880   0.00000  Uiso   1.00
C467   C     0.33843   0.35494   0.84986   0.00000  Uiso   1.00
C468   C     0.41410   0.35995   0.86169   0.00000  Uiso   1.00
C469   C     0.52801   0.39401   0.88754   0.00000  Uiso   1.00
C470   C     0.25650   0.27360   0.77556   0.00000  Uiso   1.00
C471   C     0.21898   0.31870   0.75184   0.00000  Uiso   1.00
C472   C     0.24002   0.30713   0.71884   0.00000  Uiso   1.00
C473   C     0.25317   0.31062   0.66202   0.00000  Uiso   1.00
C474   C     0.34662   0.17599   0.79658   0.00000  Uiso   1.00
C475   C     0.27751   0.13954   0.81451   0.00000  Uiso   1.00
C476   C     0.26872   0.06118   0.82180   0.00000  Uiso   1.00
C477   C     0.20130   0.03945   0.83836   0.00000  Uiso   1.00
C478   C     0.37795   0.23858   0.81987   0.00000  Uiso   1.00
C479   C     0.45361   0.24350   0.83167   0.00000  Uiso   1.00
C480   C     0.47075   0.30514   0.85274   0.00000  Uiso   1.00
C481   C     0.31305   0.21888   0.76662   0.00000  Uiso   1.00
C482   C     0.33416   0.20725   0.73365   0.00000  Uiso   1.00
C483   C     0.29667   0.25232   0.70989   0.00000  Uiso   1.00
H484   H     0.19848   0.31932   0.81998   0.00000  Uiso   1.00
H485   H     0.10979   0.21499   0.84690   0.00000  Uiso   1.00
H486   H     0.29465   0.39728   0.85677   0.00000  Uiso   1.00
H487   H     0.17522   0.36103   0.75876   0.00000  Uiso   1.00
H488   H     0.03641   0.07520   0.87283   0.00000  Uiso   1.00
H489   H     0.42621   0.45957   0.89362   0.00000  Uiso   1.00
H490   H     0.17436   0.38315   0.68696   0.00000  Uiso   1.00
H491   H     0.39065   0.13340   0.78962   0.00000  Uiso   1.00
H492   H     0.31250   0.01886   0.81488   0.00000  Uiso   1.00
H493   H     0.49736   0.20115   0.82475   0.00000  Uiso   1.00
H494   H     0.37793   0.16491   0.72674   0.00000  Uiso   1.00
H495   H     0.20094   0.91601   0.84684   0.00000  Uiso   1.00
H496   H     0.59074   0.30039   0.86763   0.00000  Uiso   1.00
H497   H     0.33889   0.22397   0.66097   0.00000  Uiso   1.00
O498   O     0.06381   0.92361   0.87701   0.00000  Uiso   1.00
O499   O     0.57522   0.42791   0.90428   0.00000  Uiso   1.00
O500   O     0.24479   0.32764   0.63315   0.00000  Uiso   1.00
N501   N     0.08585   0.05345   0.86324   0.00000  Uiso   1.00
N502   N     0.45029   0.41281   0.88268   0.00000  Uiso   1.00
N503   N     0.21484   0.34138   0.68947   0.00000  Uiso   1.00
N504   N     0.17438   0.96779   0.84926   0.00000  Uiso   1.00
N505   N     0.53882   0.32715   0.86870   0.00000  Uiso   1.00
N506   N     0.30337   0.25572   0.67549   0.00000  Uiso   1.00
C507   C     0.74250   0.77672   0.31302   0.00000  Uiso   1.00
C508   C     0.72096   0.69425   0.32344   0.00000  Uiso   1.00
C509   C     0.65354   0.67263   0.33999   0.00000  Uiso   1.00
C510   C     0.64465   0.59426   0.34731   0.00000  Uiso   1.00
C511   C     0.60261   0.47454   0.36486   0.00000  Uiso   1.00
C512   C     0.82140   0.79329   0.32880   0.00000  Uiso   1.00
C513   C     0.83843   0.85494   0.34986   0.00000  Uiso   1.00
C514   C     0.91410   0.85995   0.36169   0.00000  Uiso   1.00
C515   C     0.02801   0.89401   0.38754   0.00000  Uiso   1.00
C516   C     0.75650   0.77360   0.27556   0.00000  Uiso   1.00
C517   C     0.71898   0.81870   0.25184   0.00000  Uiso   1.00
C518   C     0.74002   0.80713   0.21884   0.00000  Uiso   1.00
C519   C     0.75317   0.81062   0.16202   0.00000  Uiso   1.00
C520   C     0.84662   0.67599   0.29658   0.00000  Uiso   1.00
C521   C     0.77751   0.63954   0.31451   0.00000  Uiso   1.00
C522   C     0.76872   0.56118   0.32180   0.00000  Uiso   1.00
C523   C     0.70130   0.53945   0.33836   0.00000  Uiso   1.00
C524   C     0.87795   0.73858   0.31987   0.00000  Uiso   1.00
C525   C     0.95361   0.74350   0.33167   0.00000  Uiso   1.00
C526   C     0.97075   0.80514   0.35274   0.00000  Uiso   1.00
C527   C     0.81305   0.71888   0.26662   0.00000  Uiso   1.00
C528   C     0.83416   0.70725   0.23365   0.00000  Uiso   1.00
C529   C     0.79667   0.75232   0.20989   0.00000  Uiso   1.00
H530   H     0.69848   0.81932   0.31998   0.00000  Uiso   1.00
H531   H     0.60979   0.71499   0.34690   0.00000  Uiso   1.00
H532   H     0.79465   0.89728   0.35677   0.00000  Uiso   1.00
H533   H     0.67522   0.86103   0.25876   0.00000  Uiso   1.00
H534   H     0.53641   0.57520   0.37283   0.00000  Uiso   1.00
H535   H     0.92621   0.95957   0.39362   0.00000  Uiso   1.00
H536   H     0.67436   0.88315   0.18696   0.00000  Uiso   1.00
H537   H     0.89065   0.63340   0.28962   0.00000  Uiso   1.00
H538   H     0.81250   0.51886   0.31488   0.00000  Uiso   1.00
H539   H     0.99736   0.70115   0.32475   0.00000  Uiso   1.00
H540   H     0.87793   0.66491   0.22674   0.00000  Uiso   1.00
H541   H     0.70094   0.41601   0.34684   0.00000  Uiso   1.00
H542   H     0.09074   0.80039   0.36763   0.00000  Uiso   1.00
H543   H     0.83889   0.72397   0.16097   0.00000  Uiso   1.00
O544   O     0.56381   0.42361   0.37701   0.00000  Uiso   1.00
O545   O     0.07522   0.92791   0.40428   0.00000  Uiso   1.00
O546   O     0.74479   0.82764   0.13315   0.00000  Uiso   1.00
N547   N     0.58585   0.55345   0.36324   0.00000  Uiso   1.00
N548   N     0.95029   0.91281   0.38268   0.00000  Uiso   1.00
N549   N     0.71484   0.84138   0.18947   0.00000  Uiso   1.00
N550   N     0.67438   0.46779   0.34926   0.00000  Uiso   1.00
N551   N     0.03882   0.82715   0.36870   0.00000  Uiso   1.00
N552   N     0.80337   0.75572   0.17549   0.00000  Uiso   1.00
C553   C     0.77672   0.25750   0.68698   0.00000  Uiso   1.00
C554   C     0.69425   0.27904   0.67656   0.00000  Uiso   1.00
C555   C     0.67263   0.34646   0.66001   0.00000  Uiso   1.00
C556   C     0.59426   0.35535   0.65269   0.00000  Uiso   1.00
C557   C     0.47454   0.39739   0.63514   0.00000  Uiso   1.00
C558   C     0.79329   0.17860   0.67120   0.00000  Uiso   1.00
C559   C     0.85494   0.16157   0.65014   0.00000  Uiso   1.00
C560   C     0.85995   0.08590   0.63831   0.00000  Uiso   1.00
C561   C     0.89401   0.97199   0.61246   0.00000  Uiso   1.00
C562   C     0.77360   0.24350   0.72444   0.00000  Uiso   1.00
C563   C     0.81870   0.28102   0.74816   0.00000  Uiso   1.00
C564   C     0.80713   0.25998   0.78116   0.00000  Uiso   1.00
C565   C     0.81062   0.24683   0.83798   0.00000  Uiso   1.00
C566   C     0.67599   0.15338   0.70342   0.00000  Uiso   1.00
C567   C     0.63954   0.22249   0.68549   0.00000  Uiso   1.00
C568   C     0.56118   0.23128   0.67820   0.00000  Uiso   1.00
C569   C     0.53945   0.29870   0.66164   0.00000  Uiso   1.00
C570   C     0.73858   0.12205   0.68013   0.00000  Uiso   1.00
C571   C     0.74350   0.04639   0.66833   0.00000  Uiso   1.00
C572   C     0.80514   0.02925   0.64726   0.00000  Uiso   1.00
C573   C     0.71888   0.18695   0.73338   0.00000  Uiso   1.00
C574   C     0.70725   0.16584   0.76635   0.00000  Uiso   1.00
C575   C     0.75232   0.20333   0.79011   0.00000  Uiso   1.00
H576   H     0.81932   0.30152   0.68002   0.00000  Uiso   1.00
H577   H     0.71499   0.39021   0.65310   0.00000  Uiso   1.00
H578   H     0.89728   0.20535   0.64323   0.00000  Uiso   1.00
H579   H     0.86103   0.32478   0.74124   0.00000  Uiso   1.00
H580   H     0.57520   0.46359   0.62717   0.00000  Uiso   1.00
H581   H     0.95957   0.07379   0.60638   0.00000  Uiso   1.00
H582   H     0.88315   0.32564   0.81304   0.00000  Uiso   1.00
H583   H     0.63340   0.10935   0.71038   0.00000  Uiso   1.00
H584   H     0.51886   0.18750   0.68512   0.00000  Uiso   1.00
H585   H     0.70115   0.00264   0.67525   0.00000  Uiso   1.00
H586   H     0.66491   0.12207   0.77326   0.00000  Uiso   1.00
H587   H     0.41601   0.29906   0.65316   0.00000  Uiso   1.00
H588   H     0.80039   0.90926   0.63237   0.00000  Uiso   1.00
H589   H     0.72397   0.16111   0.83903   0.00000  Uiso   1.00
O590   O     0.42361   0.43619   0.62299   0.00000  Uiso   1.00
O591   O     0.92791   0.92478   0.59572   0.00000  Uiso   1.00
O592   O     0.82764   0.25521   0.86685   0.00000  Uiso   1.00
N593   N     0.55345   0.41415   0.63676   0.00000  Uiso   1.00
N594   N     0.91281   0.04971   0.61732   0.00000  Uiso   1.00
N595   N     0.84138   0.28516   0.81053   0.00000  Uiso   1.00
N596   N     0.46779   0.32562   0.65074   0.00000  Uiso   1.00
N597   N     0.82715   0.96118   0.63130   0.00000  Uiso   1.00
N598   N     0.75572   0.19663   0.82451   0.00000  Uiso   1.00
C599   C     0.27672   0.75750   0.18698   0.00000  Uiso   1.00
C600   C     0.19425   0.77904   0.17656   0.00000  Uiso   1.00
C601   C     0.17263   0.84646   0.16001   0.00000  Uiso   1.00
C602   C     0.09426   0.85535   0.15269   0.00000  Uiso   1.00
C603   C     0.97454   0.89739   0.13514   0.00000  Uiso   1.00
C604   C     0.29329   0.67860   0.17120   0.00000  Uiso   1.00
C605   C     0.35494   0.66157   0.15014   0.00000  Uiso   1.00
C606   C     0.35995   0.58590   0.13831   0.00000  Uiso   1.00
C607   C     0.39401   0.47199   0.11246   0.00000  Uiso   1.00
C608   C     0.27360   0.74350   0.22444   0.00000  Uiso   1.00
C609   C     0.31870   0.78102   0.24816   0.00000  Uiso   1.00
C610   C     0.30713   0.75998   0.28116   0.00000  Uiso   1.00
C611   C     0.31062   0.74683   0.33798   0.00000  Uiso   1.00
C612   C     0.17599   0.65338   0.20342   0.00000  Uiso   1.00
C613   C     0.13954   0.72249   0.18549   0.00000  Uiso   1.00
C614   C     0.06118   0.73128   0.17820   0.00000  Uiso   1.00
C615   C     0.03945   0.79870   0.16164   0.00000  Uiso   1.00
C616   C     0.23858   0.62205   0.18013   0.00000  Uiso   1.00
C617   C     0.24350   0.54639   0.16833   0.00000  Uiso   1.00
C618   C     0.30514   0.52925   0.14726   0.00000  Uiso   1.00
C619   C     0.21888   0.68695   0.23338   0.00000  Uiso   1.00
C620   C     0.20725   0.66584   0.26635   0.00000  Uiso   1.00
C621   C     0.25232   0.70333   0.29011   0.00000  Uiso   1.00
H622   H     0.31932   0.80152   0.18002   0.00000  Uiso   1.00
H623   H     0.21499   0.89021   0.15310   0.00000  Uiso   1.00
H624   H     0.39728   0.70535   0.14323   0.00000  Uiso   1.00
H625   H     0.36103   0.82478   0.24124   0.00000  Uiso   1.00
H626   H     0.07520   0.96359   0.12717   0.00000  Uiso   1.00
H627   H     0.45957   0.57379   0.10638   0.00000  Uiso   1.00
H628   H     0.38315   0.82564   0.31304   0.00000  Uiso   1.00
H629   H     0.13340   0.60935   0.21038   0.00000  Uiso   1.00
H630   H     0.01886   0.68750   0.18512   0.00000  Uiso   1.00
H631   H     0.20115   0.50264   0.17525   0.00000  Uiso   1.00
H632   H     0.16491   0.62207   0.27326   0.00000  Uiso   1.00
H633   H     0.91601   0.79906   0.15316   0.00000  Uiso   1.00
H634   H     0.30039   0.40926   0.13237   0.00000  Uiso   1.00
H635   H     0.22397   0.66111   0.33903   0.00000  Uiso   1.00
O636   O     0.92361   0.93619   0.12299   0.00000  Uiso   1.00
O637   O     0.42791   0.42478   0.09572   0.00000  Uiso   1.00
O638   O     0.32764   0.75521   0.36685   0.00000  Uiso   1.00
N639   N     0.05345   0.91415   0.13676   0.00000  Uiso   1.00
N640   N     0.41281   0.54971   0.11732   0.00000  Uiso   1.00
N641   N     0.34138   0.78516   0.31053   0.00000  Uiso   1.00
N642   N     0.96779   0.82562   0.15074   0.00000  Uiso   1.00
N643   N     0.32715   0.46118   0.13130   0.00000  Uiso   1.00
N644   N     0.25572   0.69663   0.32451   0.00000  Uiso   1.00
C645   C     0.22328   0.74250   0.68698   0.00000  Uiso   1.00
C646   C     0.30575   0.72096   0.67656   0.00000  Uiso   1.00
C647   C     0.32737   0.65354   0.66001   0.00000  Uiso   1.00
C648   C     0.40574   0.64465   0.65269   0.00000  Uiso   1.00
C649   C     0.52546   0.60261   0.63514   0.00000  Uiso   1.00
C650   C     0.20671   0.82140   0.67120   0.00000  Uiso   1.00
C651   C     0.14506   0.83843   0.65014   0.00000  Uiso   1.00
C652   C     0.14005   0.91410   0.63831   0.00000  Uiso   1.00
C653   C     0.10599   0.02801   0.61246   0.00000  Uiso   1.00
C654   C     0.22640   0.75650   0.72444   0.00000  Uiso   1.00
C655   C     0.18130   0.71898   0.74816   0.00000  Uiso   1.00
C656   C     0.19287   0.74002   0.78116   0.00000  Uiso   1.00
C657   C     0.18938   0.75317   0.83798   0.00000  Uiso   1.00
C658   C     0.32401   0.84662   0.70342   0.00000  Uiso   1.00
C659   C     0.36046   0.77751   0.68549   0.00000  Uiso   1.00
C660   C     0.43882   0.76872   0.67820   0.00000  Uiso   1.00
C661   C     0.46055   0.70130   0.66164   0.00000  Uiso   1.00
C662   C     0.26142   0.87795   0.68013   0.00000  Uiso   1.00
C663   C     0.25650   0.95361   0.66833   0.00000  Uiso   1.00
C664   C     0.19486   0.97075   0.64726   0.00000  Uiso   1.00
C665   C     0.28112   0.81305   0.73338   0.00000  Uiso   1.00
C666   C     0.29275   0.83416   0.76635   0.00000  Uiso   1.00
C667   C     0.24768   0.79667   0.79011   0.00000  Uiso   1.00
H668   H     0.18068   0.69848   0.68002   0.00000  Uiso   1.00
H669   H     0.28501   0.60979   0.65310   0.00000  Uiso   1.00
H670   H     0.10272   0.79465   0.64323   0.00000  Uiso   1.00
H671   H     0.13897   0.67522   0.74124   0.00000  Uiso   1.00
H672   H     0.42480   0.53641   0.62717   0.00000  Uiso   1.00
H673   H     0.04043   0.92621   0.60638   0.00000  Uiso   1.00
H674   H     0.11685   0.67436   0.81304   0.00000  Uiso   1.00
H675   H     0.36660   0.89065   0.71038   0.00000  Uiso   1.00
H676   H     0.48114   0.81250   0.68512   0.00000  Uiso   1.00
H677   H     0.29885   0.99736   0.67525   0.00000  Uiso   1.00
H678   H     0.33509   0.87793   0.77326   0.00000  Uiso   1.00
H679   H     0.58399   0.70094   0.65316   0.00000  Uiso   1.00
H680   H     0.19961   0.09074   0.63237   0.00000  Uiso   1.00
H681   H     0.27603   0.83889   0.83903   0.00000  Uiso   1.00
O682   O     0.57639   0.56381   0.62299   0.00000  Uiso   1.00
O683   O     0.07209   0.07522   0.59572   0.00000  Uiso   1.00
O684   O     0.17236   0.74479   0.86685   0.00000  Uiso   1.00
N685   N     0.44655   0.58585   0.63676   0.00000  Uiso   1.00
N686   N     0.08719   0.95029   0.61732   0.00000  Uiso   1.00
N687   N     0.15862   0.71484   0.81053   0.00000  Uiso   1.00
N688   N     0.53221   0.67438   0.65074   0.00000  Uiso   1.00
N689   N     0.17285   0.03882   0.63130   0.00000  Uiso   1.00
N690   N     0.24428   0.80337   0.82451   0.00000  Uiso   1.00
C691   C     0.72328   0.24250   0.18698   0.00000  Uiso   1.00
C692   C     0.80575   0.22096   0.17656   0.00000  Uiso   1.00
C693   C     0.82737   0.15354   0.16001   0.00000  Uiso   1.00
C694   C     0.90574   0.14465   0.15269   0.00000  Uiso   1.00
C695   C     0.02546   0.10261   0.13514   0.00000  Uiso   1.00
C696   C     0.70671   0.32140   0.17120   0.00000  Uiso   1.00
C697   C     0.64506   0.33843   0.15014   0.00000  Uiso   1.00
C698   C     0.64005   0.41410   0.13831   0.00000  Uiso   1.00
C699   C     0.60599   0.52801   0.11246   0.00000  Uiso   1.00
C700   C     0.72640   0.25650   0.22444   0.00000  Uiso   1.00
C701   C     0.68130   0.21898   0.24816   0.00000  Uiso   1.00
C702   C     0.69287   0.24002   0.28116   0.00000  Uiso   1.00
C703   C     0.68938   0.25317   0.33798   0.00000  Uiso   1.00
C704   C     0.82401   0.34662   0.20342   0.00000  Uiso   1.00
C705   C     0.86046   0.27751   0.18549   0.00000  Uiso   1.00
C706   C     0.93882   0.26872   0.17820   0.00000  Uiso   1.00
C707   C     0.96055   0.20130   0.16164   0.00000  Uiso   1.00
C708   C     0.76142   0.37795   0.18013   0.00000  Uiso   1.00
C709   C     0.75650   0.45361   0.16833   0.00000  Uiso   1.00
C710   C     0.69486   0.47075   0.14726   0.00000  Uiso   1.00
C711   C     0.78112   0.31305   0.23338   0.00000  Uiso   1.00
C712   C     0.79275   0.33416   0.26635   0.00000  Uiso   1.00
C713   C     0.74768   0.29667   0.29011   0.00000  Uiso   1.00
H714   H     0.68068   0.19848   0.18002   0.00000  Uiso   1.00
H715   H     0.78501   0.10979   0.15310   0.00000  Uiso   1.00
H716   H     0.60272   0.29465   0.14323   0.00000  Uiso   1.00
H717   H     0.63897   0.17522   0.24124   0.00000  Uiso   1.00
H718   H     0.92480   0.03641   0.12717   0.00000  Uiso   1.00
H719   H     0.54043   0.42621   0.10638   0.00000  Uiso   1.00
H720   H     0.61685   0.17436   0.31304   0.00000  Uiso   1.00
H721   H     0.86660   0.39065   0.21038   0.00000  Uiso   1.00
H722   H     0.98114   0.31250   0.18512   0.00000  Uiso   1.00
H723   H     0.79885   0.49736   0.17525   0.00000  Uiso   1.00
H724   H     0.83509   0.37793   0.27326   0.00000  Uiso   1.00
H725   H     0.08399   0.20094   0.15316   0.00000  Uiso   1.00
H726   H     0.69961   0.59074   0.13237   0.00000  Uiso   1.00
H727   H     0.77603   0.33889   0.33903   0.00000  Uiso   1.00
O728   O     0.07639   0.06381   0.12299   0.00000  Uiso   1.00
O729   O     0.57209   0.57522   0.09572   0.00000  Uiso   1.00
O730   O     0.67236   0.24479   0.36685   0.00000  Uiso   1.00
N731   N     0.94655   0.08585   0.13676   0.00000  Uiso   1.00
N732   N     0.58719   0.45029   0.11732   0.00000  Uiso   1.00
N733   N     0.65862   0.21484   0.31053   0.00000  Uiso   1.00
N734   N     0.03221   0.17438   0.15074   0.00000  Uiso   1.00
N735   N     0.67285   0.53882   0.13130   0.00000  Uiso   1.00
N736   N     0.74428   0.30337   0.32451   0.00000  Uiso   1.00
