data_job_01607
_audit_creation_date              2018-12-19
_audit_creation_method            'Materials Studio'
_symmetry_space_group_name_H-M    'P1'
_symmetry_Int_Tables_number       1
_symmetry_cell_setting            triclinic
loop_
_symmetry_equiv_pos_as_xyz
  x,y,z
_cell_length_a                    21.7663
_cell_length_b                    21.7663
_cell_length_c                    20.3379
_cell_angle_alpha                 90.0000
_cell_angle_beta                  90.0000
_cell_angle_gamma                 90.0000
loop_
_atom_site_label
_atom_site_type_symbol
_atom_site_fract_x
_atom_site_fract_y
_atom_site_fract_z
_atom_site_U_iso_or_equiv
_atom_site_adp_type
_atom_site_occupancy
C1     C     0.62883   0.41409   0.19656   0.00000  Uiso   1.00
C2     C     0.65138   0.43292   0.12848   0.00000  Uiso   1.00
C3     C     0.61822   0.42797   0.07044   0.00000  Uiso   1.00
C4     C     0.64698   0.44771   0.01328   0.00000  Uiso   1.00
C5     C     0.67290   0.47330   0.90744   0.00000  Uiso   1.00
C6     C     0.67587   0.36827   0.22269   0.00000  Uiso   1.00
C7     C     0.66330   0.30898   0.24387   0.00000  Uiso   1.00
C8     C     0.71267   0.27430   0.26603   0.00000  Uiso   1.00
C9     C     0.77662   0.19953   0.30649   0.00000  Uiso   1.00
C10    C     0.63466   0.47112   0.23965   0.00000  Uiso   1.00
C11    C     0.58744   0.49829   0.27511   0.00000  Uiso   1.00
C12    C     0.60211   0.55019   0.31156   0.00000  Uiso   1.00
C13    C     0.60206   0.63511   0.37835   0.00000  Uiso   1.00
C14    C     0.73886   0.45794   0.19826   0.00000  Uiso   1.00
C15    C     0.71114   0.45673   0.12941   0.00000  Uiso   1.00
C16    C     0.73996   0.47648   0.07233   0.00000  Uiso   1.00
C17    C     0.70685   0.47157   0.01421   0.00000  Uiso   1.00
C18    C     0.73563   0.39208   0.22362   0.00000  Uiso   1.00
C19    C     0.78504   0.35749   0.24576   0.00000  Uiso   1.00
C20    C     0.77255   0.29815   0.26696   0.00000  Uiso   1.00
C21    C     0.69442   0.49494   0.24058   0.00000  Uiso   1.00
C22    C     0.70917   0.54680   0.27699   0.00000  Uiso   1.00
C23    C     0.66198   0.57405   0.31248   0.00000  Uiso   1.00
H24    H     0.58231   0.39555   0.19584   0.00000  Uiso   1.00
H25    H     0.57197   0.40954   0.06975   0.00000  Uiso   1.00
H26    H     0.61705   0.29056   0.24316   0.00000  Uiso   1.00
H27    H     0.54120   0.47985   0.27438   0.00000  Uiso   1.00
H28    H     0.58688   0.43553   0.93036   0.00000  Uiso   1.00
H29    H     0.68192   0.18467   0.29602   0.00000  Uiso   1.00
H30    H     0.52197   0.58382   0.36187   0.00000  Uiso   1.00
H31    H     0.78539   0.47648   0.19898   0.00000  Uiso   1.00
H32    H     0.78620   0.49491   0.07306   0.00000  Uiso   1.00
H33    H     0.83128   0.37593   0.24647   0.00000  Uiso   1.00
H34    H     0.75542   0.56522   0.27769   0.00000  Uiso   1.00
H35    H     0.76076   0.50482   0.93304   0.00000  Uiso   1.00
H36    H     0.85579   0.25396   0.29871   0.00000  Uiso   1.00
H37    H     0.69585   0.65311   0.36455   0.00000  Uiso   1.00
O38    O     0.67070   0.48082   0.84880   0.00000  Uiso   1.00
O39    O     0.79538   0.15171   0.32855   0.00000  Uiso   1.00
O40    O     0.58553   0.67538   0.41494   0.00000  Uiso   1.00
N41    N     0.62769   0.44932   0.94827   0.00000  Uiso   1.00
N42    N     0.71654   0.21478   0.29013   0.00000  Uiso   1.00
N43    N     0.56701   0.58794   0.35171   0.00000  Uiso   1.00
N44    N     0.72125   0.48660   0.94972   0.00000  Uiso   1.00
N45    N     0.81010   0.25206   0.29158   0.00000  Uiso   1.00
N46    N     0.66057   0.62522   0.35315   0.00000  Uiso   1.00
C47    C     0.12883   0.91409   0.69656   0.00000  Uiso   1.00
C48    C     0.15138   0.93292   0.62848   0.00000  Uiso   1.00
C49    C     0.11822   0.92797   0.57044   0.00000  Uiso   1.00
C50    C     0.14698   0.94771   0.51328   0.00000  Uiso   1.00
C51    C     0.17290   0.97330   0.40744   0.00000  Uiso   1.00
C52    C     0.17587   0.86827   0.72269   0.00000  Uiso   1.00
C53    C     0.16330   0.80898   0.74387   0.00000  Uiso   1.00
C54    C     0.21267   0.77430   0.76603   0.00000  Uiso   1.00
C55    C     0.27662   0.69953   0.80649   0.00000  Uiso   1.00
C56    C     0.13466   0.97112   0.73965   0.00000  Uiso   1.00
C57    C     0.08744   0.99829   0.77511   0.00000  Uiso   1.00
C58    C     0.10211   0.05019   0.81156   0.00000  Uiso   1.00
C59    C     0.10206   0.13511   0.87835   0.00000  Uiso   1.00
C60    C     0.23886   0.95794   0.69826   0.00000  Uiso   1.00
C61    C     0.21114   0.95673   0.62941   0.00000  Uiso   1.00
C62    C     0.23996   0.97648   0.57233   0.00000  Uiso   1.00
C63    C     0.20685   0.97157   0.51421   0.00000  Uiso   1.00
C64    C     0.23563   0.89208   0.72362   0.00000  Uiso   1.00
C65    C     0.28504   0.85749   0.74576   0.00000  Uiso   1.00
C66    C     0.27255   0.79815   0.76696   0.00000  Uiso   1.00
C67    C     0.19442   0.99494   0.74058   0.00000  Uiso   1.00
C68    C     0.20917   0.04680   0.77699   0.00000  Uiso   1.00
C69    C     0.16198   0.07405   0.81248   0.00000  Uiso   1.00
H70    H     0.08231   0.89555   0.69584   0.00000  Uiso   1.00
H71    H     0.07197   0.90954   0.56975   0.00000  Uiso   1.00
H72    H     0.11705   0.79056   0.74316   0.00000  Uiso   1.00
H73    H     0.04120   0.97985   0.77438   0.00000  Uiso   1.00
H74    H     0.08688   0.93553   0.43036   0.00000  Uiso   1.00
H75    H     0.18192   0.68467   0.79602   0.00000  Uiso   1.00
H76    H     0.02197   0.08382   0.86187   0.00000  Uiso   1.00
H77    H     0.28539   0.97648   0.69898   0.00000  Uiso   1.00
H78    H     0.28620   0.99491   0.57306   0.00000  Uiso   1.00
H79    H     0.33128   0.87593   0.74647   0.00000  Uiso   1.00
H80    H     0.25542   0.06522   0.77769   0.00000  Uiso   1.00
H81    H     0.26076   0.00482   0.43304   0.00000  Uiso   1.00
H82    H     0.35579   0.75396   0.79871   0.00000  Uiso   1.00
H83    H     0.19585   0.15311   0.86455   0.00000  Uiso   1.00
O84    O     0.17070   0.98082   0.34880   0.00000  Uiso   1.00
O85    O     0.29538   0.65171   0.82855   0.00000  Uiso   1.00
O86    O     0.08553   0.17538   0.91494   0.00000  Uiso   1.00
N87    N     0.12769   0.94932   0.44827   0.00000  Uiso   1.00
N88    N     0.21654   0.71478   0.79013   0.00000  Uiso   1.00
N89    N     0.06701   0.08794   0.85171   0.00000  Uiso   1.00
N90    N     0.22125   0.98660   0.44972   0.00000  Uiso   1.00
N91    N     0.31010   0.75206   0.79158   0.00000  Uiso   1.00
N92    N     0.16057   0.12522   0.85315   0.00000  Uiso   1.00
C93    C     0.87117   0.08591   0.69656   0.00000  Uiso   1.00
C94    C     0.84862   0.06708   0.62848   0.00000  Uiso   1.00
C95    C     0.88178   0.07203   0.57044   0.00000  Uiso   1.00
C96    C     0.85302   0.05229   0.51328   0.00000  Uiso   1.00
C97    C     0.82710   0.02670   0.40744   0.00000  Uiso   1.00
C98    C     0.82413   0.13173   0.72269   0.00000  Uiso   1.00
C99    C     0.83670   0.19102   0.74387   0.00000  Uiso   1.00
C100   C     0.78733   0.22570   0.76603   0.00000  Uiso   1.00
C101   C     0.72338   0.30047   0.80649   0.00000  Uiso   1.00
C102   C     0.86534   0.02888   0.73965   0.00000  Uiso   1.00
C103   C     0.91256   0.00171   0.77511   0.00000  Uiso   1.00
C104   C     0.89789   0.94981   0.81156   0.00000  Uiso   1.00
C105   C     0.89794   0.86489   0.87835   0.00000  Uiso   1.00
C106   C     0.76114   0.04206   0.69826   0.00000  Uiso   1.00
C107   C     0.78886   0.04327   0.62941   0.00000  Uiso   1.00
C108   C     0.76004   0.02352   0.57233   0.00000  Uiso   1.00
C109   C     0.79315   0.02843   0.51421   0.00000  Uiso   1.00
C110   C     0.76437   0.10792   0.72362   0.00000  Uiso   1.00
C111   C     0.71496   0.14251   0.74576   0.00000  Uiso   1.00
C112   C     0.72745   0.20185   0.76696   0.00000  Uiso   1.00
C113   C     0.80558   0.00506   0.74058   0.00000  Uiso   1.00
C114   C     0.79083   0.95320   0.77699   0.00000  Uiso   1.00
C115   C     0.83802   0.92595   0.81248   0.00000  Uiso   1.00
H116   H     0.91769   0.10445   0.69584   0.00000  Uiso   1.00
H117   H     0.92803   0.09046   0.56975   0.00000  Uiso   1.00
H118   H     0.88295   0.20944   0.74316   0.00000  Uiso   1.00
H119   H     0.95880   0.02015   0.77438   0.00000  Uiso   1.00
H120   H     0.91312   0.06447   0.43036   0.00000  Uiso   1.00
H121   H     0.81808   0.31533   0.79602   0.00000  Uiso   1.00
H122   H     0.97803   0.91618   0.86187   0.00000  Uiso   1.00
H123   H     0.71461   0.02352   0.69898   0.00000  Uiso   1.00
H124   H     0.71380   0.00509   0.57306   0.00000  Uiso   1.00
H125   H     0.66872   0.12407   0.74647   0.00000  Uiso   1.00
H126   H     0.74458   0.93478   0.77769   0.00000  Uiso   1.00
H127   H     0.73924   0.99518   0.43304   0.00000  Uiso   1.00
H128   H     0.64421   0.24604   0.79871   0.00000  Uiso   1.00
H129   H     0.80415   0.84689   0.86455   0.00000  Uiso   1.00
O130   O     0.82930   0.01918   0.34880   0.00000  Uiso   1.00
O131   O     0.70462   0.34829   0.82855   0.00000  Uiso   1.00
O132   O     0.91447   0.82462   0.91494   0.00000  Uiso   1.00
N133   N     0.87231   0.05068   0.44827   0.00000  Uiso   1.00
N134   N     0.78346   0.28522   0.79013   0.00000  Uiso   1.00
N135   N     0.93299   0.91206   0.85171   0.00000  Uiso   1.00
N136   N     0.77875   0.01340   0.44972   0.00000  Uiso   1.00
N137   N     0.68990   0.24794   0.79158   0.00000  Uiso   1.00
N138   N     0.83943   0.87478   0.85315   0.00000  Uiso   1.00
C139   C     0.37117   0.58591   0.19656   0.00000  Uiso   1.00
C140   C     0.34862   0.56708   0.12848   0.00000  Uiso   1.00
C141   C     0.38178   0.57203   0.07044   0.00000  Uiso   1.00
C142   C     0.35302   0.55229   0.01328   0.00000  Uiso   1.00
C143   C     0.32710   0.52670   0.90744   0.00000  Uiso   1.00
C144   C     0.32413   0.63173   0.22269   0.00000  Uiso   1.00
C145   C     0.33670   0.69102   0.24387   0.00000  Uiso   1.00
C146   C     0.28733   0.72570   0.26603   0.00000  Uiso   1.00
C147   C     0.22338   0.80047   0.30649   0.00000  Uiso   1.00
C148   C     0.36534   0.52888   0.23965   0.00000  Uiso   1.00
C149   C     0.41256   0.50171   0.27511   0.00000  Uiso   1.00
C150   C     0.39789   0.44981   0.31156   0.00000  Uiso   1.00
C151   C     0.39794   0.36489   0.37835   0.00000  Uiso   1.00
C152   C     0.26114   0.54206   0.19826   0.00000  Uiso   1.00
C153   C     0.28886   0.54327   0.12941   0.00000  Uiso   1.00
C154   C     0.26004   0.52352   0.07233   0.00000  Uiso   1.00
C155   C     0.29315   0.52843   0.01421   0.00000  Uiso   1.00
C156   C     0.26437   0.60792   0.22362   0.00000  Uiso   1.00
C157   C     0.21496   0.64251   0.24576   0.00000  Uiso   1.00
C158   C     0.22745   0.70185   0.26696   0.00000  Uiso   1.00
C159   C     0.30558   0.50506   0.24058   0.00000  Uiso   1.00
C160   C     0.29083   0.45320   0.27699   0.00000  Uiso   1.00
C161   C     0.33802   0.42595   0.31248   0.00000  Uiso   1.00
H162   H     0.41769   0.60445   0.19584   0.00000  Uiso   1.00
H163   H     0.42803   0.59046   0.06975   0.00000  Uiso   1.00
H164   H     0.38295   0.70944   0.24316   0.00000  Uiso   1.00
H165   H     0.45880   0.52015   0.27438   0.00000  Uiso   1.00
H166   H     0.41312   0.56447   0.93036   0.00000  Uiso   1.00
H167   H     0.31808   0.81533   0.29602   0.00000  Uiso   1.00
H168   H     0.47803   0.41618   0.36187   0.00000  Uiso   1.00
H169   H     0.21461   0.52352   0.19898   0.00000  Uiso   1.00
H170   H     0.21380   0.50509   0.07306   0.00000  Uiso   1.00
H171   H     0.16872   0.62407   0.24647   0.00000  Uiso   1.00
H172   H     0.24458   0.43478   0.27769   0.00000  Uiso   1.00
H173   H     0.23924   0.49518   0.93304   0.00000  Uiso   1.00
H174   H     0.14421   0.74604   0.29871   0.00000  Uiso   1.00
H175   H     0.30415   0.34689   0.36455   0.00000  Uiso   1.00
O176   O     0.32930   0.51918   0.84880   0.00000  Uiso   1.00
O177   O     0.20462   0.84829   0.32855   0.00000  Uiso   1.00
O178   O     0.41447   0.32462   0.41494   0.00000  Uiso   1.00
N179   N     0.37231   0.55068   0.94827   0.00000  Uiso   1.00
N180   N     0.28346   0.78522   0.29013   0.00000  Uiso   1.00
N181   N     0.43299   0.41206   0.35171   0.00000  Uiso   1.00
N182   N     0.27875   0.51340   0.94972   0.00000  Uiso   1.00
N183   N     0.18990   0.74794   0.29158   0.00000  Uiso   1.00
N184   N     0.33943   0.37478   0.35315   0.00000  Uiso   1.00
C185   C     0.58591   0.12883   0.44656   0.00000  Uiso   1.00
C186   C     0.56708   0.15138   0.37848   0.00000  Uiso   1.00
C187   C     0.57203   0.11822   0.32044   0.00000  Uiso   1.00
C188   C     0.55229   0.14698   0.26328   0.00000  Uiso   1.00
C189   C     0.52670   0.17290   0.15744   0.00000  Uiso   1.00
C190   C     0.63173   0.17587   0.47269   0.00000  Uiso   1.00
C191   C     0.69102   0.16330   0.49387   0.00000  Uiso   1.00
C192   C     0.72570   0.21267   0.51603   0.00000  Uiso   1.00
C193   C     0.80047   0.27662   0.55649   0.00000  Uiso   1.00
C194   C     0.52888   0.13466   0.48965   0.00000  Uiso   1.00
C195   C     0.50171   0.08744   0.52511   0.00000  Uiso   1.00
C196   C     0.44981   0.10211   0.56156   0.00000  Uiso   1.00
C197   C     0.36489   0.10206   0.62835   0.00000  Uiso   1.00
C198   C     0.54206   0.23886   0.44826   0.00000  Uiso   1.00
C199   C     0.54327   0.21114   0.37941   0.00000  Uiso   1.00
C200   C     0.52352   0.23996   0.32233   0.00000  Uiso   1.00
C201   C     0.52843   0.20685   0.26421   0.00000  Uiso   1.00
C202   C     0.60792   0.23563   0.47362   0.00000  Uiso   1.00
C203   C     0.64251   0.28504   0.49576   0.00000  Uiso   1.00
C204   C     0.70185   0.27255   0.51696   0.00000  Uiso   1.00
C205   C     0.50506   0.19442   0.49058   0.00000  Uiso   1.00
C206   C     0.45320   0.20917   0.52699   0.00000  Uiso   1.00
C207   C     0.42595   0.16198   0.56248   0.00000  Uiso   1.00
H208   H     0.60445   0.08231   0.44584   0.00000  Uiso   1.00
H209   H     0.59046   0.07197   0.31975   0.00000  Uiso   1.00
H210   H     0.70944   0.11705   0.49316   0.00000  Uiso   1.00
H211   H     0.52015   0.04120   0.52438   0.00000  Uiso   1.00
H212   H     0.56447   0.08688   0.18036   0.00000  Uiso   1.00
H213   H     0.81533   0.18192   0.54602   0.00000  Uiso   1.00
H214   H     0.41618   0.02197   0.61187   0.00000  Uiso   1.00
H215   H     0.52352   0.28539   0.44898   0.00000  Uiso   1.00
H216   H     0.50509   0.28620   0.32306   0.00000  Uiso   1.00
H217   H     0.62407   0.33128   0.49647   0.00000  Uiso   1.00
H218   H     0.43478   0.25542   0.52769   0.00000  Uiso   1.00
H219   H     0.49518   0.26076   0.18304   0.00000  Uiso   1.00
H220   H     0.74604   0.35579   0.54871   0.00000  Uiso   1.00
H221   H     0.34689   0.19585   0.61455   0.00000  Uiso   1.00
O222   O     0.51918   0.17070   0.09880   0.00000  Uiso   1.00
O223   O     0.84829   0.29538   0.57855   0.00000  Uiso   1.00
O224   O     0.32462   0.08553   0.66494   0.00000  Uiso   1.00
N225   N     0.55068   0.12769   0.19827   0.00000  Uiso   1.00
N226   N     0.78522   0.21654   0.54013   0.00000  Uiso   1.00
N227   N     0.41206   0.06701   0.60171   0.00000  Uiso   1.00
N228   N     0.51340   0.22125   0.19972   0.00000  Uiso   1.00
N229   N     0.74794   0.31010   0.54158   0.00000  Uiso   1.00
N230   N     0.37478   0.16057   0.60315   0.00000  Uiso   1.00
C231   C     0.08591   0.62883   0.94656   0.00000  Uiso   1.00
C232   C     0.06708   0.65138   0.87848   0.00000  Uiso   1.00
C233   C     0.07203   0.61822   0.82044   0.00000  Uiso   1.00
C234   C     0.05229   0.64698   0.76328   0.00000  Uiso   1.00
C235   C     0.02670   0.67290   0.65744   0.00000  Uiso   1.00
C236   C     0.13173   0.67587   0.97269   0.00000  Uiso   1.00
C237   C     0.19102   0.66330   0.99387   0.00000  Uiso   1.00
C238   C     0.22570   0.71267   0.01603   0.00000  Uiso   1.00
C239   C     0.30047   0.77662   0.05649   0.00000  Uiso   1.00
C240   C     0.02888   0.63466   0.98965   0.00000  Uiso   1.00
C241   C     0.00171   0.58744   0.02511   0.00000  Uiso   1.00
C242   C     0.94981   0.60211   0.06156   0.00000  Uiso   1.00
C243   C     0.86489   0.60206   0.12835   0.00000  Uiso   1.00
C244   C     0.04206   0.73886   0.94826   0.00000  Uiso   1.00
C245   C     0.04327   0.71114   0.87941   0.00000  Uiso   1.00
C246   C     0.02352   0.73996   0.82233   0.00000  Uiso   1.00
C247   C     0.02843   0.70685   0.76421   0.00000  Uiso   1.00
C248   C     0.10792   0.73563   0.97362   0.00000  Uiso   1.00
C249   C     0.14251   0.78504   0.99576   0.00000  Uiso   1.00
C250   C     0.20185   0.77255   0.01696   0.00000  Uiso   1.00
C251   C     0.00506   0.69442   0.99058   0.00000  Uiso   1.00
C252   C     0.95320   0.70917   0.02699   0.00000  Uiso   1.00
C253   C     0.92595   0.66198   0.06248   0.00000  Uiso   1.00
H254   H     0.10445   0.58231   0.94584   0.00000  Uiso   1.00
H255   H     0.09046   0.57197   0.81975   0.00000  Uiso   1.00
H256   H     0.20944   0.61705   0.99316   0.00000  Uiso   1.00
H257   H     0.02015   0.54120   0.02438   0.00000  Uiso   1.00
H258   H     0.06447   0.58688   0.68036   0.00000  Uiso   1.00
H259   H     0.31533   0.68192   0.04602   0.00000  Uiso   1.00
H260   H     0.91618   0.52197   0.11187   0.00000  Uiso   1.00
H261   H     0.02352   0.78539   0.94898   0.00000  Uiso   1.00
H262   H     0.00509   0.78620   0.82306   0.00000  Uiso   1.00
H263   H     0.12407   0.83128   0.99647   0.00000  Uiso   1.00
H264   H     0.93478   0.75542   0.02769   0.00000  Uiso   1.00
H265   H     0.99518   0.76076   0.68304   0.00000  Uiso   1.00
H266   H     0.24604   0.85579   0.04871   0.00000  Uiso   1.00
H267   H     0.84689   0.69585   0.11455   0.00000  Uiso   1.00
O268   O     0.01918   0.67070   0.59880   0.00000  Uiso   1.00
O269   O     0.34829   0.79538   0.07855   0.00000  Uiso   1.00
O270   O     0.82462   0.58553   0.16494   0.00000  Uiso   1.00
N271   N     0.05068   0.62769   0.69827   0.00000  Uiso   1.00
N272   N     0.28522   0.71654   0.04013   0.00000  Uiso   1.00
N273   N     0.91206   0.56701   0.10171   0.00000  Uiso   1.00
N274   N     0.01340   0.72125   0.69972   0.00000  Uiso   1.00
N275   N     0.24794   0.81010   0.04158   0.00000  Uiso   1.00
N276   N     0.87478   0.66057   0.10315   0.00000  Uiso   1.00
C277   C     0.91409   0.37117   0.94656   0.00000  Uiso   1.00
C278   C     0.93292   0.34862   0.87848   0.00000  Uiso   1.00
C279   C     0.92797   0.38178   0.82044   0.00000  Uiso   1.00
C280   C     0.94771   0.35302   0.76328   0.00000  Uiso   1.00
C281   C     0.97330   0.32710   0.65744   0.00000  Uiso   1.00
C282   C     0.86827   0.32413   0.97269   0.00000  Uiso   1.00
C283   C     0.80898   0.33670   0.99387   0.00000  Uiso   1.00
C284   C     0.77430   0.28733   0.01603   0.00000  Uiso   1.00
C285   C     0.69953   0.22338   0.05649   0.00000  Uiso   1.00
C286   C     0.97112   0.36534   0.98965   0.00000  Uiso   1.00
C287   C     0.99829   0.41256   0.02511   0.00000  Uiso   1.00
C288   C     0.05019   0.39789   0.06156   0.00000  Uiso   1.00
C289   C     0.13511   0.39794   0.12835   0.00000  Uiso   1.00
C290   C     0.95794   0.26114   0.94826   0.00000  Uiso   1.00
C291   C     0.95673   0.28886   0.87941   0.00000  Uiso   1.00
C292   C     0.97648   0.26004   0.82233   0.00000  Uiso   1.00
C293   C     0.97157   0.29315   0.76421   0.00000  Uiso   1.00
C294   C     0.89208   0.26437   0.97362   0.00000  Uiso   1.00
C295   C     0.85749   0.21496   0.99576   0.00000  Uiso   1.00
C296   C     0.79815   0.22745   0.01696   0.00000  Uiso   1.00
C297   C     0.99494   0.30558   0.99058   0.00000  Uiso   1.00
C298   C     0.04680   0.29083   0.02699   0.00000  Uiso   1.00
C299   C     0.07405   0.33802   0.06248   0.00000  Uiso   1.00
H300   H     0.89555   0.41769   0.94584   0.00000  Uiso   1.00
H301   H     0.90954   0.42803   0.81975   0.00000  Uiso   1.00
H302   H     0.79056   0.38295   0.99316   0.00000  Uiso   1.00
H303   H     0.97985   0.45880   0.02438   0.00000  Uiso   1.00
H304   H     0.93553   0.41312   0.68036   0.00000  Uiso   1.00
H305   H     0.68467   0.31808   0.04602   0.00000  Uiso   1.00
H306   H     0.08382   0.47803   0.11187   0.00000  Uiso   1.00
H307   H     0.97648   0.21461   0.94898   0.00000  Uiso   1.00
H308   H     0.99491   0.21380   0.82306   0.00000  Uiso   1.00
H309   H     0.87593   0.16872   0.99647   0.00000  Uiso   1.00
H310   H     0.06522   0.24458   0.02769   0.00000  Uiso   1.00
H311   H     0.00482   0.23924   0.68304   0.00000  Uiso   1.00
H312   H     0.75396   0.14421   0.04871   0.00000  Uiso   1.00
H313   H     0.15311   0.30415   0.11455   0.00000  Uiso   1.00
O314   O     0.98082   0.32930   0.59880   0.00000  Uiso   1.00
O315   O     0.65171   0.20462   0.07855   0.00000  Uiso   1.00
O316   O     0.17538   0.41447   0.16494   0.00000  Uiso   1.00
N317   N     0.94932   0.37231   0.69827   0.00000  Uiso   1.00
N318   N     0.71478   0.28346   0.04013   0.00000  Uiso   1.00
N319   N     0.08794   0.43299   0.10171   0.00000  Uiso   1.00
N320   N     0.98660   0.27875   0.69972   0.00000  Uiso   1.00
N321   N     0.75206   0.18990   0.04158   0.00000  Uiso   1.00
N322   N     0.12522   0.33943   0.10315   0.00000  Uiso   1.00
C323   C     0.41409   0.87117   0.44656   0.00000  Uiso   1.00
C324   C     0.43292   0.84862   0.37848   0.00000  Uiso   1.00
C325   C     0.42797   0.88178   0.32044   0.00000  Uiso   1.00
C326   C     0.44771   0.85302   0.26328   0.00000  Uiso   1.00
C327   C     0.47330   0.82710   0.15744   0.00000  Uiso   1.00
C328   C     0.36827   0.82413   0.47269   0.00000  Uiso   1.00
C329   C     0.30898   0.83670   0.49387   0.00000  Uiso   1.00
C330   C     0.27430   0.78733   0.51603   0.00000  Uiso   1.00
C331   C     0.19953   0.72338   0.55649   0.00000  Uiso   1.00
C332   C     0.47112   0.86534   0.48965   0.00000  Uiso   1.00
C333   C     0.49829   0.91256   0.52511   0.00000  Uiso   1.00
C334   C     0.55019   0.89789   0.56156   0.00000  Uiso   1.00
C335   C     0.63511   0.89794   0.62835   0.00000  Uiso   1.00
C336   C     0.45794   0.76114   0.44826   0.00000  Uiso   1.00
C337   C     0.45673   0.78886   0.37941   0.00000  Uiso   1.00
C338   C     0.47648   0.76004   0.32233   0.00000  Uiso   1.00
C339   C     0.47157   0.79315   0.26421   0.00000  Uiso   1.00
C340   C     0.39208   0.76437   0.47362   0.00000  Uiso   1.00
C341   C     0.35749   0.71496   0.49576   0.00000  Uiso   1.00
C342   C     0.29815   0.72745   0.51696   0.00000  Uiso   1.00
C343   C     0.49494   0.80558   0.49058   0.00000  Uiso   1.00
C344   C     0.54680   0.79083   0.52699   0.00000  Uiso   1.00
C345   C     0.57405   0.83802   0.56248   0.00000  Uiso   1.00
H346   H     0.39555   0.91769   0.44584   0.00000  Uiso   1.00
H347   H     0.40954   0.92803   0.31975   0.00000  Uiso   1.00
H348   H     0.29056   0.88295   0.49316   0.00000  Uiso   1.00
H349   H     0.47985   0.95880   0.52438   0.00000  Uiso   1.00
H350   H     0.43553   0.91312   0.18036   0.00000  Uiso   1.00
H351   H     0.18467   0.81808   0.54602   0.00000  Uiso   1.00
H352   H     0.58382   0.97803   0.61187   0.00000  Uiso   1.00
H353   H     0.47648   0.71461   0.44898   0.00000  Uiso   1.00
H354   H     0.49491   0.71380   0.32306   0.00000  Uiso   1.00
H355   H     0.37593   0.66872   0.49647   0.00000  Uiso   1.00
H356   H     0.56522   0.74458   0.52769   0.00000  Uiso   1.00
H357   H     0.50482   0.73924   0.18304   0.00000  Uiso   1.00
H358   H     0.25396   0.64421   0.54871   0.00000  Uiso   1.00
H359   H     0.65311   0.80415   0.61455   0.00000  Uiso   1.00
O360   O     0.48082   0.82930   0.09880   0.00000  Uiso   1.00
O361   O     0.15171   0.70462   0.57855   0.00000  Uiso   1.00
O362   O     0.67538   0.91447   0.66494   0.00000  Uiso   1.00
N363   N     0.44932   0.87231   0.19827   0.00000  Uiso   1.00
N364   N     0.21478   0.78346   0.54013   0.00000  Uiso   1.00
N365   N     0.58794   0.93299   0.60171   0.00000  Uiso   1.00
N366   N     0.48660   0.77875   0.19972   0.00000  Uiso   1.00
N367   N     0.25206   0.68990   0.54158   0.00000  Uiso   1.00
N368   N     0.62522   0.83943   0.60315   0.00000  Uiso   1.00
C369   C     0.37117   0.08591   0.05344   0.00000  Uiso   1.00
C370   C     0.34862   0.06708   0.12152   0.00000  Uiso   1.00
C371   C     0.38178   0.07203   0.17956   0.00000  Uiso   1.00
C372   C     0.35302   0.05229   0.23672   0.00000  Uiso   1.00
C373   C     0.32710   0.02670   0.34256   0.00000  Uiso   1.00
C374   C     0.32413   0.13173   0.02731   0.00000  Uiso   1.00
C375   C     0.33670   0.19102   0.00613   0.00000  Uiso   1.00
C376   C     0.28733   0.22570   0.98397   0.00000  Uiso   1.00
C377   C     0.22338   0.30047   0.94351   0.00000  Uiso   1.00
C378   C     0.36534   0.02888   0.01035   0.00000  Uiso   1.00
C379   C     0.41256   0.00171   0.97489   0.00000  Uiso   1.00
C380   C     0.39789   0.94981   0.93844   0.00000  Uiso   1.00
C381   C     0.39794   0.86489   0.87165   0.00000  Uiso   1.00
C382   C     0.26114   0.04206   0.05174   0.00000  Uiso   1.00
C383   C     0.28886   0.04327   0.12059   0.00000  Uiso   1.00
C384   C     0.26004   0.02352   0.17767   0.00000  Uiso   1.00
C385   C     0.29315   0.02843   0.23579   0.00000  Uiso   1.00
C386   C     0.26437   0.10792   0.02638   0.00000  Uiso   1.00
C387   C     0.21496   0.14251   0.00424   0.00000  Uiso   1.00
C388   C     0.22745   0.20185   0.98304   0.00000  Uiso   1.00
C389   C     0.30558   0.00506   0.00942   0.00000  Uiso   1.00
C390   C     0.29083   0.95320   0.97301   0.00000  Uiso   1.00
C391   C     0.33802   0.92595   0.93752   0.00000  Uiso   1.00
H392   H     0.41769   0.10445   0.05416   0.00000  Uiso   1.00
H393   H     0.42803   0.09046   0.18025   0.00000  Uiso   1.00
H394   H     0.38295   0.20944   0.00684   0.00000  Uiso   1.00
H395   H     0.45880   0.02015   0.97562   0.00000  Uiso   1.00
H396   H     0.41312   0.06447   0.31964   0.00000  Uiso   1.00
H397   H     0.31808   0.31533   0.95398   0.00000  Uiso   1.00
H398   H     0.47803   0.91618   0.88813   0.00000  Uiso   1.00
H399   H     0.21461   0.02352   0.05102   0.00000  Uiso   1.00
H400   H     0.21380   0.00509   0.17694   0.00000  Uiso   1.00
H401   H     0.16872   0.12407   0.00353   0.00000  Uiso   1.00
H402   H     0.24458   0.93478   0.97231   0.00000  Uiso   1.00
H403   H     0.23924   0.99518   0.31696   0.00000  Uiso   1.00
H404   H     0.14421   0.24604   0.95129   0.00000  Uiso   1.00
H405   H     0.30415   0.84689   0.88545   0.00000  Uiso   1.00
O406   O     0.32930   0.01918   0.40120   0.00000  Uiso   1.00
O407   O     0.20462   0.34829   0.92145   0.00000  Uiso   1.00
O408   O     0.41447   0.82462   0.83506   0.00000  Uiso   1.00
N409   N     0.37231   0.05068   0.30173   0.00000  Uiso   1.00
N410   N     0.28346   0.28522   0.95987   0.00000  Uiso   1.00
N411   N     0.43299   0.91206   0.89829   0.00000  Uiso   1.00
N412   N     0.27875   0.01340   0.30028   0.00000  Uiso   1.00
N413   N     0.18990   0.24794   0.95842   0.00000  Uiso   1.00
N414   N     0.33943   0.87478   0.89685   0.00000  Uiso   1.00
C415   C     0.87117   0.58591   0.55344   0.00000  Uiso   1.00
C416   C     0.84862   0.56708   0.62152   0.00000  Uiso   1.00
C417   C     0.88178   0.57203   0.67956   0.00000  Uiso   1.00
C418   C     0.85302   0.55229   0.73672   0.00000  Uiso   1.00
C419   C     0.82710   0.52670   0.84256   0.00000  Uiso   1.00
C420   C     0.82413   0.63173   0.52731   0.00000  Uiso   1.00
C421   C     0.83670   0.69102   0.50613   0.00000  Uiso   1.00
C422   C     0.78733   0.72570   0.48397   0.00000  Uiso   1.00
C423   C     0.72338   0.80047   0.44351   0.00000  Uiso   1.00
C424   C     0.86534   0.52888   0.51035   0.00000  Uiso   1.00
C425   C     0.91256   0.50171   0.47489   0.00000  Uiso   1.00
C426   C     0.89789   0.44981   0.43844   0.00000  Uiso   1.00
C427   C     0.89794   0.36489   0.37165   0.00000  Uiso   1.00
C428   C     0.76114   0.54206   0.55174   0.00000  Uiso   1.00
C429   C     0.78886   0.54327   0.62059   0.00000  Uiso   1.00
C430   C     0.76004   0.52352   0.67767   0.00000  Uiso   1.00
C431   C     0.79315   0.52843   0.73579   0.00000  Uiso   1.00
C432   C     0.76437   0.60792   0.52638   0.00000  Uiso   1.00
C433   C     0.71496   0.64251   0.50424   0.00000  Uiso   1.00
C434   C     0.72745   0.70185   0.48304   0.00000  Uiso   1.00
C435   C     0.80558   0.50506   0.50942   0.00000  Uiso   1.00
C436   C     0.79083   0.45320   0.47301   0.00000  Uiso   1.00
C437   C     0.83802   0.42595   0.43752   0.00000  Uiso   1.00
H438   H     0.91769   0.60445   0.55416   0.00000  Uiso   1.00
H439   H     0.92803   0.59046   0.68025   0.00000  Uiso   1.00
H440   H     0.88295   0.70944   0.50684   0.00000  Uiso   1.00
H441   H     0.95880   0.52015   0.47562   0.00000  Uiso   1.00
H442   H     0.91312   0.56447   0.81964   0.00000  Uiso   1.00
H443   H     0.81808   0.81533   0.45398   0.00000  Uiso   1.00
H444   H     0.97803   0.41618   0.38813   0.00000  Uiso   1.00
H445   H     0.71461   0.52352   0.55102   0.00000  Uiso   1.00
H446   H     0.71380   0.50509   0.67694   0.00000  Uiso   1.00
H447   H     0.66872   0.62407   0.50353   0.00000  Uiso   1.00
H448   H     0.74458   0.43478   0.47231   0.00000  Uiso   1.00
H449   H     0.73924   0.49518   0.81696   0.00000  Uiso   1.00
H450   H     0.64421   0.74604   0.45129   0.00000  Uiso   1.00
H451   H     0.80415   0.34689   0.38545   0.00000  Uiso   1.00
O452   O     0.82930   0.51918   0.90120   0.00000  Uiso   1.00
O453   O     0.70462   0.84829   0.42145   0.00000  Uiso   1.00
O454   O     0.91447   0.32462   0.33506   0.00000  Uiso   1.00
N455   N     0.87231   0.55068   0.80173   0.00000  Uiso   1.00
N456   N     0.78346   0.78522   0.45987   0.00000  Uiso   1.00
N457   N     0.93299   0.41206   0.39829   0.00000  Uiso   1.00
N458   N     0.77875   0.51340   0.80028   0.00000  Uiso   1.00
N459   N     0.68990   0.74794   0.45842   0.00000  Uiso   1.00
N460   N     0.83943   0.37478   0.39685   0.00000  Uiso   1.00
C461   C     0.12883   0.41409   0.55344   0.00000  Uiso   1.00
C462   C     0.15138   0.43292   0.62152   0.00000  Uiso   1.00
C463   C     0.11822   0.42797   0.67956   0.00000  Uiso   1.00
C464   C     0.14698   0.44771   0.73672   0.00000  Uiso   1.00
C465   C     0.17290   0.47330   0.84256   0.00000  Uiso   1.00
C466   C     0.17587   0.36827   0.52731   0.00000  Uiso   1.00
C467   C     0.16330   0.30898   0.50613   0.00000  Uiso   1.00
C468   C     0.21267   0.27430   0.48397   0.00000  Uiso   1.00
C469   C     0.27662   0.19953   0.44351   0.00000  Uiso   1.00
C470   C     0.13466   0.47112   0.51035   0.00000  Uiso   1.00
C471   C     0.08744   0.49829   0.47489   0.00000  Uiso   1.00
C472   C     0.10211   0.55019   0.43844   0.00000  Uiso   1.00
C473   C     0.10206   0.63511   0.37165   0.00000  Uiso   1.00
C474   C     0.23886   0.45794   0.55174   0.00000  Uiso   1.00
C475   C     0.21114   0.45673   0.62059   0.00000  Uiso   1.00
C476   C     0.23996   0.47648   0.67767   0.00000  Uiso   1.00
C477   C     0.20685   0.47157   0.73579   0.00000  Uiso   1.00
C478   C     0.23563   0.39208   0.52638   0.00000  Uiso   1.00
C479   C     0.28504   0.35749   0.50424   0.00000  Uiso   1.00
C480   C     0.27255   0.29815   0.48304   0.00000  Uiso   1.00
C481   C     0.19442   0.49494   0.50942   0.00000  Uiso   1.00
C482   C     0.20917   0.54680   0.47301   0.00000  Uiso   1.00
C483   C     0.16198   0.57405   0.43752   0.00000  Uiso   1.00
H484   H     0.08231   0.39555   0.55416   0.00000  Uiso   1.00
H485   H     0.07197   0.40954   0.68025   0.00000  Uiso   1.00
H486   H     0.11705   0.29056   0.50684   0.00000  Uiso   1.00
H487   H     0.04120   0.47985   0.47562   0.00000  Uiso   1.00
H488   H     0.08688   0.43553   0.81964   0.00000  Uiso   1.00
H489   H     0.18192   0.18467   0.45398   0.00000  Uiso   1.00
H490   H     0.02197   0.58382   0.38813   0.00000  Uiso   1.00
H491   H     0.28539   0.47648   0.55102   0.00000  Uiso   1.00
H492   H     0.28620   0.49491   0.67694   0.00000  Uiso   1.00
H493   H     0.33128   0.37593   0.50353   0.00000  Uiso   1.00
H494   H     0.25542   0.56522   0.47231   0.00000  Uiso   1.00
H495   H     0.26076   0.50482   0.81696   0.00000  Uiso   1.00
H496   H     0.35579   0.25396   0.45129   0.00000  Uiso   1.00
H497   H     0.19585   0.65311   0.38545   0.00000  Uiso   1.00
O498   O     0.17070   0.48082   0.90120   0.00000  Uiso   1.00
O499   O     0.29538   0.15171   0.42145   0.00000  Uiso   1.00
O500   O     0.08553   0.67538   0.33506   0.00000  Uiso   1.00
N501   N     0.12769   0.44932   0.80173   0.00000  Uiso   1.00
N502   N     0.21654   0.21478   0.45987   0.00000  Uiso   1.00
N503   N     0.06701   0.58794   0.39829   0.00000  Uiso   1.00
N504   N     0.22125   0.48660   0.80028   0.00000  Uiso   1.00
N505   N     0.31010   0.25206   0.45842   0.00000  Uiso   1.00
N506   N     0.16057   0.62522   0.39685   0.00000  Uiso   1.00
C507   C     0.62883   0.91409   0.05344   0.00000  Uiso   1.00
C508   C     0.65138   0.93292   0.12152   0.00000  Uiso   1.00
C509   C     0.61822   0.92797   0.17956   0.00000  Uiso   1.00
C510   C     0.64698   0.94771   0.23672   0.00000  Uiso   1.00
C511   C     0.67290   0.97330   0.34256   0.00000  Uiso   1.00
C512   C     0.67587   0.86827   0.02731   0.00000  Uiso   1.00
C513   C     0.66330   0.80898   0.00613   0.00000  Uiso   1.00
C514   C     0.71267   0.77430   0.98397   0.00000  Uiso   1.00
C515   C     0.77662   0.69953   0.94351   0.00000  Uiso   1.00
C516   C     0.63466   0.97112   0.01035   0.00000  Uiso   1.00
C517   C     0.58744   0.99829   0.97489   0.00000  Uiso   1.00
C518   C     0.60211   0.05019   0.93844   0.00000  Uiso   1.00
C519   C     0.60206   0.13511   0.87165   0.00000  Uiso   1.00
C520   C     0.73886   0.95794   0.05174   0.00000  Uiso   1.00
C521   C     0.71114   0.95673   0.12059   0.00000  Uiso   1.00
C522   C     0.73996   0.97648   0.17767   0.00000  Uiso   1.00
C523   C     0.70685   0.97157   0.23579   0.00000  Uiso   1.00
C524   C     0.73563   0.89208   0.02638   0.00000  Uiso   1.00
C525   C     0.78504   0.85749   0.00424   0.00000  Uiso   1.00
C526   C     0.77255   0.79815   0.98304   0.00000  Uiso   1.00
C527   C     0.69442   0.99494   0.00942   0.00000  Uiso   1.00
C528   C     0.70917   0.04680   0.97301   0.00000  Uiso   1.00
C529   C     0.66198   0.07405   0.93752   0.00000  Uiso   1.00
H530   H     0.58231   0.89555   0.05416   0.00000  Uiso   1.00
H531   H     0.57197   0.90954   0.18025   0.00000  Uiso   1.00
H532   H     0.61705   0.79056   0.00684   0.00000  Uiso   1.00
H533   H     0.54120   0.97985   0.97562   0.00000  Uiso   1.00
H534   H     0.58688   0.93553   0.31964   0.00000  Uiso   1.00
H535   H     0.68192   0.68467   0.95398   0.00000  Uiso   1.00
H536   H     0.52197   0.08382   0.88813   0.00000  Uiso   1.00
H537   H     0.78539   0.97648   0.05102   0.00000  Uiso   1.00
H538   H     0.78620   0.99491   0.17694   0.00000  Uiso   1.00
H539   H     0.83128   0.87593   0.00353   0.00000  Uiso   1.00
H540   H     0.75542   0.06522   0.97231   0.00000  Uiso   1.00
H541   H     0.76076   0.00482   0.31696   0.00000  Uiso   1.00
H542   H     0.85579   0.75396   0.95129   0.00000  Uiso   1.00
H543   H     0.69585   0.15311   0.88545   0.00000  Uiso   1.00
O544   O     0.67070   0.98082   0.40120   0.00000  Uiso   1.00
O545   O     0.79538   0.65171   0.92145   0.00000  Uiso   1.00
O546   O     0.58553   0.17538   0.83506   0.00000  Uiso   1.00
N547   N     0.62769   0.94932   0.30173   0.00000  Uiso   1.00
N548   N     0.71654   0.71478   0.95987   0.00000  Uiso   1.00
N549   N     0.56701   0.08794   0.89829   0.00000  Uiso   1.00
N550   N     0.72125   0.98660   0.30028   0.00000  Uiso   1.00
N551   N     0.81010   0.75206   0.95842   0.00000  Uiso   1.00
N552   N     0.66057   0.12522   0.89685   0.00000  Uiso   1.00
C553   C     0.41409   0.37117   0.80344   0.00000  Uiso   1.00
C554   C     0.43292   0.34862   0.87152   0.00000  Uiso   1.00
C555   C     0.42797   0.38178   0.92956   0.00000  Uiso   1.00
C556   C     0.44771   0.35302   0.98672   0.00000  Uiso   1.00
C557   C     0.47330   0.32710   0.09256   0.00000  Uiso   1.00
C558   C     0.36827   0.32413   0.77731   0.00000  Uiso   1.00
C559   C     0.30898   0.33670   0.75613   0.00000  Uiso   1.00
C560   C     0.27430   0.28733   0.73397   0.00000  Uiso   1.00
C561   C     0.19953   0.22338   0.69351   0.00000  Uiso   1.00
C562   C     0.47112   0.36534   0.76035   0.00000  Uiso   1.00
C563   C     0.49829   0.41256   0.72489   0.00000  Uiso   1.00
C564   C     0.55019   0.39789   0.68844   0.00000  Uiso   1.00
C565   C     0.63511   0.39794   0.62165   0.00000  Uiso   1.00
C566   C     0.45794   0.26114   0.80174   0.00000  Uiso   1.00
C567   C     0.45673   0.28886   0.87059   0.00000  Uiso   1.00
C568   C     0.47648   0.26004   0.92767   0.00000  Uiso   1.00
C569   C     0.47157   0.29315   0.98579   0.00000  Uiso   1.00
C570   C     0.39208   0.26437   0.77638   0.00000  Uiso   1.00
C571   C     0.35749   0.21496   0.75424   0.00000  Uiso   1.00
C572   C     0.29815   0.22745   0.73304   0.00000  Uiso   1.00
C573   C     0.49494   0.30558   0.75942   0.00000  Uiso   1.00
C574   C     0.54680   0.29083   0.72301   0.00000  Uiso   1.00
C575   C     0.57405   0.33802   0.68752   0.00000  Uiso   1.00
H576   H     0.39555   0.41769   0.80416   0.00000  Uiso   1.00
H577   H     0.40954   0.42803   0.93025   0.00000  Uiso   1.00
H578   H     0.29056   0.38295   0.75684   0.00000  Uiso   1.00
H579   H     0.47985   0.45880   0.72562   0.00000  Uiso   1.00
H580   H     0.43553   0.41312   0.06964   0.00000  Uiso   1.00
H581   H     0.18467   0.31808   0.70398   0.00000  Uiso   1.00
H582   H     0.58382   0.47803   0.63813   0.00000  Uiso   1.00
H583   H     0.47648   0.21461   0.80102   0.00000  Uiso   1.00
H584   H     0.49491   0.21380   0.92694   0.00000  Uiso   1.00
H585   H     0.37593   0.16872   0.75353   0.00000  Uiso   1.00
H586   H     0.56522   0.24458   0.72231   0.00000  Uiso   1.00
H587   H     0.50482   0.23924   0.06696   0.00000  Uiso   1.00
H588   H     0.25396   0.14421   0.70129   0.00000  Uiso   1.00
H589   H     0.65311   0.30415   0.63545   0.00000  Uiso   1.00
O590   O     0.48082   0.32930   0.15120   0.00000  Uiso   1.00
O591   O     0.15171   0.20462   0.67145   0.00000  Uiso   1.00
O592   O     0.67538   0.41447   0.58506   0.00000  Uiso   1.00
N593   N     0.44932   0.37231   0.05173   0.00000  Uiso   1.00
N594   N     0.21478   0.28346   0.70987   0.00000  Uiso   1.00
N595   N     0.58794   0.43299   0.64829   0.00000  Uiso   1.00
N596   N     0.48660   0.27875   0.05028   0.00000  Uiso   1.00
N597   N     0.25206   0.18990   0.70842   0.00000  Uiso   1.00
N598   N     0.62522   0.33943   0.64685   0.00000  Uiso   1.00
C599   C     0.91409   0.87117   0.30344   0.00000  Uiso   1.00
C600   C     0.93292   0.84862   0.37152   0.00000  Uiso   1.00
C601   C     0.92797   0.88178   0.42956   0.00000  Uiso   1.00
C602   C     0.94771   0.85302   0.48672   0.00000  Uiso   1.00
C603   C     0.97330   0.82710   0.59256   0.00000  Uiso   1.00
C604   C     0.86827   0.82413   0.27731   0.00000  Uiso   1.00
C605   C     0.80898   0.83670   0.25613   0.00000  Uiso   1.00
C606   C     0.77430   0.78733   0.23397   0.00000  Uiso   1.00
C607   C     0.69953   0.72338   0.19351   0.00000  Uiso   1.00
C608   C     0.97112   0.86534   0.26035   0.00000  Uiso   1.00
C609   C     0.99829   0.91256   0.22489   0.00000  Uiso   1.00
C610   C     0.05019   0.89789   0.18844   0.00000  Uiso   1.00
C611   C     0.13511   0.89794   0.12165   0.00000  Uiso   1.00
C612   C     0.95794   0.76114   0.30174   0.00000  Uiso   1.00
C613   C     0.95673   0.78886   0.37059   0.00000  Uiso   1.00
C614   C     0.97648   0.76004   0.42767   0.00000  Uiso   1.00
C615   C     0.97157   0.79315   0.48579   0.00000  Uiso   1.00
C616   C     0.89208   0.76437   0.27638   0.00000  Uiso   1.00
C617   C     0.85749   0.71496   0.25424   0.00000  Uiso   1.00
C618   C     0.79815   0.72745   0.23304   0.00000  Uiso   1.00
C619   C     0.99494   0.80558   0.25942   0.00000  Uiso   1.00
C620   C     0.04680   0.79083   0.22301   0.00000  Uiso   1.00
C621   C     0.07405   0.83802   0.18752   0.00000  Uiso   1.00
H622   H     0.89555   0.91769   0.30416   0.00000  Uiso   1.00
H623   H     0.90954   0.92803   0.43025   0.00000  Uiso   1.00
H624   H     0.79056   0.88295   0.25684   0.00000  Uiso   1.00
H625   H     0.97985   0.95880   0.22562   0.00000  Uiso   1.00
H626   H     0.93553   0.91312   0.56964   0.00000  Uiso   1.00
H627   H     0.68467   0.81808   0.20398   0.00000  Uiso   1.00
H628   H     0.08382   0.97803   0.13813   0.00000  Uiso   1.00
H629   H     0.97648   0.71461   0.30102   0.00000  Uiso   1.00
H630   H     0.99491   0.71380   0.42694   0.00000  Uiso   1.00
H631   H     0.87593   0.66872   0.25353   0.00000  Uiso   1.00
H632   H     0.06522   0.74458   0.22231   0.00000  Uiso   1.00
H633   H     0.00482   0.73924   0.56696   0.00000  Uiso   1.00
H634   H     0.75396   0.64421   0.20129   0.00000  Uiso   1.00
H635   H     0.15311   0.80415   0.13545   0.00000  Uiso   1.00
O636   O     0.98082   0.82930   0.65120   0.00000  Uiso   1.00
O637   O     0.65171   0.70462   0.17145   0.00000  Uiso   1.00
O638   O     0.17538   0.91447   0.08506   0.00000  Uiso   1.00
N639   N     0.94932   0.87231   0.55173   0.00000  Uiso   1.00
N640   N     0.71478   0.78346   0.20987   0.00000  Uiso   1.00
N641   N     0.08794   0.93299   0.14829   0.00000  Uiso   1.00
N642   N     0.98660   0.77875   0.55028   0.00000  Uiso   1.00
N643   N     0.75206   0.68990   0.20842   0.00000  Uiso   1.00
N644   N     0.12522   0.83943   0.14685   0.00000  Uiso   1.00
C645   C     0.08591   0.12883   0.30344   0.00000  Uiso   1.00
C646   C     0.06708   0.15138   0.37152   0.00000  Uiso   1.00
C647   C     0.07203   0.11822   0.42956   0.00000  Uiso   1.00
C648   C     0.05229   0.14698   0.48672   0.00000  Uiso   1.00
C649   C     0.02670   0.17290   0.59256   0.00000  Uiso   1.00
C650   C     0.13173   0.17587   0.27731   0.00000  Uiso   1.00
C651   C     0.19102   0.16330   0.25613   0.00000  Uiso   1.00
C652   C     0.22570   0.21267   0.23397   0.00000  Uiso   1.00
C653   C     0.30047   0.27662   0.19351   0.00000  Uiso   1.00
C654   C     0.02888   0.13466   0.26035   0.00000  Uiso   1.00
C655   C     0.00171   0.08744   0.22489   0.00000  Uiso   1.00
C656   C     0.94981   0.10211   0.18844   0.00000  Uiso   1.00
C657   C     0.86489   0.10206   0.12165   0.00000  Uiso   1.00
C658   C     0.04206   0.23886   0.30174   0.00000  Uiso   1.00
C659   C     0.04327   0.21114   0.37059   0.00000  Uiso   1.00
C660   C     0.02352   0.23996   0.42767   0.00000  Uiso   1.00
C661   C     0.02843   0.20685   0.48579   0.00000  Uiso   1.00
C662   C     0.10792   0.23563   0.27638   0.00000  Uiso   1.00
C663   C     0.14251   0.28504   0.25424   0.00000  Uiso   1.00
C664   C     0.20185   0.27255   0.23304   0.00000  Uiso   1.00
C665   C     0.00506   0.19442   0.25942   0.00000  Uiso   1.00
C666   C     0.95320   0.20917   0.22301   0.00000  Uiso   1.00
C667   C     0.92595   0.16198   0.18752   0.00000  Uiso   1.00
H668   H     0.10445   0.08231   0.30416   0.00000  Uiso   1.00
H669   H     0.09046   0.07197   0.43025   0.00000  Uiso   1.00
H670   H     0.20944   0.11705   0.25684   0.00000  Uiso   1.00
H671   H     0.02015   0.04120   0.22562   0.00000  Uiso   1.00
H672   H     0.06447   0.08688   0.56964   0.00000  Uiso   1.00
H673   H     0.31533   0.18192   0.20398   0.00000  Uiso   1.00
H674   H     0.91618   0.02197   0.13813   0.00000  Uiso   1.00
H675   H     0.02352   0.28539   0.30102   0.00000  Uiso   1.00
H676   H     0.00509   0.28620   0.42694   0.00000  Uiso   1.00
H677   H     0.12407   0.33128   0.25353   0.00000  Uiso   1.00
H678   H     0.93478   0.25542   0.22231   0.00000  Uiso   1.00
H679   H     0.99518   0.26076   0.56696   0.00000  Uiso   1.00
H680   H     0.24604   0.35579   0.20129   0.00000  Uiso   1.00
H681   H     0.84689   0.19585   0.13545   0.00000  Uiso   1.00
O682   O     0.01918   0.17070   0.65120   0.00000  Uiso   1.00
O683   O     0.34829   0.29538   0.17145   0.00000  Uiso   1.00
O684   O     0.82462   0.08553   0.08506   0.00000  Uiso   1.00
N685   N     0.05068   0.12769   0.55173   0.00000  Uiso   1.00
N686   N     0.28522   0.21654   0.20987   0.00000  Uiso   1.00
N687   N     0.91206   0.06701   0.14829   0.00000  Uiso   1.00
N688   N     0.01340   0.22125   0.55028   0.00000  Uiso   1.00
N689   N     0.24794   0.31010   0.20842   0.00000  Uiso   1.00
N690   N     0.87478   0.16057   0.14685   0.00000  Uiso   1.00
C691   C     0.58591   0.62883   0.80344   0.00000  Uiso   1.00
C692   C     0.56708   0.65138   0.87152   0.00000  Uiso   1.00
C693   C     0.57203   0.61822   0.92956   0.00000  Uiso   1.00
C694   C     0.55229   0.64698   0.98672   0.00000  Uiso   1.00
C695   C     0.52670   0.67290   0.09256   0.00000  Uiso   1.00
C696   C     0.63173   0.67587   0.77731   0.00000  Uiso   1.00
C697   C     0.69102   0.66330   0.75613   0.00000  Uiso   1.00
C698   C     0.72570   0.71267   0.73397   0.00000  Uiso   1.00
C699   C     0.80047   0.77662   0.69351   0.00000  Uiso   1.00
C700   C     0.52888   0.63466   0.76035   0.00000  Uiso   1.00
C701   C     0.50171   0.58744   0.72489   0.00000  Uiso   1.00
C702   C     0.44981   0.60211   0.68844   0.00000  Uiso   1.00
C703   C     0.36489   0.60206   0.62165   0.00000  Uiso   1.00
C704   C     0.54206   0.73886   0.80174   0.00000  Uiso   1.00
C705   C     0.54327   0.71114   0.87059   0.00000  Uiso   1.00
C706   C     0.52352   0.73996   0.92767   0.00000  Uiso   1.00
C707   C     0.52843   0.70685   0.98579   0.00000  Uiso   1.00
C708   C     0.60792   0.73563   0.77638   0.00000  Uiso   1.00
C709   C     0.64251   0.78504   0.75424   0.00000  Uiso   1.00
C710   C     0.70185   0.77255   0.73304   0.00000  Uiso   1.00
C711   C     0.50506   0.69442   0.75942   0.00000  Uiso   1.00
C712   C     0.45320   0.70917   0.72301   0.00000  Uiso   1.00
C713   C     0.42595   0.66198   0.68752   0.00000  Uiso   1.00
H714   H     0.60445   0.58231   0.80416   0.00000  Uiso   1.00
H715   H     0.59046   0.57197   0.93025   0.00000  Uiso   1.00
H716   H     0.70944   0.61705   0.75684   0.00000  Uiso   1.00
H717   H     0.52015   0.54120   0.72562   0.00000  Uiso   1.00
H718   H     0.56447   0.58688   0.06964   0.00000  Uiso   1.00
H719   H     0.81533   0.68192   0.70398   0.00000  Uiso   1.00
H720   H     0.41618   0.52197   0.63813   0.00000  Uiso   1.00
H721   H     0.52352   0.78539   0.80102   0.00000  Uiso   1.00
H722   H     0.50509   0.78620   0.92694   0.00000  Uiso   1.00
H723   H     0.62407   0.83128   0.75353   0.00000  Uiso   1.00
H724   H     0.43478   0.75542   0.72231   0.00000  Uiso   1.00
H725   H     0.49518   0.76076   0.06696   0.00000  Uiso   1.00
H726   H     0.74604   0.85579   0.70129   0.00000  Uiso   1.00
H727   H     0.34689   0.69585   0.63545   0.00000  Uiso   1.00
O728   O     0.51918   0.67070   0.15120   0.00000  Uiso   1.00
O729   O     0.84829   0.79538   0.67145   0.00000  Uiso   1.00
O730   O     0.32462   0.58553   0.58506   0.00000  Uiso   1.00
N731   N     0.55068   0.62769   0.05173   0.00000  Uiso   1.00
N732   N     0.78522   0.71654   0.70987   0.00000  Uiso   1.00
N733   N     0.41206   0.56701   0.64829   0.00000  Uiso   1.00
N734   N     0.51340   0.72125   0.05028   0.00000  Uiso   1.00
N735   N     0.74794   0.81010   0.70842   0.00000  Uiso   1.00
N736   N     0.37478   0.66057   0.64685   0.00000  Uiso   1.00
