data_job_03110
_audit_creation_date              2018-12-19
_audit_creation_method            'Materials Studio'
_symmetry_space_group_name_H-M    'P1'
_symmetry_Int_Tables_number       1
_symmetry_cell_setting            triclinic
loop_
_symmetry_equiv_pos_as_xyz
  x,y,z
_cell_length_a                    23.2353
_cell_length_b                    23.2353
_cell_length_c                    25.0161
_cell_angle_alpha                 90.0000
_cell_angle_beta                  90.0000
_cell_angle_gamma                 90.0000
loop_
_atom_site_label
_atom_site_type_symbol
_atom_site_fract_x
_atom_site_fract_y
_atom_site_fract_z
_atom_site_U_iso_or_equiv
_atom_site_adp_type
_atom_site_occupancy
C1     C     0.31200   0.47052   0.69233   0.00000  Uiso   1.00
C2     C     0.35398   0.50515   0.72641   0.00000  Uiso   1.00
C3     C     0.37554   0.55923   0.71404   0.00000  Uiso   1.00
C4     C     0.41347   0.58370   0.75041   0.00000  Uiso   1.00
C5     C     0.47628   0.64181   0.79615   0.00000  Uiso   1.00
C6     C     0.34124   0.41291   0.68164   0.00000  Uiso   1.00
C7     C     0.35208   0.38943   0.63163   0.00000  Uiso   1.00
C8     C     0.37928   0.33624   0.63032   0.00000  Uiso   1.00
C9     C     0.42227   0.25112   0.60656   0.00000  Uiso   1.00
C10    C     0.26066   0.45738   0.72829   0.00000  Uiso   1.00
C11    C     0.20375   0.47128   0.71750   0.00000  Uiso   1.00
C12    C     0.16310   0.45552   0.75546   0.00000  Uiso   1.00
C13    C     0.08098   0.43945   0.80413   0.00000  Uiso   1.00
C14    C     0.34101   0.41780   0.77893   0.00000  Uiso   1.00
C15    C     0.36974   0.47651   0.77344   0.00000  Uiso   1.00
C16    C     0.40765   0.50090   0.80984   0.00000  Uiso   1.00
C17    C     0.42926   0.55501   0.79753   0.00000  Uiso   1.00
C18    C     0.35700   0.38427   0.72867   0.00000  Uiso   1.00
C19    C     0.38418   0.33110   0.72743   0.00000  Uiso   1.00
C20    C     0.39507   0.30755   0.67743   0.00000  Uiso   1.00
C21    C     0.27642   0.42874   0.77533   0.00000  Uiso   1.00
C22    C     0.23585   0.41295   0.81331   0.00000  Uiso   1.00
C23    C     0.17889   0.42683   0.80258   0.00000  Uiso   1.00
H24    H     0.29973   0.49281   0.65572   0.00000  Uiso   1.00
H25    H     0.36334   0.58138   0.67763   0.00000  Uiso   1.00
H26    H     0.33988   0.41160   0.59524   0.00000  Uiso   1.00
H27    H     0.19157   0.49344   0.68110   0.00000  Uiso   1.00
H28    H     0.44083   0.66693   0.72266   0.00000  Uiso   1.00
H29    H     0.39134   0.30894   0.54893   0.00000  Uiso   1.00
H30    H     0.07860   0.48151   0.72999   0.00000  Uiso   1.00
H31    H     0.35328   0.39550   0.81554   0.00000  Uiso   1.00
H32    H     0.41983   0.47873   0.84623   0.00000  Uiso   1.00
H33    H     0.39637   0.30895   0.76384   0.00000  Uiso   1.00
H34    H     0.24806   0.39079   0.84970   0.00000  Uiso   1.00
H35    H     0.48669   0.58361   0.85950   0.00000  Uiso   1.00
H36    H     0.43719   0.22562   0.68577   0.00000  Uiso   1.00
H37    H     0.12445   0.39819   0.86683   0.00000  Uiso   1.00
O38    O     0.50658   0.68177   0.80838   0.00000  Uiso   1.00
O39    O     0.44164   0.21209   0.58045   0.00000  Uiso   1.00
O40    O     0.03134   0.43851   0.81799   0.00000  Uiso   1.00
N41    N     0.44248   0.63590   0.75066   0.00000  Uiso   1.00
N42    N     0.39622   0.30121   0.58824   0.00000  Uiso   1.00
N43    N     0.10383   0.46253   0.75750   0.00000  Uiso   1.00
N44    N     0.46715   0.59107   0.82430   0.00000  Uiso   1.00
N45    N     0.42089   0.25637   0.66187   0.00000  Uiso   1.00
N46    N     0.12850   0.41770   0.83113   0.00000  Uiso   1.00
C47    C     0.81200   0.97052   0.19233   0.00000  Uiso   1.00
C48    C     0.85398   0.00515   0.22641   0.00000  Uiso   1.00
C49    C     0.87554   0.05923   0.21404   0.00000  Uiso   1.00
C50    C     0.91347   0.08370   0.25041   0.00000  Uiso   1.00
C51    C     0.97628   0.14181   0.29615   0.00000  Uiso   1.00
C52    C     0.84124   0.91291   0.18164   0.00000  Uiso   1.00
C53    C     0.85208   0.88943   0.13163   0.00000  Uiso   1.00
C54    C     0.87928   0.83624   0.13032   0.00000  Uiso   1.00
C55    C     0.92227   0.75112   0.10656   0.00000  Uiso   1.00
C56    C     0.76066   0.95738   0.22829   0.00000  Uiso   1.00
C57    C     0.70375   0.97128   0.21750   0.00000  Uiso   1.00
C58    C     0.66310   0.95552   0.25546   0.00000  Uiso   1.00
C59    C     0.58098   0.93945   0.30413   0.00000  Uiso   1.00
C60    C     0.84101   0.91780   0.27893   0.00000  Uiso   1.00
C61    C     0.86974   0.97651   0.27344   0.00000  Uiso   1.00
C62    C     0.90765   0.00090   0.30984   0.00000  Uiso   1.00
C63    C     0.92926   0.05501   0.29753   0.00000  Uiso   1.00
C64    C     0.85700   0.88427   0.22867   0.00000  Uiso   1.00
C65    C     0.88418   0.83110   0.22743   0.00000  Uiso   1.00
C66    C     0.89507   0.80755   0.17743   0.00000  Uiso   1.00
C67    C     0.77642   0.92874   0.27533   0.00000  Uiso   1.00
C68    C     0.73585   0.91295   0.31331   0.00000  Uiso   1.00
C69    C     0.67889   0.92683   0.30258   0.00000  Uiso   1.00
H70    H     0.79973   0.99281   0.15572   0.00000  Uiso   1.00
H71    H     0.86334   0.08138   0.17763   0.00000  Uiso   1.00
H72    H     0.83988   0.91160   0.09524   0.00000  Uiso   1.00
H73    H     0.69157   0.99344   0.18110   0.00000  Uiso   1.00
H74    H     0.94083   0.16693   0.22266   0.00000  Uiso   1.00
H75    H     0.89134   0.80894   0.04893   0.00000  Uiso   1.00
H76    H     0.57860   0.98151   0.22999   0.00000  Uiso   1.00
H77    H     0.85328   0.89550   0.31554   0.00000  Uiso   1.00
H78    H     0.91983   0.97873   0.34623   0.00000  Uiso   1.00
H79    H     0.89637   0.80895   0.26384   0.00000  Uiso   1.00
H80    H     0.74806   0.89079   0.34970   0.00000  Uiso   1.00
H81    H     0.98669   0.08361   0.35950   0.00000  Uiso   1.00
H82    H     0.93719   0.72562   0.18577   0.00000  Uiso   1.00
H83    H     0.62445   0.89819   0.36683   0.00000  Uiso   1.00
O84    O     0.00658   0.18177   0.30838   0.00000  Uiso   1.00
O85    O     0.94164   0.71209   0.08045   0.00000  Uiso   1.00
O86    O     0.53134   0.93851   0.31799   0.00000  Uiso   1.00
N87    N     0.94248   0.13590   0.25066   0.00000  Uiso   1.00
N88    N     0.89622   0.80121   0.08824   0.00000  Uiso   1.00
N89    N     0.60383   0.96253   0.25750   0.00000  Uiso   1.00
N90    N     0.96715   0.09107   0.32430   0.00000  Uiso   1.00
N91    N     0.92089   0.75637   0.16187   0.00000  Uiso   1.00
N92    N     0.62850   0.91770   0.33113   0.00000  Uiso   1.00
C93    C     0.18800   0.02948   0.19233   0.00000  Uiso   1.00
C94    C     0.14602   0.99485   0.22641   0.00000  Uiso   1.00
C95    C     0.12446   0.94077   0.21404   0.00000  Uiso   1.00
C96    C     0.08653   0.91630   0.25041   0.00000  Uiso   1.00
C97    C     0.02372   0.85819   0.29615   0.00000  Uiso   1.00
C98    C     0.15876   0.08709   0.18164   0.00000  Uiso   1.00
C99    C     0.14792   0.11057   0.13163   0.00000  Uiso   1.00
C100   C     0.12072   0.16376   0.13032   0.00000  Uiso   1.00
C101   C     0.07773   0.24888   0.10656   0.00000  Uiso   1.00
C102   C     0.23934   0.04262   0.22829   0.00000  Uiso   1.00
C103   C     0.29625   0.02872   0.21750   0.00000  Uiso   1.00
C104   C     0.33690   0.04448   0.25546   0.00000  Uiso   1.00
C105   C     0.41902   0.06055   0.30413   0.00000  Uiso   1.00
C106   C     0.15899   0.08220   0.27893   0.00000  Uiso   1.00
C107   C     0.13026   0.02349   0.27344   0.00000  Uiso   1.00
C108   C     0.09235   0.99910   0.30984   0.00000  Uiso   1.00
C109   C     0.07074   0.94499   0.29753   0.00000  Uiso   1.00
C110   C     0.14300   0.11573   0.22867   0.00000  Uiso   1.00
C111   C     0.11582   0.16890   0.22743   0.00000  Uiso   1.00
C112   C     0.10493   0.19245   0.17743   0.00000  Uiso   1.00
C113   C     0.22358   0.07126   0.27533   0.00000  Uiso   1.00
C114   C     0.26415   0.08705   0.31331   0.00000  Uiso   1.00
C115   C     0.32111   0.07317   0.30258   0.00000  Uiso   1.00
H116   H     0.20027   0.00719   0.15572   0.00000  Uiso   1.00
H117   H     0.13666   0.91862   0.17763   0.00000  Uiso   1.00
H118   H     0.16012   0.08840   0.09524   0.00000  Uiso   1.00
H119   H     0.30843   0.00656   0.18110   0.00000  Uiso   1.00
H120   H     0.05917   0.83307   0.22266   0.00000  Uiso   1.00
H121   H     0.10866   0.19106   0.04893   0.00000  Uiso   1.00
H122   H     0.42140   0.01849   0.22999   0.00000  Uiso   1.00
H123   H     0.14672   0.10450   0.31554   0.00000  Uiso   1.00
H124   H     0.08017   0.02127   0.34623   0.00000  Uiso   1.00
H125   H     0.10363   0.19105   0.26384   0.00000  Uiso   1.00
H126   H     0.25194   0.10921   0.34970   0.00000  Uiso   1.00
H127   H     0.01331   0.91639   0.35950   0.00000  Uiso   1.00
H128   H     0.06281   0.27438   0.18577   0.00000  Uiso   1.00
H129   H     0.37555   0.10181   0.36683   0.00000  Uiso   1.00
O130   O     0.99342   0.81823   0.30838   0.00000  Uiso   1.00
O131   O     0.05836   0.28791   0.08045   0.00000  Uiso   1.00
O132   O     0.46866   0.06149   0.31799   0.00000  Uiso   1.00
N133   N     0.05752   0.86410   0.25066   0.00000  Uiso   1.00
N134   N     0.10378   0.19879   0.08824   0.00000  Uiso   1.00
N135   N     0.39617   0.03747   0.25750   0.00000  Uiso   1.00
N136   N     0.03285   0.90893   0.32430   0.00000  Uiso   1.00
N137   N     0.07911   0.24363   0.16187   0.00000  Uiso   1.00
N138   N     0.37150   0.08230   0.33113   0.00000  Uiso   1.00
C139   C     0.68800   0.52948   0.69233   0.00000  Uiso   1.00
C140   C     0.64602   0.49485   0.72641   0.00000  Uiso   1.00
C141   C     0.62446   0.44077   0.71404   0.00000  Uiso   1.00
C142   C     0.58653   0.41630   0.75041   0.00000  Uiso   1.00
C143   C     0.52372   0.35819   0.79615   0.00000  Uiso   1.00
C144   C     0.65876   0.58709   0.68164   0.00000  Uiso   1.00
C145   C     0.64792   0.61057   0.63163   0.00000  Uiso   1.00
C146   C     0.62072   0.66376   0.63032   0.00000  Uiso   1.00
C147   C     0.57773   0.74888   0.60656   0.00000  Uiso   1.00
C148   C     0.73934   0.54262   0.72829   0.00000  Uiso   1.00
C149   C     0.79625   0.52872   0.71750   0.00000  Uiso   1.00
C150   C     0.83690   0.54448   0.75546   0.00000  Uiso   1.00
C151   C     0.91902   0.56055   0.80413   0.00000  Uiso   1.00
C152   C     0.65899   0.58220   0.77893   0.00000  Uiso   1.00
C153   C     0.63026   0.52349   0.77344   0.00000  Uiso   1.00
C154   C     0.59235   0.49910   0.80984   0.00000  Uiso   1.00
C155   C     0.57074   0.44499   0.79753   0.00000  Uiso   1.00
C156   C     0.64300   0.61573   0.72867   0.00000  Uiso   1.00
C157   C     0.61582   0.66890   0.72743   0.00000  Uiso   1.00
C158   C     0.60493   0.69245   0.67743   0.00000  Uiso   1.00
C159   C     0.72358   0.57126   0.77533   0.00000  Uiso   1.00
C160   C     0.76415   0.58705   0.81331   0.00000  Uiso   1.00
C161   C     0.82111   0.57317   0.80258   0.00000  Uiso   1.00
H162   H     0.70027   0.50719   0.65572   0.00000  Uiso   1.00
H163   H     0.63666   0.41862   0.67763   0.00000  Uiso   1.00
H164   H     0.66012   0.58840   0.59524   0.00000  Uiso   1.00
H165   H     0.80843   0.50656   0.68110   0.00000  Uiso   1.00
H166   H     0.55917   0.33307   0.72266   0.00000  Uiso   1.00
H167   H     0.60866   0.69106   0.54893   0.00000  Uiso   1.00
H168   H     0.92140   0.51849   0.72999   0.00000  Uiso   1.00
H169   H     0.64672   0.60450   0.81554   0.00000  Uiso   1.00
H170   H     0.58017   0.52127   0.84623   0.00000  Uiso   1.00
H171   H     0.60363   0.69105   0.76384   0.00000  Uiso   1.00
H172   H     0.75194   0.60921   0.84970   0.00000  Uiso   1.00
H173   H     0.51331   0.41639   0.85950   0.00000  Uiso   1.00
H174   H     0.56281   0.77438   0.68577   0.00000  Uiso   1.00
H175   H     0.87555   0.60181   0.86683   0.00000  Uiso   1.00
O176   O     0.49342   0.31823   0.80838   0.00000  Uiso   1.00
O177   O     0.55836   0.78791   0.58045   0.00000  Uiso   1.00
O178   O     0.96866   0.56149   0.81799   0.00000  Uiso   1.00
N179   N     0.55752   0.36410   0.75066   0.00000  Uiso   1.00
N180   N     0.60378   0.69879   0.58824   0.00000  Uiso   1.00
N181   N     0.89617   0.53747   0.75750   0.00000  Uiso   1.00
N182   N     0.53285   0.40893   0.82430   0.00000  Uiso   1.00
N183   N     0.57911   0.74363   0.66187   0.00000  Uiso   1.00
N184   N     0.87150   0.58230   0.83113   0.00000  Uiso   1.00
C185   C     0.52948   0.81200   0.94233   0.00000  Uiso   1.00
C186   C     0.49485   0.85398   0.97641   0.00000  Uiso   1.00
C187   C     0.44077   0.87554   0.96404   0.00000  Uiso   1.00
C188   C     0.41630   0.91347   0.00041   0.00000  Uiso   1.00
C189   C     0.35819   0.97628   0.04615   0.00000  Uiso   1.00
C190   C     0.58709   0.84124   0.93164   0.00000  Uiso   1.00
C191   C     0.61057   0.85208   0.88163   0.00000  Uiso   1.00
C192   C     0.66376   0.87928   0.88032   0.00000  Uiso   1.00
C193   C     0.74888   0.92227   0.85656   0.00000  Uiso   1.00
C194   C     0.54262   0.76066   0.97829   0.00000  Uiso   1.00
C195   C     0.52872   0.70375   0.96750   0.00000  Uiso   1.00
C196   C     0.54448   0.66310   0.00546   0.00000  Uiso   1.00
C197   C     0.56055   0.58098   0.05413   0.00000  Uiso   1.00
C198   C     0.58220   0.84101   0.02893   0.00000  Uiso   1.00
C199   C     0.52349   0.86974   0.02344   0.00000  Uiso   1.00
C200   C     0.49910   0.90765   0.05984   0.00000  Uiso   1.00
C201   C     0.44499   0.92926   0.04753   0.00000  Uiso   1.00
C202   C     0.61573   0.85700   0.97867   0.00000  Uiso   1.00
C203   C     0.66890   0.88418   0.97743   0.00000  Uiso   1.00
C204   C     0.69245   0.89507   0.92743   0.00000  Uiso   1.00
C205   C     0.57126   0.77642   0.02533   0.00000  Uiso   1.00
C206   C     0.58705   0.73585   0.06331   0.00000  Uiso   1.00
C207   C     0.57317   0.67889   0.05258   0.00000  Uiso   1.00
H208   H     0.50719   0.79973   0.90572   0.00000  Uiso   1.00
H209   H     0.41862   0.86334   0.92763   0.00000  Uiso   1.00
H210   H     0.58840   0.83988   0.84524   0.00000  Uiso   1.00
H211   H     0.50656   0.69157   0.93110   0.00000  Uiso   1.00
H212   H     0.33307   0.94083   0.97266   0.00000  Uiso   1.00
H213   H     0.69106   0.89134   0.79893   0.00000  Uiso   1.00
H214   H     0.51849   0.57860   0.97999   0.00000  Uiso   1.00
H215   H     0.60450   0.85328   0.06554   0.00000  Uiso   1.00
H216   H     0.52127   0.91983   0.09623   0.00000  Uiso   1.00
H217   H     0.69105   0.89637   0.01384   0.00000  Uiso   1.00
H218   H     0.60921   0.74806   0.09970   0.00000  Uiso   1.00
H219   H     0.41639   0.98669   0.10950   0.00000  Uiso   1.00
H220   H     0.77438   0.93719   0.93577   0.00000  Uiso   1.00
H221   H     0.60181   0.62445   0.11683   0.00000  Uiso   1.00
O222   O     0.31823   0.00658   0.05838   0.00000  Uiso   1.00
O223   O     0.78791   0.94164   0.83045   0.00000  Uiso   1.00
O224   O     0.56149   0.53134   0.06799   0.00000  Uiso   1.00
N225   N     0.36410   0.94248   0.00066   0.00000  Uiso   1.00
N226   N     0.69879   0.89622   0.83824   0.00000  Uiso   1.00
N227   N     0.53747   0.60383   0.00750   0.00000  Uiso   1.00
N228   N     0.40893   0.96715   0.07430   0.00000  Uiso   1.00
N229   N     0.74363   0.92089   0.91187   0.00000  Uiso   1.00
N230   N     0.58230   0.62850   0.08113   0.00000  Uiso   1.00
C231   C     0.02948   0.31200   0.44233   0.00000  Uiso   1.00
C232   C     0.99485   0.35398   0.47641   0.00000  Uiso   1.00
C233   C     0.94077   0.37554   0.46404   0.00000  Uiso   1.00
C234   C     0.91630   0.41347   0.50041   0.00000  Uiso   1.00
C235   C     0.85819   0.47628   0.54615   0.00000  Uiso   1.00
C236   C     0.08709   0.34124   0.43164   0.00000  Uiso   1.00
C237   C     0.11057   0.35208   0.38163   0.00000  Uiso   1.00
C238   C     0.16376   0.37928   0.38032   0.00000  Uiso   1.00
C239   C     0.24888   0.42227   0.35656   0.00000  Uiso   1.00
C240   C     0.04262   0.26066   0.47829   0.00000  Uiso   1.00
C241   C     0.02872   0.20375   0.46750   0.00000  Uiso   1.00
C242   C     0.04448   0.16310   0.50546   0.00000  Uiso   1.00
C243   C     0.06055   0.08098   0.55413   0.00000  Uiso   1.00
C244   C     0.08220   0.34101   0.52893   0.00000  Uiso   1.00
C245   C     0.02349   0.36974   0.52344   0.00000  Uiso   1.00
C246   C     0.99910   0.40765   0.55984   0.00000  Uiso   1.00
C247   C     0.94499   0.42926   0.54753   0.00000  Uiso   1.00
C248   C     0.11573   0.35700   0.47867   0.00000  Uiso   1.00
C249   C     0.16890   0.38418   0.47743   0.00000  Uiso   1.00
C250   C     0.19245   0.39507   0.42743   0.00000  Uiso   1.00
C251   C     0.07126   0.27642   0.52533   0.00000  Uiso   1.00
C252   C     0.08705   0.23585   0.56331   0.00000  Uiso   1.00
C253   C     0.07317   0.17889   0.55258   0.00000  Uiso   1.00
H254   H     0.00719   0.29973   0.40572   0.00000  Uiso   1.00
H255   H     0.91862   0.36334   0.42763   0.00000  Uiso   1.00
H256   H     0.08840   0.33988   0.34524   0.00000  Uiso   1.00
H257   H     0.00656   0.19157   0.43110   0.00000  Uiso   1.00
H258   H     0.83307   0.44083   0.47266   0.00000  Uiso   1.00
H259   H     0.19106   0.39134   0.29893   0.00000  Uiso   1.00
H260   H     0.01849   0.07860   0.47999   0.00000  Uiso   1.00
H261   H     0.10450   0.35328   0.56554   0.00000  Uiso   1.00
H262   H     0.02127   0.41983   0.59623   0.00000  Uiso   1.00
H263   H     0.19105   0.39637   0.51384   0.00000  Uiso   1.00
H264   H     0.10921   0.24806   0.59970   0.00000  Uiso   1.00
H265   H     0.91639   0.48669   0.60950   0.00000  Uiso   1.00
H266   H     0.27438   0.43719   0.43577   0.00000  Uiso   1.00
H267   H     0.10181   0.12445   0.61683   0.00000  Uiso   1.00
O268   O     0.81823   0.50658   0.55838   0.00000  Uiso   1.00
O269   O     0.28791   0.44164   0.33045   0.00000  Uiso   1.00
O270   O     0.06149   0.03134   0.56799   0.00000  Uiso   1.00
N271   N     0.86410   0.44248   0.50066   0.00000  Uiso   1.00
N272   N     0.19879   0.39622   0.33824   0.00000  Uiso   1.00
N273   N     0.03747   0.10383   0.50750   0.00000  Uiso   1.00
N274   N     0.90893   0.46715   0.57430   0.00000  Uiso   1.00
N275   N     0.24363   0.42089   0.41187   0.00000  Uiso   1.00
N276   N     0.08230   0.12850   0.58113   0.00000  Uiso   1.00
C277   C     0.97052   0.68800   0.44233   0.00000  Uiso   1.00
C278   C     0.00515   0.64602   0.47641   0.00000  Uiso   1.00
C279   C     0.05923   0.62446   0.46404   0.00000  Uiso   1.00
C280   C     0.08370   0.58653   0.50041   0.00000  Uiso   1.00
C281   C     0.14181   0.52372   0.54615   0.00000  Uiso   1.00
C282   C     0.91291   0.65876   0.43164   0.00000  Uiso   1.00
C283   C     0.88943   0.64792   0.38163   0.00000  Uiso   1.00
C284   C     0.83624   0.62072   0.38032   0.00000  Uiso   1.00
C285   C     0.75112   0.57773   0.35656   0.00000  Uiso   1.00
C286   C     0.95738   0.73934   0.47829   0.00000  Uiso   1.00
C287   C     0.97128   0.79625   0.46750   0.00000  Uiso   1.00
C288   C     0.95552   0.83690   0.50546   0.00000  Uiso   1.00
C289   C     0.93945   0.91902   0.55413   0.00000  Uiso   1.00
C290   C     0.91780   0.65899   0.52893   0.00000  Uiso   1.00
C291   C     0.97651   0.63026   0.52344   0.00000  Uiso   1.00
C292   C     0.00090   0.59235   0.55984   0.00000  Uiso   1.00
C293   C     0.05501   0.57074   0.54753   0.00000  Uiso   1.00
C294   C     0.88427   0.64300   0.47867   0.00000  Uiso   1.00
C295   C     0.83110   0.61582   0.47743   0.00000  Uiso   1.00
C296   C     0.80755   0.60493   0.42743   0.00000  Uiso   1.00
C297   C     0.92874   0.72358   0.52533   0.00000  Uiso   1.00
C298   C     0.91295   0.76415   0.56331   0.00000  Uiso   1.00
C299   C     0.92683   0.82111   0.55258   0.00000  Uiso   1.00
H300   H     0.99281   0.70027   0.40572   0.00000  Uiso   1.00
H301   H     0.08138   0.63666   0.42763   0.00000  Uiso   1.00
H302   H     0.91160   0.66012   0.34524   0.00000  Uiso   1.00
H303   H     0.99344   0.80843   0.43110   0.00000  Uiso   1.00
H304   H     0.16693   0.55917   0.47266   0.00000  Uiso   1.00
H305   H     0.80894   0.60866   0.29893   0.00000  Uiso   1.00
H306   H     0.98151   0.92140   0.47999   0.00000  Uiso   1.00
H307   H     0.89550   0.64672   0.56554   0.00000  Uiso   1.00
H308   H     0.97873   0.58017   0.59623   0.00000  Uiso   1.00
H309   H     0.80895   0.60363   0.51384   0.00000  Uiso   1.00
H310   H     0.89079   0.75194   0.59970   0.00000  Uiso   1.00
H311   H     0.08361   0.51331   0.60950   0.00000  Uiso   1.00
H312   H     0.72562   0.56281   0.43577   0.00000  Uiso   1.00
H313   H     0.89819   0.87555   0.61683   0.00000  Uiso   1.00
O314   O     0.18177   0.49342   0.55838   0.00000  Uiso   1.00
O315   O     0.71209   0.55836   0.33045   0.00000  Uiso   1.00
O316   O     0.93851   0.96866   0.56799   0.00000  Uiso   1.00
N317   N     0.13590   0.55752   0.50066   0.00000  Uiso   1.00
N318   N     0.80121   0.60378   0.33824   0.00000  Uiso   1.00
N319   N     0.96253   0.89617   0.50750   0.00000  Uiso   1.00
N320   N     0.09107   0.53285   0.57430   0.00000  Uiso   1.00
N321   N     0.75637   0.57911   0.41187   0.00000  Uiso   1.00
N322   N     0.91770   0.87150   0.58113   0.00000  Uiso   1.00
C323   C     0.47052   0.18800   0.94233   0.00000  Uiso   1.00
C324   C     0.50515   0.14602   0.97641   0.00000  Uiso   1.00
C325   C     0.55923   0.12446   0.96404   0.00000  Uiso   1.00
C326   C     0.58370   0.08653   0.00041   0.00000  Uiso   1.00
C327   C     0.64181   0.02372   0.04615   0.00000  Uiso   1.00
C328   C     0.41291   0.15876   0.93164   0.00000  Uiso   1.00
C329   C     0.38943   0.14792   0.88163   0.00000  Uiso   1.00
C330   C     0.33624   0.12072   0.88032   0.00000  Uiso   1.00
C331   C     0.25112   0.07773   0.85656   0.00000  Uiso   1.00
C332   C     0.45738   0.23934   0.97829   0.00000  Uiso   1.00
C333   C     0.47128   0.29625   0.96750   0.00000  Uiso   1.00
C334   C     0.45552   0.33690   0.00546   0.00000  Uiso   1.00
C335   C     0.43945   0.41902   0.05413   0.00000  Uiso   1.00
C336   C     0.41780   0.15899   0.02893   0.00000  Uiso   1.00
C337   C     0.47651   0.13026   0.02344   0.00000  Uiso   1.00
C338   C     0.50090   0.09235   0.05984   0.00000  Uiso   1.00
C339   C     0.55501   0.07074   0.04753   0.00000  Uiso   1.00
C340   C     0.38427   0.14300   0.97867   0.00000  Uiso   1.00
C341   C     0.33110   0.11582   0.97743   0.00000  Uiso   1.00
C342   C     0.30755   0.10493   0.92743   0.00000  Uiso   1.00
C343   C     0.42874   0.22358   0.02533   0.00000  Uiso   1.00
C344   C     0.41295   0.26415   0.06331   0.00000  Uiso   1.00
C345   C     0.42683   0.32111   0.05258   0.00000  Uiso   1.00
H346   H     0.49281   0.20027   0.90572   0.00000  Uiso   1.00
H347   H     0.58138   0.13666   0.92763   0.00000  Uiso   1.00
H348   H     0.41160   0.16012   0.84524   0.00000  Uiso   1.00
H349   H     0.49344   0.30843   0.93110   0.00000  Uiso   1.00
H350   H     0.66693   0.05917   0.97266   0.00000  Uiso   1.00
H351   H     0.30894   0.10866   0.79893   0.00000  Uiso   1.00
H352   H     0.48151   0.42140   0.97999   0.00000  Uiso   1.00
H353   H     0.39550   0.14672   0.06554   0.00000  Uiso   1.00
H354   H     0.47873   0.08017   0.09623   0.00000  Uiso   1.00
H355   H     0.30895   0.10363   0.01384   0.00000  Uiso   1.00
H356   H     0.39079   0.25194   0.09970   0.00000  Uiso   1.00
H357   H     0.58361   0.01331   0.10950   0.00000  Uiso   1.00
H358   H     0.22562   0.06281   0.93577   0.00000  Uiso   1.00
H359   H     0.39819   0.37555   0.11683   0.00000  Uiso   1.00
O360   O     0.68177   0.99342   0.05838   0.00000  Uiso   1.00
O361   O     0.21209   0.05836   0.83045   0.00000  Uiso   1.00
O362   O     0.43851   0.46866   0.06799   0.00000  Uiso   1.00
N363   N     0.63590   0.05752   0.00066   0.00000  Uiso   1.00
N364   N     0.30121   0.10378   0.83824   0.00000  Uiso   1.00
N365   N     0.46253   0.39617   0.00750   0.00000  Uiso   1.00
N366   N     0.59107   0.03285   0.07430   0.00000  Uiso   1.00
N367   N     0.25637   0.07911   0.91187   0.00000  Uiso   1.00
N368   N     0.41770   0.37150   0.08113   0.00000  Uiso   1.00
C369   C     0.68800   0.02948   0.55767   0.00000  Uiso   1.00
C370   C     0.64602   0.99485   0.52359   0.00000  Uiso   1.00
C371   C     0.62446   0.94077   0.53596   0.00000  Uiso   1.00
C372   C     0.58653   0.91630   0.49959   0.00000  Uiso   1.00
C373   C     0.52372   0.85819   0.45385   0.00000  Uiso   1.00
C374   C     0.65876   0.08709   0.56836   0.00000  Uiso   1.00
C375   C     0.64792   0.11057   0.61837   0.00000  Uiso   1.00
C376   C     0.62072   0.16376   0.61968   0.00000  Uiso   1.00
C377   C     0.57773   0.24888   0.64344   0.00000  Uiso   1.00
C378   C     0.73934   0.04262   0.52171   0.00000  Uiso   1.00
C379   C     0.79625   0.02872   0.53250   0.00000  Uiso   1.00
C380   C     0.83690   0.04448   0.49454   0.00000  Uiso   1.00
C381   C     0.91902   0.06055   0.44587   0.00000  Uiso   1.00
C382   C     0.65899   0.08220   0.47107   0.00000  Uiso   1.00
C383   C     0.63026   0.02349   0.47656   0.00000  Uiso   1.00
C384   C     0.59235   0.99910   0.44016   0.00000  Uiso   1.00
C385   C     0.57074   0.94499   0.45247   0.00000  Uiso   1.00
C386   C     0.64300   0.11573   0.52133   0.00000  Uiso   1.00
C387   C     0.61582   0.16890   0.52257   0.00000  Uiso   1.00
C388   C     0.60493   0.19245   0.57257   0.00000  Uiso   1.00
C389   C     0.72358   0.07126   0.47467   0.00000  Uiso   1.00
C390   C     0.76415   0.08705   0.43669   0.00000  Uiso   1.00
C391   C     0.82111   0.07317   0.44742   0.00000  Uiso   1.00
H392   H     0.70027   0.00719   0.59428   0.00000  Uiso   1.00
H393   H     0.63666   0.91862   0.57237   0.00000  Uiso   1.00
H394   H     0.66012   0.08840   0.65476   0.00000  Uiso   1.00
H395   H     0.80843   0.00656   0.56890   0.00000  Uiso   1.00
H396   H     0.55917   0.83307   0.52734   0.00000  Uiso   1.00
H397   H     0.60866   0.19106   0.70107   0.00000  Uiso   1.00
H398   H     0.92140   0.01849   0.52001   0.00000  Uiso   1.00
H399   H     0.64672   0.10450   0.43446   0.00000  Uiso   1.00
H400   H     0.58017   0.02127   0.40377   0.00000  Uiso   1.00
H401   H     0.60363   0.19105   0.48616   0.00000  Uiso   1.00
H402   H     0.75194   0.10921   0.40030   0.00000  Uiso   1.00
H403   H     0.51331   0.91639   0.39050   0.00000  Uiso   1.00
H404   H     0.56281   0.27438   0.56423   0.00000  Uiso   1.00
H405   H     0.87555   0.10181   0.38317   0.00000  Uiso   1.00
O406   O     0.49342   0.81823   0.44162   0.00000  Uiso   1.00
O407   O     0.55836   0.28791   0.66955   0.00000  Uiso   1.00
O408   O     0.96866   0.06149   0.43201   0.00000  Uiso   1.00
N409   N     0.55752   0.86410   0.49934   0.00000  Uiso   1.00
N410   N     0.60378   0.19879   0.66176   0.00000  Uiso   1.00
N411   N     0.89617   0.03747   0.49250   0.00000  Uiso   1.00
N412   N     0.53285   0.90893   0.42570   0.00000  Uiso   1.00
N413   N     0.57911   0.24363   0.58813   0.00000  Uiso   1.00
N414   N     0.87150   0.08230   0.41887   0.00000  Uiso   1.00
C415   C     0.18800   0.52948   0.05767   0.00000  Uiso   1.00
C416   C     0.14602   0.49485   0.02359   0.00000  Uiso   1.00
C417   C     0.12446   0.44077   0.03596   0.00000  Uiso   1.00
C418   C     0.08653   0.41630   0.99959   0.00000  Uiso   1.00
C419   C     0.02372   0.35819   0.95385   0.00000  Uiso   1.00
C420   C     0.15876   0.58709   0.06836   0.00000  Uiso   1.00
C421   C     0.14792   0.61057   0.11837   0.00000  Uiso   1.00
C422   C     0.12072   0.66376   0.11968   0.00000  Uiso   1.00
C423   C     0.07773   0.74888   0.14344   0.00000  Uiso   1.00
C424   C     0.23934   0.54262   0.02171   0.00000  Uiso   1.00
C425   C     0.29625   0.52872   0.03250   0.00000  Uiso   1.00
C426   C     0.33690   0.54448   0.99454   0.00000  Uiso   1.00
C427   C     0.41902   0.56055   0.94587   0.00000  Uiso   1.00
C428   C     0.15899   0.58220   0.97107   0.00000  Uiso   1.00
C429   C     0.13026   0.52349   0.97656   0.00000  Uiso   1.00
C430   C     0.09235   0.49910   0.94016   0.00000  Uiso   1.00
C431   C     0.07074   0.44499   0.95247   0.00000  Uiso   1.00
C432   C     0.14300   0.61573   0.02133   0.00000  Uiso   1.00
C433   C     0.11582   0.66890   0.02257   0.00000  Uiso   1.00
C434   C     0.10493   0.69245   0.07257   0.00000  Uiso   1.00
C435   C     0.22358   0.57126   0.97467   0.00000  Uiso   1.00
C436   C     0.26415   0.58705   0.93669   0.00000  Uiso   1.00
C437   C     0.32111   0.57317   0.94742   0.00000  Uiso   1.00
H438   H     0.20027   0.50719   0.09428   0.00000  Uiso   1.00
H439   H     0.13666   0.41862   0.07237   0.00000  Uiso   1.00
H440   H     0.16012   0.58840   0.15476   0.00000  Uiso   1.00
H441   H     0.30843   0.50656   0.06890   0.00000  Uiso   1.00
H442   H     0.05917   0.33307   0.02734   0.00000  Uiso   1.00
H443   H     0.10866   0.69106   0.20107   0.00000  Uiso   1.00
H444   H     0.42140   0.51849   0.02001   0.00000  Uiso   1.00
H445   H     0.14672   0.60450   0.93446   0.00000  Uiso   1.00
H446   H     0.08017   0.52127   0.90377   0.00000  Uiso   1.00
H447   H     0.10363   0.69105   0.98616   0.00000  Uiso   1.00
H448   H     0.25194   0.60921   0.90030   0.00000  Uiso   1.00
H449   H     0.01331   0.41639   0.89050   0.00000  Uiso   1.00
H450   H     0.06281   0.77438   0.06423   0.00000  Uiso   1.00
H451   H     0.37555   0.60181   0.88317   0.00000  Uiso   1.00
O452   O     0.99342   0.31823   0.94162   0.00000  Uiso   1.00
O453   O     0.05836   0.78791   0.16955   0.00000  Uiso   1.00
O454   O     0.46866   0.56149   0.93201   0.00000  Uiso   1.00
N455   N     0.05752   0.36410   0.99934   0.00000  Uiso   1.00
N456   N     0.10378   0.69879   0.16176   0.00000  Uiso   1.00
N457   N     0.39617   0.53747   0.99250   0.00000  Uiso   1.00
N458   N     0.03285   0.40893   0.92570   0.00000  Uiso   1.00
N459   N     0.07911   0.74363   0.08813   0.00000  Uiso   1.00
N460   N     0.37150   0.58230   0.91887   0.00000  Uiso   1.00
C461   C     0.81200   0.47052   0.05767   0.00000  Uiso   1.00
C462   C     0.85398   0.50515   0.02359   0.00000  Uiso   1.00
C463   C     0.87554   0.55923   0.03596   0.00000  Uiso   1.00
C464   C     0.91347   0.58370   0.99959   0.00000  Uiso   1.00
C465   C     0.97628   0.64181   0.95385   0.00000  Uiso   1.00
C466   C     0.84124   0.41291   0.06836   0.00000  Uiso   1.00
C467   C     0.85208   0.38943   0.11837   0.00000  Uiso   1.00
C468   C     0.87928   0.33624   0.11968   0.00000  Uiso   1.00
C469   C     0.92227   0.25112   0.14344   0.00000  Uiso   1.00
C470   C     0.76066   0.45738   0.02171   0.00000  Uiso   1.00
C471   C     0.70375   0.47128   0.03250   0.00000  Uiso   1.00
C472   C     0.66310   0.45552   0.99454   0.00000  Uiso   1.00
C473   C     0.58098   0.43945   0.94587   0.00000  Uiso   1.00
C474   C     0.84101   0.41780   0.97107   0.00000  Uiso   1.00
C475   C     0.86974   0.47651   0.97656   0.00000  Uiso   1.00
C476   C     0.90765   0.50090   0.94016   0.00000  Uiso   1.00
C477   C     0.92926   0.55501   0.95247   0.00000  Uiso   1.00
C478   C     0.85700   0.38427   0.02133   0.00000  Uiso   1.00
C479   C     0.88418   0.33110   0.02257   0.00000  Uiso   1.00
C480   C     0.89507   0.30755   0.07257   0.00000  Uiso   1.00
C481   C     0.77642   0.42874   0.97467   0.00000  Uiso   1.00
C482   C     0.73585   0.41295   0.93669   0.00000  Uiso   1.00
C483   C     0.67889   0.42683   0.94742   0.00000  Uiso   1.00
H484   H     0.79973   0.49281   0.09428   0.00000  Uiso   1.00
H485   H     0.86334   0.58138   0.07237   0.00000  Uiso   1.00
H486   H     0.83988   0.41160   0.15476   0.00000  Uiso   1.00
H487   H     0.69157   0.49344   0.06890   0.00000  Uiso   1.00
H488   H     0.94083   0.66693   0.02734   0.00000  Uiso   1.00
H489   H     0.89134   0.30894   0.20107   0.00000  Uiso   1.00
H490   H     0.57860   0.48151   0.02001   0.00000  Uiso   1.00
H491   H     0.85328   0.39550   0.93446   0.00000  Uiso   1.00
H492   H     0.91983   0.47873   0.90377   0.00000  Uiso   1.00
H493   H     0.89637   0.30895   0.98616   0.00000  Uiso   1.00
H494   H     0.74806   0.39079   0.90030   0.00000  Uiso   1.00
H495   H     0.98669   0.58361   0.89050   0.00000  Uiso   1.00
H496   H     0.93719   0.22562   0.06423   0.00000  Uiso   1.00
H497   H     0.62445   0.39819   0.88317   0.00000  Uiso   1.00
O498   O     0.00658   0.68177   0.94162   0.00000  Uiso   1.00
O499   O     0.94164   0.21209   0.16955   0.00000  Uiso   1.00
O500   O     0.53134   0.43851   0.93201   0.00000  Uiso   1.00
N501   N     0.94248   0.63590   0.99934   0.00000  Uiso   1.00
N502   N     0.89622   0.30121   0.16176   0.00000  Uiso   1.00
N503   N     0.60383   0.46253   0.99250   0.00000  Uiso   1.00
N504   N     0.96715   0.59107   0.92570   0.00000  Uiso   1.00
N505   N     0.92089   0.25637   0.08813   0.00000  Uiso   1.00
N506   N     0.62850   0.41770   0.91887   0.00000  Uiso   1.00
C507   C     0.31200   0.97052   0.55767   0.00000  Uiso   1.00
C508   C     0.35398   0.00515   0.52359   0.00000  Uiso   1.00
C509   C     0.37554   0.05923   0.53596   0.00000  Uiso   1.00
C510   C     0.41347   0.08370   0.49959   0.00000  Uiso   1.00
C511   C     0.47628   0.14181   0.45385   0.00000  Uiso   1.00
C512   C     0.34124   0.91291   0.56836   0.00000  Uiso   1.00
C513   C     0.35208   0.88943   0.61837   0.00000  Uiso   1.00
C514   C     0.37928   0.83624   0.61968   0.00000  Uiso   1.00
C515   C     0.42227   0.75112   0.64344   0.00000  Uiso   1.00
C516   C     0.26066   0.95738   0.52171   0.00000  Uiso   1.00
C517   C     0.20375   0.97128   0.53250   0.00000  Uiso   1.00
C518   C     0.16310   0.95552   0.49454   0.00000  Uiso   1.00
C519   C     0.08098   0.93945   0.44587   0.00000  Uiso   1.00
C520   C     0.34101   0.91780   0.47107   0.00000  Uiso   1.00
C521   C     0.36974   0.97651   0.47656   0.00000  Uiso   1.00
C522   C     0.40765   0.00090   0.44016   0.00000  Uiso   1.00
C523   C     0.42926   0.05501   0.45247   0.00000  Uiso   1.00
C524   C     0.35700   0.88427   0.52133   0.00000  Uiso   1.00
C525   C     0.38418   0.83110   0.52257   0.00000  Uiso   1.00
C526   C     0.39507   0.80755   0.57257   0.00000  Uiso   1.00
C527   C     0.27642   0.92874   0.47467   0.00000  Uiso   1.00
C528   C     0.23585   0.91295   0.43669   0.00000  Uiso   1.00
C529   C     0.17889   0.92683   0.44742   0.00000  Uiso   1.00
H530   H     0.29973   0.99281   0.59428   0.00000  Uiso   1.00
H531   H     0.36334   0.08138   0.57237   0.00000  Uiso   1.00
H532   H     0.33988   0.91160   0.65476   0.00000  Uiso   1.00
H533   H     0.19157   0.99344   0.56890   0.00000  Uiso   1.00
H534   H     0.44083   0.16693   0.52734   0.00000  Uiso   1.00
H535   H     0.39134   0.80894   0.70107   0.00000  Uiso   1.00
H536   H     0.07860   0.98151   0.52001   0.00000  Uiso   1.00
H537   H     0.35328   0.89550   0.43446   0.00000  Uiso   1.00
H538   H     0.41983   0.97873   0.40377   0.00000  Uiso   1.00
H539   H     0.39637   0.80895   0.48616   0.00000  Uiso   1.00
H540   H     0.24806   0.89079   0.40030   0.00000  Uiso   1.00
H541   H     0.48669   0.08361   0.39050   0.00000  Uiso   1.00
H542   H     0.43719   0.72562   0.56423   0.00000  Uiso   1.00
H543   H     0.12445   0.89819   0.38317   0.00000  Uiso   1.00
O544   O     0.50658   0.18177   0.44162   0.00000  Uiso   1.00
O545   O     0.44164   0.71209   0.66955   0.00000  Uiso   1.00
O546   O     0.03134   0.93851   0.43201   0.00000  Uiso   1.00
N547   N     0.44248   0.13590   0.49934   0.00000  Uiso   1.00
N548   N     0.39622   0.80121   0.66176   0.00000  Uiso   1.00
N549   N     0.10383   0.96253   0.49250   0.00000  Uiso   1.00
N550   N     0.46715   0.09107   0.42570   0.00000  Uiso   1.00
N551   N     0.42089   0.75637   0.58813   0.00000  Uiso   1.00
N552   N     0.12850   0.91770   0.41887   0.00000  Uiso   1.00
C553   C     0.47052   0.68800   0.30767   0.00000  Uiso   1.00
C554   C     0.50515   0.64602   0.27359   0.00000  Uiso   1.00
C555   C     0.55923   0.62446   0.28596   0.00000  Uiso   1.00
C556   C     0.58370   0.58653   0.24959   0.00000  Uiso   1.00
C557   C     0.64181   0.52372   0.20385   0.00000  Uiso   1.00
C558   C     0.41291   0.65876   0.31836   0.00000  Uiso   1.00
C559   C     0.38943   0.64792   0.36837   0.00000  Uiso   1.00
C560   C     0.33624   0.62072   0.36968   0.00000  Uiso   1.00
C561   C     0.25112   0.57773   0.39344   0.00000  Uiso   1.00
C562   C     0.45738   0.73934   0.27171   0.00000  Uiso   1.00
C563   C     0.47128   0.79625   0.28250   0.00000  Uiso   1.00
C564   C     0.45552   0.83690   0.24454   0.00000  Uiso   1.00
C565   C     0.43945   0.91902   0.19587   0.00000  Uiso   1.00
C566   C     0.41780   0.65899   0.22107   0.00000  Uiso   1.00
C567   C     0.47651   0.63026   0.22656   0.00000  Uiso   1.00
C568   C     0.50090   0.59235   0.19016   0.00000  Uiso   1.00
C569   C     0.55501   0.57074   0.20247   0.00000  Uiso   1.00
C570   C     0.38427   0.64300   0.27133   0.00000  Uiso   1.00
C571   C     0.33110   0.61582   0.27257   0.00000  Uiso   1.00
C572   C     0.30755   0.60493   0.32257   0.00000  Uiso   1.00
C573   C     0.42874   0.72358   0.22467   0.00000  Uiso   1.00
C574   C     0.41295   0.76415   0.18669   0.00000  Uiso   1.00
C575   C     0.42683   0.82111   0.19742   0.00000  Uiso   1.00
H576   H     0.49281   0.70027   0.34428   0.00000  Uiso   1.00
H577   H     0.58138   0.63666   0.32237   0.00000  Uiso   1.00
H578   H     0.41160   0.66012   0.40476   0.00000  Uiso   1.00
H579   H     0.49344   0.80843   0.31890   0.00000  Uiso   1.00
H580   H     0.66693   0.55917   0.27734   0.00000  Uiso   1.00
H581   H     0.30894   0.60866   0.45107   0.00000  Uiso   1.00
H582   H     0.48151   0.92140   0.27001   0.00000  Uiso   1.00
H583   H     0.39550   0.64672   0.18446   0.00000  Uiso   1.00
H584   H     0.47873   0.58017   0.15377   0.00000  Uiso   1.00
H585   H     0.30895   0.60363   0.23616   0.00000  Uiso   1.00
H586   H     0.39079   0.75194   0.15030   0.00000  Uiso   1.00
H587   H     0.58361   0.51331   0.14050   0.00000  Uiso   1.00
H588   H     0.22562   0.56281   0.31423   0.00000  Uiso   1.00
H589   H     0.39819   0.87555   0.13317   0.00000  Uiso   1.00
O590   O     0.68177   0.49342   0.19162   0.00000  Uiso   1.00
O591   O     0.21209   0.55836   0.41955   0.00000  Uiso   1.00
O592   O     0.43851   0.96866   0.18201   0.00000  Uiso   1.00
N593   N     0.63590   0.55752   0.24934   0.00000  Uiso   1.00
N594   N     0.30121   0.60378   0.41176   0.00000  Uiso   1.00
N595   N     0.46253   0.89617   0.24250   0.00000  Uiso   1.00
N596   N     0.59107   0.53285   0.17570   0.00000  Uiso   1.00
N597   N     0.25637   0.57911   0.33813   0.00000  Uiso   1.00
N598   N     0.41770   0.87150   0.16887   0.00000  Uiso   1.00
C599   C     0.97052   0.18800   0.80767   0.00000  Uiso   1.00
C600   C     0.00515   0.14602   0.77359   0.00000  Uiso   1.00
C601   C     0.05923   0.12446   0.78596   0.00000  Uiso   1.00
C602   C     0.08370   0.08653   0.74959   0.00000  Uiso   1.00
C603   C     0.14181   0.02372   0.70385   0.00000  Uiso   1.00
C604   C     0.91291   0.15876   0.81836   0.00000  Uiso   1.00
C605   C     0.88943   0.14792   0.86837   0.00000  Uiso   1.00
C606   C     0.83624   0.12072   0.86968   0.00000  Uiso   1.00
C607   C     0.75112   0.07773   0.89344   0.00000  Uiso   1.00
C608   C     0.95738   0.23934   0.77171   0.00000  Uiso   1.00
C609   C     0.97128   0.29625   0.78250   0.00000  Uiso   1.00
C610   C     0.95552   0.33690   0.74454   0.00000  Uiso   1.00
C611   C     0.93945   0.41902   0.69587   0.00000  Uiso   1.00
C612   C     0.91780   0.15899   0.72107   0.00000  Uiso   1.00
C613   C     0.97651   0.13026   0.72656   0.00000  Uiso   1.00
C614   C     0.00090   0.09235   0.69016   0.00000  Uiso   1.00
C615   C     0.05501   0.07074   0.70247   0.00000  Uiso   1.00
C616   C     0.88427   0.14300   0.77133   0.00000  Uiso   1.00
C617   C     0.83110   0.11582   0.77257   0.00000  Uiso   1.00
C618   C     0.80755   0.10493   0.82257   0.00000  Uiso   1.00
C619   C     0.92874   0.22358   0.72467   0.00000  Uiso   1.00
C620   C     0.91295   0.26415   0.68669   0.00000  Uiso   1.00
C621   C     0.92683   0.32111   0.69742   0.00000  Uiso   1.00
H622   H     0.99281   0.20027   0.84428   0.00000  Uiso   1.00
H623   H     0.08138   0.13666   0.82237   0.00000  Uiso   1.00
H624   H     0.91160   0.16012   0.90476   0.00000  Uiso   1.00
H625   H     0.99344   0.30843   0.81890   0.00000  Uiso   1.00
H626   H     0.16693   0.05917   0.77734   0.00000  Uiso   1.00
H627   H     0.80894   0.10866   0.95107   0.00000  Uiso   1.00
H628   H     0.98151   0.42140   0.77001   0.00000  Uiso   1.00
H629   H     0.89550   0.14672   0.68446   0.00000  Uiso   1.00
H630   H     0.97873   0.08017   0.65377   0.00000  Uiso   1.00
H631   H     0.80895   0.10363   0.73616   0.00000  Uiso   1.00
H632   H     0.89079   0.25194   0.65030   0.00000  Uiso   1.00
H633   H     0.08361   0.01331   0.64050   0.00000  Uiso   1.00
H634   H     0.72562   0.06281   0.81423   0.00000  Uiso   1.00
H635   H     0.89819   0.37555   0.63317   0.00000  Uiso   1.00
O636   O     0.18177   0.99342   0.69162   0.00000  Uiso   1.00
O637   O     0.71209   0.05836   0.91955   0.00000  Uiso   1.00
O638   O     0.93851   0.46866   0.68201   0.00000  Uiso   1.00
N639   N     0.13590   0.05752   0.74934   0.00000  Uiso   1.00
N640   N     0.80121   0.10378   0.91176   0.00000  Uiso   1.00
N641   N     0.96253   0.39617   0.74250   0.00000  Uiso   1.00
N642   N     0.09107   0.03285   0.67570   0.00000  Uiso   1.00
N643   N     0.75637   0.07911   0.83813   0.00000  Uiso   1.00
N644   N     0.91770   0.37150   0.66887   0.00000  Uiso   1.00
C645   C     0.02948   0.81200   0.80767   0.00000  Uiso   1.00
C646   C     0.99485   0.85398   0.77359   0.00000  Uiso   1.00
C647   C     0.94077   0.87554   0.78596   0.00000  Uiso   1.00
C648   C     0.91630   0.91347   0.74959   0.00000  Uiso   1.00
C649   C     0.85819   0.97628   0.70385   0.00000  Uiso   1.00
C650   C     0.08709   0.84124   0.81836   0.00000  Uiso   1.00
C651   C     0.11057   0.85208   0.86837   0.00000  Uiso   1.00
C652   C     0.16376   0.87928   0.86968   0.00000  Uiso   1.00
C653   C     0.24888   0.92227   0.89344   0.00000  Uiso   1.00
C654   C     0.04262   0.76066   0.77171   0.00000  Uiso   1.00
C655   C     0.02872   0.70375   0.78250   0.00000  Uiso   1.00
C656   C     0.04448   0.66310   0.74454   0.00000  Uiso   1.00
C657   C     0.06055   0.58098   0.69587   0.00000  Uiso   1.00
C658   C     0.08220   0.84101   0.72107   0.00000  Uiso   1.00
C659   C     0.02349   0.86974   0.72656   0.00000  Uiso   1.00
C660   C     0.99910   0.90765   0.69016   0.00000  Uiso   1.00
C661   C     0.94499   0.92926   0.70247   0.00000  Uiso   1.00
C662   C     0.11573   0.85700   0.77133   0.00000  Uiso   1.00
C663   C     0.16890   0.88418   0.77257   0.00000  Uiso   1.00
C664   C     0.19245   0.89507   0.82257   0.00000  Uiso   1.00
C665   C     0.07126   0.77642   0.72467   0.00000  Uiso   1.00
C666   C     0.08705   0.73585   0.68669   0.00000  Uiso   1.00
C667   C     0.07317   0.67889   0.69742   0.00000  Uiso   1.00
H668   H     0.00719   0.79973   0.84428   0.00000  Uiso   1.00
H669   H     0.91862   0.86334   0.82237   0.00000  Uiso   1.00
H670   H     0.08840   0.83988   0.90476   0.00000  Uiso   1.00
H671   H     0.00656   0.69157   0.81890   0.00000  Uiso   1.00
H672   H     0.83307   0.94083   0.77734   0.00000  Uiso   1.00
H673   H     0.19106   0.89134   0.95107   0.00000  Uiso   1.00
H674   H     0.01849   0.57860   0.77001   0.00000  Uiso   1.00
H675   H     0.10450   0.85328   0.68446   0.00000  Uiso   1.00
H676   H     0.02127   0.91983   0.65377   0.00000  Uiso   1.00
H677   H     0.19105   0.89637   0.73616   0.00000  Uiso   1.00
H678   H     0.10921   0.74806   0.65030   0.00000  Uiso   1.00
H679   H     0.91639   0.98669   0.64050   0.00000  Uiso   1.00
H680   H     0.27438   0.93719   0.81423   0.00000  Uiso   1.00
H681   H     0.10181   0.62445   0.63317   0.00000  Uiso   1.00
O682   O     0.81823   0.00658   0.69162   0.00000  Uiso   1.00
O683   O     0.28791   0.94164   0.91955   0.00000  Uiso   1.00
O684   O     0.06149   0.53134   0.68201   0.00000  Uiso   1.00
N685   N     0.86410   0.94248   0.74934   0.00000  Uiso   1.00
N686   N     0.19879   0.89622   0.91176   0.00000  Uiso   1.00
N687   N     0.03747   0.60383   0.74250   0.00000  Uiso   1.00
N688   N     0.90893   0.96715   0.67570   0.00000  Uiso   1.00
N689   N     0.24363   0.92089   0.83813   0.00000  Uiso   1.00
N690   N     0.08230   0.62850   0.66887   0.00000  Uiso   1.00
C691   C     0.52948   0.31200   0.30767   0.00000  Uiso   1.00
C692   C     0.49485   0.35398   0.27359   0.00000  Uiso   1.00
C693   C     0.44077   0.37554   0.28596   0.00000  Uiso   1.00
C694   C     0.41630   0.41347   0.24959   0.00000  Uiso   1.00
C695   C     0.35819   0.47628   0.20385   0.00000  Uiso   1.00
C696   C     0.58709   0.34124   0.31836   0.00000  Uiso   1.00
C697   C     0.61057   0.35208   0.36837   0.00000  Uiso   1.00
C698   C     0.66376   0.37928   0.36968   0.00000  Uiso   1.00
C699   C     0.74888   0.42227   0.39344   0.00000  Uiso   1.00
C700   C     0.54262   0.26066   0.27171   0.00000  Uiso   1.00
C701   C     0.52872   0.20375   0.28250   0.00000  Uiso   1.00
C702   C     0.54448   0.16310   0.24454   0.00000  Uiso   1.00
C703   C     0.56055   0.08098   0.19587   0.00000  Uiso   1.00
C704   C     0.58220   0.34101   0.22107   0.00000  Uiso   1.00
C705   C     0.52349   0.36974   0.22656   0.00000  Uiso   1.00
C706   C     0.49910   0.40765   0.19016   0.00000  Uiso   1.00
C707   C     0.44499   0.42926   0.20247   0.00000  Uiso   1.00
C708   C     0.61573   0.35700   0.27133   0.00000  Uiso   1.00
C709   C     0.66890   0.38418   0.27257   0.00000  Uiso   1.00
C710   C     0.69245   0.39507   0.32257   0.00000  Uiso   1.00
C711   C     0.57126   0.27642   0.22467   0.00000  Uiso   1.00
C712   C     0.58705   0.23585   0.18669   0.00000  Uiso   1.00
C713   C     0.57317   0.17889   0.19742   0.00000  Uiso   1.00
H714   H     0.50719   0.29973   0.34428   0.00000  Uiso   1.00
H715   H     0.41862   0.36334   0.32237   0.00000  Uiso   1.00
H716   H     0.58840   0.33988   0.40476   0.00000  Uiso   1.00
H717   H     0.50656   0.19157   0.31890   0.00000  Uiso   1.00
H718   H     0.33307   0.44083   0.27734   0.00000  Uiso   1.00
H719   H     0.69106   0.39134   0.45107   0.00000  Uiso   1.00
H720   H     0.51849   0.07860   0.27001   0.00000  Uiso   1.00
H721   H     0.60450   0.35328   0.18446   0.00000  Uiso   1.00
H722   H     0.52127   0.41983   0.15377   0.00000  Uiso   1.00
H723   H     0.69105   0.39637   0.23616   0.00000  Uiso   1.00
H724   H     0.60921   0.24806   0.15030   0.00000  Uiso   1.00
H725   H     0.41639   0.48669   0.14050   0.00000  Uiso   1.00
H726   H     0.77438   0.43719   0.31423   0.00000  Uiso   1.00
H727   H     0.60181   0.12445   0.13317   0.00000  Uiso   1.00
O728   O     0.31823   0.50658   0.19162   0.00000  Uiso   1.00
O729   O     0.78791   0.44164   0.41955   0.00000  Uiso   1.00
O730   O     0.56149   0.03134   0.18201   0.00000  Uiso   1.00
N731   N     0.36410   0.44248   0.24934   0.00000  Uiso   1.00
N732   N     0.69879   0.39622   0.41176   0.00000  Uiso   1.00
N733   N     0.53747   0.10383   0.24250   0.00000  Uiso   1.00
N734   N     0.40893   0.46715   0.17570   0.00000  Uiso   1.00
N735   N     0.74363   0.42089   0.33813   0.00000  Uiso   1.00
N736   N     0.58230   0.12850   0.16887   0.00000  Uiso   1.00
