data_job_02401
_audit_creation_date              2018-12-19
_audit_creation_method            'Materials Studio'
_symmetry_space_group_name_H-M    'P1'
_symmetry_Int_Tables_number       1
_symmetry_cell_setting            triclinic
loop_
_symmetry_equiv_pos_as_xyz
  x,y,z
_cell_length_a                    20.9604
_cell_length_b                    20.9604
_cell_length_c                    24.9256
_cell_angle_alpha                 90.0000
_cell_angle_beta                  90.0000
_cell_angle_gamma                 90.0000
loop_
_atom_site_label
_atom_site_type_symbol
_atom_site_fract_x
_atom_site_fract_y
_atom_site_fract_z
_atom_site_U_iso_or_equiv
_atom_site_adp_type
_atom_site_occupancy
C1     C     0.17633   0.33437   0.37202   0.00000  Uiso   1.00
C2     C     0.22905   0.28427   0.37360   0.00000  Uiso   1.00
C3     C     0.29407   0.29661   0.37528   0.00000  Uiso   1.00
C4     C     0.33458   0.24423   0.37653   0.00000  Uiso   1.00
C5     C     0.42005   0.17594   0.37902   0.00000  Uiso   1.00
C6     C     0.13685   0.31978   0.32212   0.00000  Uiso   1.00
C7     C     0.12433   0.36198   0.28052   0.00000  Uiso   1.00
C8     C     0.08722   0.33948   0.23844   0.00000  Uiso   1.00
C9     C     0.02950   0.32633   0.16103   0.00000  Uiso   1.00
C10    C     0.13316   0.32026   0.41980   0.00000  Uiso   1.00
C11    C     0.11752   0.36287   0.46034   0.00000  Uiso   1.00
C12    C     0.07728   0.34078   0.50051   0.00000  Uiso   1.00
C13    C     0.01384   0.32838   0.57477   0.00000  Uiso   1.00
C14    C     0.13265   0.21938   0.37125   0.00000  Uiso   1.00
C15    C     0.20532   0.22181   0.37318   0.00000  Uiso   1.00
C16    C     0.24574   0.16939   0.37443   0.00000  Uiso   1.00
C17    C     0.31081   0.18166   0.37612   0.00000  Uiso   1.00
C18    C     0.11312   0.25732   0.32170   0.00000  Uiso   1.00
C19    C     0.07601   0.23476   0.27967   0.00000  Uiso   1.00
C20    C     0.06345   0.27691   0.23802   0.00000  Uiso   1.00
C21    C     0.10943   0.25780   0.41939   0.00000  Uiso   1.00
C22    C     0.06920   0.23565   0.45949   0.00000  Uiso   1.00
C23    C     0.05352   0.27821   0.50009   0.00000  Uiso   1.00
H24    H     0.19480   0.38299   0.37234   0.00000  Uiso   1.00
H25    H     0.31241   0.34496   0.37560   0.00000  Uiso   1.00
H26    H     0.14270   0.41031   0.28086   0.00000  Uiso   1.00
H27    H     0.13589   0.41120   0.46065   0.00000  Uiso   1.00
H28    H     0.43234   0.27524   0.37901   0.00000  Uiso   1.00
H29    H     0.07448   0.41305   0.17925   0.00000  Uiso   1.00
H30    H     0.06012   0.41493   0.55838   0.00000  Uiso   1.00
H31    H     0.11418   0.17075   0.37092   0.00000  Uiso   1.00
H32    H     0.22737   0.12107   0.37411   0.00000  Uiso   1.00
H33    H     0.05766   0.18642   0.27936   0.00000  Uiso   1.00
H34    H     0.05085   0.18731   0.45916   0.00000  Uiso   1.00
H35    H     0.36332   0.09352   0.37779   0.00000  Uiso   1.00
H36    H     0.00545   0.23133   0.17804   0.00000  Uiso   1.00
H37    H     0.99110   0.23321   0.55717   0.00000  Uiso   1.00
O38    O     0.47375   0.15553   0.38050   0.00000  Uiso   1.00
O39    O     0.00423   0.33633   0.11844   0.00000  Uiso   1.00
O40    O     0.98541   0.33879   0.61585   0.00000  Uiso   1.00
N41    N     0.40057   0.23929   0.37829   0.00000  Uiso   1.00
N42    N     0.06599   0.36813   0.19153   0.00000  Uiso   1.00
N43    N     0.05256   0.36989   0.54598   0.00000  Uiso   1.00
N44    N     0.36343   0.14151   0.37764   0.00000  Uiso   1.00
N45    N     0.02885   0.27035   0.19088   0.00000  Uiso   1.00
N46    N     0.01542   0.27211   0.54533   0.00000  Uiso   1.00
C47    C     0.67633   0.83437   0.87202   0.00000  Uiso   1.00
C48    C     0.72905   0.78427   0.87360   0.00000  Uiso   1.00
C49    C     0.79407   0.79661   0.87528   0.00000  Uiso   1.00
C50    C     0.83458   0.74423   0.87653   0.00000  Uiso   1.00
C51    C     0.92005   0.67594   0.87902   0.00000  Uiso   1.00
C52    C     0.63685   0.81978   0.82212   0.00000  Uiso   1.00
C53    C     0.62433   0.86198   0.78052   0.00000  Uiso   1.00
C54    C     0.58722   0.83948   0.73844   0.00000  Uiso   1.00
C55    C     0.52950   0.82633   0.66103   0.00000  Uiso   1.00
C56    C     0.63316   0.82026   0.91980   0.00000  Uiso   1.00
C57    C     0.61752   0.86287   0.96034   0.00000  Uiso   1.00
C58    C     0.57728   0.84078   0.00051   0.00000  Uiso   1.00
C59    C     0.51384   0.82838   0.07477   0.00000  Uiso   1.00
C60    C     0.63265   0.71938   0.87125   0.00000  Uiso   1.00
C61    C     0.70532   0.72181   0.87318   0.00000  Uiso   1.00
C62    C     0.74574   0.66939   0.87443   0.00000  Uiso   1.00
C63    C     0.81081   0.68166   0.87612   0.00000  Uiso   1.00
C64    C     0.61312   0.75732   0.82170   0.00000  Uiso   1.00
C65    C     0.57601   0.73476   0.77967   0.00000  Uiso   1.00
C66    C     0.56345   0.77691   0.73802   0.00000  Uiso   1.00
C67    C     0.60943   0.75780   0.91939   0.00000  Uiso   1.00
C68    C     0.56920   0.73565   0.95949   0.00000  Uiso   1.00
C69    C     0.55352   0.77821   0.00009   0.00000  Uiso   1.00
H70    H     0.69480   0.88299   0.87234   0.00000  Uiso   1.00
H71    H     0.81241   0.84496   0.87560   0.00000  Uiso   1.00
H72    H     0.64270   0.91031   0.78086   0.00000  Uiso   1.00
H73    H     0.63589   0.91120   0.96065   0.00000  Uiso   1.00
H74    H     0.93234   0.77524   0.87901   0.00000  Uiso   1.00
H75    H     0.57448   0.91305   0.67925   0.00000  Uiso   1.00
H76    H     0.56012   0.91493   0.05838   0.00000  Uiso   1.00
H77    H     0.61418   0.67075   0.87092   0.00000  Uiso   1.00
H78    H     0.72737   0.62107   0.87411   0.00000  Uiso   1.00
H79    H     0.55766   0.68642   0.77936   0.00000  Uiso   1.00
H80    H     0.55085   0.68731   0.95916   0.00000  Uiso   1.00
H81    H     0.86332   0.59352   0.87779   0.00000  Uiso   1.00
H82    H     0.50545   0.73133   0.67804   0.00000  Uiso   1.00
H83    H     0.49110   0.73321   0.05717   0.00000  Uiso   1.00
O84    O     0.97375   0.65553   0.88050   0.00000  Uiso   1.00
O85    O     0.50423   0.83633   0.61844   0.00000  Uiso   1.00
O86    O     0.48541   0.83879   0.11585   0.00000  Uiso   1.00
N87    N     0.90057   0.73929   0.87829   0.00000  Uiso   1.00
N88    N     0.56599   0.86813   0.69153   0.00000  Uiso   1.00
N89    N     0.55256   0.86989   0.04598   0.00000  Uiso   1.00
N90    N     0.86343   0.64151   0.87764   0.00000  Uiso   1.00
N91    N     0.52885   0.77035   0.69088   0.00000  Uiso   1.00
N92    N     0.51542   0.77211   0.04533   0.00000  Uiso   1.00
C93    C     0.32367   0.16563   0.87202   0.00000  Uiso   1.00
C94    C     0.27095   0.21573   0.87360   0.00000  Uiso   1.00
C95    C     0.20593   0.20339   0.87528   0.00000  Uiso   1.00
C96    C     0.16542   0.25577   0.87653   0.00000  Uiso   1.00
C97    C     0.07995   0.32406   0.87902   0.00000  Uiso   1.00
C98    C     0.36315   0.18022   0.82212   0.00000  Uiso   1.00
C99    C     0.37567   0.13802   0.78052   0.00000  Uiso   1.00
C100   C     0.41278   0.16052   0.73844   0.00000  Uiso   1.00
C101   C     0.47050   0.17367   0.66103   0.00000  Uiso   1.00
C102   C     0.36684   0.17974   0.91980   0.00000  Uiso   1.00
C103   C     0.38248   0.13713   0.96034   0.00000  Uiso   1.00
C104   C     0.42272   0.15922   0.00051   0.00000  Uiso   1.00
C105   C     0.48616   0.17162   0.07477   0.00000  Uiso   1.00
C106   C     0.36735   0.28062   0.87125   0.00000  Uiso   1.00
C107   C     0.29468   0.27819   0.87318   0.00000  Uiso   1.00
C108   C     0.25426   0.33061   0.87443   0.00000  Uiso   1.00
C109   C     0.18919   0.31834   0.87612   0.00000  Uiso   1.00
C110   C     0.38688   0.24268   0.82170   0.00000  Uiso   1.00
C111   C     0.42399   0.26524   0.77967   0.00000  Uiso   1.00
C112   C     0.43655   0.22309   0.73802   0.00000  Uiso   1.00
C113   C     0.39057   0.24220   0.91939   0.00000  Uiso   1.00
C114   C     0.43080   0.26435   0.95949   0.00000  Uiso   1.00
C115   C     0.44648   0.22179   0.00009   0.00000  Uiso   1.00
H116   H     0.30520   0.11701   0.87234   0.00000  Uiso   1.00
H117   H     0.18759   0.15504   0.87560   0.00000  Uiso   1.00
H118   H     0.35730   0.08969   0.78086   0.00000  Uiso   1.00
H119   H     0.36411   0.08880   0.96065   0.00000  Uiso   1.00
H120   H     0.06766   0.22476   0.87901   0.00000  Uiso   1.00
H121   H     0.42552   0.08695   0.67925   0.00000  Uiso   1.00
H122   H     0.43988   0.08507   0.05838   0.00000  Uiso   1.00
H123   H     0.38582   0.32925   0.87092   0.00000  Uiso   1.00
H124   H     0.27263   0.37893   0.87411   0.00000  Uiso   1.00
H125   H     0.44234   0.31358   0.77936   0.00000  Uiso   1.00
H126   H     0.44915   0.31269   0.95916   0.00000  Uiso   1.00
H127   H     0.13668   0.40648   0.87779   0.00000  Uiso   1.00
H128   H     0.49455   0.26867   0.67804   0.00000  Uiso   1.00
H129   H     0.50890   0.26679   0.05717   0.00000  Uiso   1.00
O130   O     0.02625   0.34447   0.88050   0.00000  Uiso   1.00
O131   O     0.49577   0.16367   0.61844   0.00000  Uiso   1.00
O132   O     0.51459   0.16121   0.11585   0.00000  Uiso   1.00
N133   N     0.09943   0.26071   0.87829   0.00000  Uiso   1.00
N134   N     0.43401   0.13187   0.69153   0.00000  Uiso   1.00
N135   N     0.44744   0.13011   0.04598   0.00000  Uiso   1.00
N136   N     0.13657   0.35849   0.87764   0.00000  Uiso   1.00
N137   N     0.47115   0.22965   0.69088   0.00000  Uiso   1.00
N138   N     0.48458   0.22789   0.04533   0.00000  Uiso   1.00
C139   C     0.82367   0.66563   0.37202   0.00000  Uiso   1.00
C140   C     0.77095   0.71573   0.37360   0.00000  Uiso   1.00
C141   C     0.70593   0.70339   0.37528   0.00000  Uiso   1.00
C142   C     0.66542   0.75577   0.37653   0.00000  Uiso   1.00
C143   C     0.57995   0.82406   0.37902   0.00000  Uiso   1.00
C144   C     0.86315   0.68022   0.32212   0.00000  Uiso   1.00
C145   C     0.87567   0.63802   0.28052   0.00000  Uiso   1.00
C146   C     0.91278   0.66052   0.23844   0.00000  Uiso   1.00
C147   C     0.97050   0.67367   0.16103   0.00000  Uiso   1.00
C148   C     0.86684   0.67974   0.41980   0.00000  Uiso   1.00
C149   C     0.88248   0.63713   0.46034   0.00000  Uiso   1.00
C150   C     0.92272   0.65922   0.50051   0.00000  Uiso   1.00
C151   C     0.98616   0.67162   0.57477   0.00000  Uiso   1.00
C152   C     0.86735   0.78062   0.37125   0.00000  Uiso   1.00
C153   C     0.79468   0.77819   0.37318   0.00000  Uiso   1.00
C154   C     0.75426   0.83061   0.37443   0.00000  Uiso   1.00
C155   C     0.68919   0.81834   0.37612   0.00000  Uiso   1.00
C156   C     0.88688   0.74268   0.32170   0.00000  Uiso   1.00
C157   C     0.92399   0.76524   0.27967   0.00000  Uiso   1.00
C158   C     0.93655   0.72309   0.23802   0.00000  Uiso   1.00
C159   C     0.89057   0.74220   0.41939   0.00000  Uiso   1.00
C160   C     0.93080   0.76435   0.45949   0.00000  Uiso   1.00
C161   C     0.94648   0.72179   0.50009   0.00000  Uiso   1.00
H162   H     0.80520   0.61701   0.37234   0.00000  Uiso   1.00
H163   H     0.68759   0.65504   0.37560   0.00000  Uiso   1.00
H164   H     0.85730   0.58969   0.28086   0.00000  Uiso   1.00
H165   H     0.86411   0.58880   0.46065   0.00000  Uiso   1.00
H166   H     0.56766   0.72476   0.37901   0.00000  Uiso   1.00
H167   H     0.92552   0.58695   0.17925   0.00000  Uiso   1.00
H168   H     0.93988   0.58507   0.55838   0.00000  Uiso   1.00
H169   H     0.88582   0.82925   0.37092   0.00000  Uiso   1.00
H170   H     0.77263   0.87893   0.37411   0.00000  Uiso   1.00
H171   H     0.94234   0.81358   0.27936   0.00000  Uiso   1.00
H172   H     0.94915   0.81269   0.45916   0.00000  Uiso   1.00
H173   H     0.63668   0.90648   0.37779   0.00000  Uiso   1.00
H174   H     0.99455   0.76867   0.17804   0.00000  Uiso   1.00
H175   H     0.00890   0.76679   0.55717   0.00000  Uiso   1.00
O176   O     0.52625   0.84447   0.38050   0.00000  Uiso   1.00
O177   O     0.99577   0.66367   0.11844   0.00000  Uiso   1.00
O178   O     0.01459   0.66121   0.61585   0.00000  Uiso   1.00
N179   N     0.59943   0.76071   0.37829   0.00000  Uiso   1.00
N180   N     0.93401   0.63187   0.19153   0.00000  Uiso   1.00
N181   N     0.94744   0.63011   0.54598   0.00000  Uiso   1.00
N182   N     0.63657   0.85849   0.37764   0.00000  Uiso   1.00
N183   N     0.97115   0.72965   0.19088   0.00000  Uiso   1.00
N184   N     0.98458   0.72789   0.54533   0.00000  Uiso   1.00
C185   C     0.66563   0.67633   0.62202   0.00000  Uiso   1.00
C186   C     0.71573   0.72905   0.62360   0.00000  Uiso   1.00
C187   C     0.70339   0.79407   0.62528   0.00000  Uiso   1.00
C188   C     0.75577   0.83458   0.62653   0.00000  Uiso   1.00
C189   C     0.82406   0.92005   0.62902   0.00000  Uiso   1.00
C190   C     0.68022   0.63685   0.57212   0.00000  Uiso   1.00
C191   C     0.63802   0.62433   0.53052   0.00000  Uiso   1.00
C192   C     0.66052   0.58722   0.48844   0.00000  Uiso   1.00
C193   C     0.67367   0.52950   0.41103   0.00000  Uiso   1.00
C194   C     0.67974   0.63316   0.66980   0.00000  Uiso   1.00
C195   C     0.63713   0.61752   0.71034   0.00000  Uiso   1.00
C196   C     0.65922   0.57728   0.75051   0.00000  Uiso   1.00
C197   C     0.67162   0.51384   0.82477   0.00000  Uiso   1.00
C198   C     0.78062   0.63265   0.62125   0.00000  Uiso   1.00
C199   C     0.77819   0.70532   0.62318   0.00000  Uiso   1.00
C200   C     0.83061   0.74574   0.62443   0.00000  Uiso   1.00
C201   C     0.81834   0.81081   0.62612   0.00000  Uiso   1.00
C202   C     0.74268   0.61312   0.57170   0.00000  Uiso   1.00
C203   C     0.76524   0.57601   0.52967   0.00000  Uiso   1.00
C204   C     0.72309   0.56345   0.48802   0.00000  Uiso   1.00
C205   C     0.74220   0.60943   0.66939   0.00000  Uiso   1.00
C206   C     0.76435   0.56920   0.70949   0.00000  Uiso   1.00
C207   C     0.72179   0.55352   0.75009   0.00000  Uiso   1.00
H208   H     0.61701   0.69480   0.62234   0.00000  Uiso   1.00
H209   H     0.65504   0.81241   0.62560   0.00000  Uiso   1.00
H210   H     0.58969   0.64270   0.53086   0.00000  Uiso   1.00
H211   H     0.58880   0.63589   0.71065   0.00000  Uiso   1.00
H212   H     0.72476   0.93234   0.62901   0.00000  Uiso   1.00
H213   H     0.58695   0.57448   0.42925   0.00000  Uiso   1.00
H214   H     0.58507   0.56012   0.80838   0.00000  Uiso   1.00
H215   H     0.82925   0.61418   0.62092   0.00000  Uiso   1.00
H216   H     0.87893   0.72737   0.62411   0.00000  Uiso   1.00
H217   H     0.81358   0.55766   0.52936   0.00000  Uiso   1.00
H218   H     0.81269   0.55085   0.70916   0.00000  Uiso   1.00
H219   H     0.90648   0.86332   0.62779   0.00000  Uiso   1.00
H220   H     0.76867   0.50545   0.42804   0.00000  Uiso   1.00
H221   H     0.76679   0.49110   0.80717   0.00000  Uiso   1.00
O222   O     0.84447   0.97375   0.63050   0.00000  Uiso   1.00
O223   O     0.66367   0.50423   0.36844   0.00000  Uiso   1.00
O224   O     0.66121   0.48541   0.86585   0.00000  Uiso   1.00
N225   N     0.76071   0.90057   0.62829   0.00000  Uiso   1.00
N226   N     0.63187   0.56599   0.44153   0.00000  Uiso   1.00
N227   N     0.63011   0.55256   0.79598   0.00000  Uiso   1.00
N228   N     0.85849   0.86343   0.62764   0.00000  Uiso   1.00
N229   N     0.72965   0.52885   0.44088   0.00000  Uiso   1.00
N230   N     0.72789   0.51542   0.79533   0.00000  Uiso   1.00
C231   C     0.16563   0.17633   0.12202   0.00000  Uiso   1.00
C232   C     0.21573   0.22905   0.12360   0.00000  Uiso   1.00
C233   C     0.20339   0.29407   0.12528   0.00000  Uiso   1.00
C234   C     0.25577   0.33458   0.12653   0.00000  Uiso   1.00
C235   C     0.32406   0.42005   0.12902   0.00000  Uiso   1.00
C236   C     0.18022   0.13685   0.07212   0.00000  Uiso   1.00
C237   C     0.13802   0.12433   0.03052   0.00000  Uiso   1.00
C238   C     0.16052   0.08722   0.98844   0.00000  Uiso   1.00
C239   C     0.17367   0.02950   0.91103   0.00000  Uiso   1.00
C240   C     0.17974   0.13316   0.16980   0.00000  Uiso   1.00
C241   C     0.13713   0.11752   0.21034   0.00000  Uiso   1.00
C242   C     0.15922   0.07728   0.25051   0.00000  Uiso   1.00
C243   C     0.17162   0.01384   0.32477   0.00000  Uiso   1.00
C244   C     0.28062   0.13265   0.12125   0.00000  Uiso   1.00
C245   C     0.27819   0.20532   0.12318   0.00000  Uiso   1.00
C246   C     0.33061   0.24574   0.12443   0.00000  Uiso   1.00
C247   C     0.31834   0.31081   0.12612   0.00000  Uiso   1.00
C248   C     0.24268   0.11312   0.07170   0.00000  Uiso   1.00
C249   C     0.26524   0.07601   0.02967   0.00000  Uiso   1.00
C250   C     0.22309   0.06345   0.98802   0.00000  Uiso   1.00
C251   C     0.24220   0.10943   0.16939   0.00000  Uiso   1.00
C252   C     0.26435   0.06920   0.20949   0.00000  Uiso   1.00
C253   C     0.22179   0.05352   0.25009   0.00000  Uiso   1.00
H254   H     0.11701   0.19480   0.12234   0.00000  Uiso   1.00
H255   H     0.15504   0.31241   0.12560   0.00000  Uiso   1.00
H256   H     0.08969   0.14270   0.03086   0.00000  Uiso   1.00
H257   H     0.08880   0.13589   0.21065   0.00000  Uiso   1.00
H258   H     0.22476   0.43234   0.12901   0.00000  Uiso   1.00
H259   H     0.08695   0.07448   0.92925   0.00000  Uiso   1.00
H260   H     0.08507   0.06012   0.30838   0.00000  Uiso   1.00
H261   H     0.32925   0.11418   0.12092   0.00000  Uiso   1.00
H262   H     0.37893   0.22737   0.12411   0.00000  Uiso   1.00
H263   H     0.31358   0.05766   0.02936   0.00000  Uiso   1.00
H264   H     0.31269   0.05085   0.20916   0.00000  Uiso   1.00
H265   H     0.40648   0.36332   0.12779   0.00000  Uiso   1.00
H266   H     0.26867   0.00545   0.92804   0.00000  Uiso   1.00
H267   H     0.26679   0.99110   0.30717   0.00000  Uiso   1.00
O268   O     0.34447   0.47375   0.13050   0.00000  Uiso   1.00
O269   O     0.16367   0.00423   0.86844   0.00000  Uiso   1.00
O270   O     0.16121   0.98541   0.36585   0.00000  Uiso   1.00
N271   N     0.26071   0.40057   0.12829   0.00000  Uiso   1.00
N272   N     0.13187   0.06599   0.94153   0.00000  Uiso   1.00
N273   N     0.13011   0.05256   0.29598   0.00000  Uiso   1.00
N274   N     0.35849   0.36343   0.12764   0.00000  Uiso   1.00
N275   N     0.22965   0.02885   0.94088   0.00000  Uiso   1.00
N276   N     0.22789   0.01542   0.29533   0.00000  Uiso   1.00
C277   C     0.83437   0.82367   0.12202   0.00000  Uiso   1.00
C278   C     0.78427   0.77095   0.12360   0.00000  Uiso   1.00
C279   C     0.79661   0.70593   0.12528   0.00000  Uiso   1.00
C280   C     0.74423   0.66542   0.12653   0.00000  Uiso   1.00
C281   C     0.67594   0.57995   0.12902   0.00000  Uiso   1.00
C282   C     0.81978   0.86315   0.07212   0.00000  Uiso   1.00
C283   C     0.86198   0.87567   0.03052   0.00000  Uiso   1.00
C284   C     0.83948   0.91278   0.98844   0.00000  Uiso   1.00
C285   C     0.82633   0.97050   0.91103   0.00000  Uiso   1.00
C286   C     0.82026   0.86684   0.16980   0.00000  Uiso   1.00
C287   C     0.86287   0.88248   0.21034   0.00000  Uiso   1.00
C288   C     0.84078   0.92272   0.25051   0.00000  Uiso   1.00
C289   C     0.82838   0.98616   0.32477   0.00000  Uiso   1.00
C290   C     0.71938   0.86735   0.12125   0.00000  Uiso   1.00
C291   C     0.72181   0.79468   0.12318   0.00000  Uiso   1.00
C292   C     0.66939   0.75426   0.12443   0.00000  Uiso   1.00
C293   C     0.68166   0.68919   0.12612   0.00000  Uiso   1.00
C294   C     0.75732   0.88688   0.07170   0.00000  Uiso   1.00
C295   C     0.73476   0.92399   0.02967   0.00000  Uiso   1.00
C296   C     0.77691   0.93655   0.98802   0.00000  Uiso   1.00
C297   C     0.75780   0.89057   0.16939   0.00000  Uiso   1.00
C298   C     0.73565   0.93080   0.20949   0.00000  Uiso   1.00
C299   C     0.77821   0.94648   0.25009   0.00000  Uiso   1.00
H300   H     0.88299   0.80520   0.12234   0.00000  Uiso   1.00
H301   H     0.84496   0.68759   0.12560   0.00000  Uiso   1.00
H302   H     0.91031   0.85730   0.03086   0.00000  Uiso   1.00
H303   H     0.91120   0.86411   0.21065   0.00000  Uiso   1.00
H304   H     0.77524   0.56766   0.12901   0.00000  Uiso   1.00
H305   H     0.91305   0.92552   0.92925   0.00000  Uiso   1.00
H306   H     0.91493   0.93988   0.30838   0.00000  Uiso   1.00
H307   H     0.67075   0.88582   0.12092   0.00000  Uiso   1.00
H308   H     0.62107   0.77263   0.12411   0.00000  Uiso   1.00
H309   H     0.68642   0.94234   0.02936   0.00000  Uiso   1.00
H310   H     0.68731   0.94915   0.20916   0.00000  Uiso   1.00
H311   H     0.59352   0.63668   0.12779   0.00000  Uiso   1.00
H312   H     0.73133   0.99455   0.92804   0.00000  Uiso   1.00
H313   H     0.73321   0.00890   0.30717   0.00000  Uiso   1.00
O314   O     0.65553   0.52625   0.13050   0.00000  Uiso   1.00
O315   O     0.83633   0.99577   0.86844   0.00000  Uiso   1.00
O316   O     0.83879   0.01459   0.36585   0.00000  Uiso   1.00
N317   N     0.73929   0.59943   0.12829   0.00000  Uiso   1.00
N318   N     0.86813   0.93401   0.94153   0.00000  Uiso   1.00
N319   N     0.86989   0.94744   0.29598   0.00000  Uiso   1.00
N320   N     0.64151   0.63657   0.12764   0.00000  Uiso   1.00
N321   N     0.77035   0.97115   0.94088   0.00000  Uiso   1.00
N322   N     0.77211   0.98458   0.29533   0.00000  Uiso   1.00
C323   C     0.33437   0.32367   0.62202   0.00000  Uiso   1.00
C324   C     0.28427   0.27095   0.62360   0.00000  Uiso   1.00
C325   C     0.29661   0.20593   0.62528   0.00000  Uiso   1.00
C326   C     0.24423   0.16542   0.62653   0.00000  Uiso   1.00
C327   C     0.17594   0.07995   0.62902   0.00000  Uiso   1.00
C328   C     0.31978   0.36315   0.57212   0.00000  Uiso   1.00
C329   C     0.36198   0.37567   0.53052   0.00000  Uiso   1.00
C330   C     0.33948   0.41278   0.48844   0.00000  Uiso   1.00
C331   C     0.32633   0.47050   0.41103   0.00000  Uiso   1.00
C332   C     0.32026   0.36684   0.66980   0.00000  Uiso   1.00
C333   C     0.36287   0.38248   0.71034   0.00000  Uiso   1.00
C334   C     0.34078   0.42272   0.75051   0.00000  Uiso   1.00
C335   C     0.32838   0.48616   0.82477   0.00000  Uiso   1.00
C336   C     0.21938   0.36735   0.62125   0.00000  Uiso   1.00
C337   C     0.22181   0.29468   0.62318   0.00000  Uiso   1.00
C338   C     0.16939   0.25426   0.62443   0.00000  Uiso   1.00
C339   C     0.18166   0.18919   0.62612   0.00000  Uiso   1.00
C340   C     0.25732   0.38688   0.57170   0.00000  Uiso   1.00
C341   C     0.23476   0.42399   0.52967   0.00000  Uiso   1.00
C342   C     0.27691   0.43655   0.48802   0.00000  Uiso   1.00
C343   C     0.25780   0.39057   0.66939   0.00000  Uiso   1.00
C344   C     0.23565   0.43080   0.70949   0.00000  Uiso   1.00
C345   C     0.27821   0.44648   0.75009   0.00000  Uiso   1.00
H346   H     0.38299   0.30520   0.62234   0.00000  Uiso   1.00
H347   H     0.34496   0.18759   0.62560   0.00000  Uiso   1.00
H348   H     0.41031   0.35730   0.53086   0.00000  Uiso   1.00
H349   H     0.41120   0.36411   0.71065   0.00000  Uiso   1.00
H350   H     0.27524   0.06766   0.62901   0.00000  Uiso   1.00
H351   H     0.41305   0.42552   0.42925   0.00000  Uiso   1.00
H352   H     0.41493   0.43988   0.80838   0.00000  Uiso   1.00
H353   H     0.17075   0.38582   0.62092   0.00000  Uiso   1.00
H354   H     0.12107   0.27263   0.62411   0.00000  Uiso   1.00
H355   H     0.18642   0.44234   0.52936   0.00000  Uiso   1.00
H356   H     0.18731   0.44915   0.70916   0.00000  Uiso   1.00
H357   H     0.09352   0.13668   0.62779   0.00000  Uiso   1.00
H358   H     0.23133   0.49455   0.42804   0.00000  Uiso   1.00
H359   H     0.23321   0.50890   0.80717   0.00000  Uiso   1.00
O360   O     0.15553   0.02625   0.63050   0.00000  Uiso   1.00
O361   O     0.33633   0.49577   0.36844   0.00000  Uiso   1.00
O362   O     0.33879   0.51459   0.86585   0.00000  Uiso   1.00
N363   N     0.23929   0.09943   0.62829   0.00000  Uiso   1.00
N364   N     0.36813   0.43401   0.44153   0.00000  Uiso   1.00
N365   N     0.36989   0.44744   0.79598   0.00000  Uiso   1.00
N366   N     0.14151   0.13657   0.62764   0.00000  Uiso   1.00
N367   N     0.27035   0.47115   0.44088   0.00000  Uiso   1.00
N368   N     0.27211   0.48458   0.79533   0.00000  Uiso   1.00
C369   C     0.82367   0.16563   0.87798   0.00000  Uiso   1.00
C370   C     0.77095   0.21573   0.87640   0.00000  Uiso   1.00
C371   C     0.70593   0.20339   0.87472   0.00000  Uiso   1.00
C372   C     0.66542   0.25577   0.87347   0.00000  Uiso   1.00
C373   C     0.57995   0.32406   0.87098   0.00000  Uiso   1.00
C374   C     0.86315   0.18022   0.92788   0.00000  Uiso   1.00
C375   C     0.87567   0.13802   0.96948   0.00000  Uiso   1.00
C376   C     0.91278   0.16052   0.01156   0.00000  Uiso   1.00
C377   C     0.97050   0.17367   0.08897   0.00000  Uiso   1.00
C378   C     0.86684   0.17974   0.83020   0.00000  Uiso   1.00
C379   C     0.88248   0.13713   0.78966   0.00000  Uiso   1.00
C380   C     0.92272   0.15922   0.74949   0.00000  Uiso   1.00
C381   C     0.98616   0.17162   0.67523   0.00000  Uiso   1.00
C382   C     0.86735   0.28062   0.87875   0.00000  Uiso   1.00
C383   C     0.79468   0.27819   0.87682   0.00000  Uiso   1.00
C384   C     0.75426   0.33061   0.87557   0.00000  Uiso   1.00
C385   C     0.68919   0.31834   0.87388   0.00000  Uiso   1.00
C386   C     0.88688   0.24268   0.92830   0.00000  Uiso   1.00
C387   C     0.92399   0.26524   0.97033   0.00000  Uiso   1.00
C388   C     0.93655   0.22309   0.01198   0.00000  Uiso   1.00
C389   C     0.89057   0.24220   0.83061   0.00000  Uiso   1.00
C390   C     0.93080   0.26435   0.79051   0.00000  Uiso   1.00
C391   C     0.94648   0.22179   0.74991   0.00000  Uiso   1.00
H392   H     0.80520   0.11701   0.87766   0.00000  Uiso   1.00
H393   H     0.68759   0.15504   0.87440   0.00000  Uiso   1.00
H394   H     0.85730   0.08969   0.96914   0.00000  Uiso   1.00
H395   H     0.86411   0.08880   0.78935   0.00000  Uiso   1.00
H396   H     0.56766   0.22476   0.87099   0.00000  Uiso   1.00
H397   H     0.92552   0.08695   0.07075   0.00000  Uiso   1.00
H398   H     0.93988   0.08507   0.69162   0.00000  Uiso   1.00
H399   H     0.88582   0.32925   0.87908   0.00000  Uiso   1.00
H400   H     0.77263   0.37893   0.87589   0.00000  Uiso   1.00
H401   H     0.94234   0.31358   0.97064   0.00000  Uiso   1.00
H402   H     0.94915   0.31269   0.79084   0.00000  Uiso   1.00
H403   H     0.63668   0.40648   0.87221   0.00000  Uiso   1.00
H404   H     0.99455   0.26867   0.07196   0.00000  Uiso   1.00
H405   H     0.00890   0.26679   0.69283   0.00000  Uiso   1.00
O406   O     0.52625   0.34447   0.86950   0.00000  Uiso   1.00
O407   O     0.99577   0.16367   0.13156   0.00000  Uiso   1.00
O408   O     0.01459   0.16121   0.63415   0.00000  Uiso   1.00
N409   N     0.59943   0.26071   0.87171   0.00000  Uiso   1.00
N410   N     0.93401   0.13187   0.05847   0.00000  Uiso   1.00
N411   N     0.94744   0.13011   0.70402   0.00000  Uiso   1.00
N412   N     0.63657   0.35849   0.87236   0.00000  Uiso   1.00
N413   N     0.97115   0.22965   0.05912   0.00000  Uiso   1.00
N414   N     0.98458   0.22789   0.70467   0.00000  Uiso   1.00
C415   C     0.32367   0.66563   0.37798   0.00000  Uiso   1.00
C416   C     0.27095   0.71573   0.37640   0.00000  Uiso   1.00
C417   C     0.20593   0.70339   0.37472   0.00000  Uiso   1.00
C418   C     0.16542   0.75577   0.37347   0.00000  Uiso   1.00
C419   C     0.07995   0.82406   0.37098   0.00000  Uiso   1.00
C420   C     0.36315   0.68022   0.42788   0.00000  Uiso   1.00
C421   C     0.37567   0.63802   0.46948   0.00000  Uiso   1.00
C422   C     0.41278   0.66052   0.51156   0.00000  Uiso   1.00
C423   C     0.47050   0.67367   0.58897   0.00000  Uiso   1.00
C424   C     0.36684   0.67974   0.33020   0.00000  Uiso   1.00
C425   C     0.38248   0.63713   0.28966   0.00000  Uiso   1.00
C426   C     0.42272   0.65922   0.24949   0.00000  Uiso   1.00
C427   C     0.48616   0.67162   0.17523   0.00000  Uiso   1.00
C428   C     0.36735   0.78062   0.37875   0.00000  Uiso   1.00
C429   C     0.29468   0.77819   0.37682   0.00000  Uiso   1.00
C430   C     0.25426   0.83061   0.37557   0.00000  Uiso   1.00
C431   C     0.18919   0.81834   0.37388   0.00000  Uiso   1.00
C432   C     0.38688   0.74268   0.42830   0.00000  Uiso   1.00
C433   C     0.42399   0.76524   0.47033   0.00000  Uiso   1.00
C434   C     0.43655   0.72309   0.51198   0.00000  Uiso   1.00
C435   C     0.39057   0.74220   0.33061   0.00000  Uiso   1.00
C436   C     0.43080   0.76435   0.29051   0.00000  Uiso   1.00
C437   C     0.44648   0.72179   0.24991   0.00000  Uiso   1.00
H438   H     0.30520   0.61701   0.37766   0.00000  Uiso   1.00
H439   H     0.18759   0.65504   0.37440   0.00000  Uiso   1.00
H440   H     0.35730   0.58969   0.46914   0.00000  Uiso   1.00
H441   H     0.36411   0.58880   0.28935   0.00000  Uiso   1.00
H442   H     0.06766   0.72476   0.37099   0.00000  Uiso   1.00
H443   H     0.42552   0.58695   0.57075   0.00000  Uiso   1.00
H444   H     0.43988   0.58507   0.19162   0.00000  Uiso   1.00
H445   H     0.38582   0.82925   0.37908   0.00000  Uiso   1.00
H446   H     0.27263   0.87893   0.37589   0.00000  Uiso   1.00
H447   H     0.44234   0.81358   0.47064   0.00000  Uiso   1.00
H448   H     0.44915   0.81269   0.29084   0.00000  Uiso   1.00
H449   H     0.13668   0.90648   0.37221   0.00000  Uiso   1.00
H450   H     0.49455   0.76867   0.57196   0.00000  Uiso   1.00
H451   H     0.50890   0.76679   0.19283   0.00000  Uiso   1.00
O452   O     0.02625   0.84447   0.36950   0.00000  Uiso   1.00
O453   O     0.49577   0.66367   0.63156   0.00000  Uiso   1.00
O454   O     0.51459   0.66121   0.13415   0.00000  Uiso   1.00
N455   N     0.09943   0.76071   0.37171   0.00000  Uiso   1.00
N456   N     0.43401   0.63187   0.55847   0.00000  Uiso   1.00
N457   N     0.44744   0.63011   0.20402   0.00000  Uiso   1.00
N458   N     0.13657   0.85849   0.37236   0.00000  Uiso   1.00
N459   N     0.47115   0.72965   0.55912   0.00000  Uiso   1.00
N460   N     0.48458   0.72789   0.20467   0.00000  Uiso   1.00
C461   C     0.67633   0.33437   0.37798   0.00000  Uiso   1.00
C462   C     0.72905   0.28427   0.37640   0.00000  Uiso   1.00
C463   C     0.79407   0.29661   0.37472   0.00000  Uiso   1.00
C464   C     0.83458   0.24423   0.37347   0.00000  Uiso   1.00
C465   C     0.92005   0.17594   0.37098   0.00000  Uiso   1.00
C466   C     0.63685   0.31978   0.42788   0.00000  Uiso   1.00
C467   C     0.62433   0.36198   0.46948   0.00000  Uiso   1.00
C468   C     0.58722   0.33948   0.51156   0.00000  Uiso   1.00
C469   C     0.52950   0.32633   0.58897   0.00000  Uiso   1.00
C470   C     0.63316   0.32026   0.33020   0.00000  Uiso   1.00
C471   C     0.61752   0.36287   0.28966   0.00000  Uiso   1.00
C472   C     0.57728   0.34078   0.24949   0.00000  Uiso   1.00
C473   C     0.51384   0.32838   0.17523   0.00000  Uiso   1.00
C474   C     0.63265   0.21938   0.37875   0.00000  Uiso   1.00
C475   C     0.70532   0.22181   0.37682   0.00000  Uiso   1.00
C476   C     0.74574   0.16939   0.37557   0.00000  Uiso   1.00
C477   C     0.81081   0.18166   0.37388   0.00000  Uiso   1.00
C478   C     0.61312   0.25732   0.42830   0.00000  Uiso   1.00
C479   C     0.57601   0.23476   0.47033   0.00000  Uiso   1.00
C480   C     0.56345   0.27691   0.51198   0.00000  Uiso   1.00
C481   C     0.60943   0.25780   0.33061   0.00000  Uiso   1.00
C482   C     0.56920   0.23565   0.29051   0.00000  Uiso   1.00
C483   C     0.55352   0.27821   0.24991   0.00000  Uiso   1.00
H484   H     0.69480   0.38299   0.37766   0.00000  Uiso   1.00
H485   H     0.81241   0.34496   0.37440   0.00000  Uiso   1.00
H486   H     0.64270   0.41031   0.46914   0.00000  Uiso   1.00
H487   H     0.63589   0.41120   0.28935   0.00000  Uiso   1.00
H488   H     0.93234   0.27524   0.37099   0.00000  Uiso   1.00
H489   H     0.57448   0.41305   0.57075   0.00000  Uiso   1.00
H490   H     0.56012   0.41493   0.19162   0.00000  Uiso   1.00
H491   H     0.61418   0.17075   0.37908   0.00000  Uiso   1.00
H492   H     0.72737   0.12107   0.37589   0.00000  Uiso   1.00
H493   H     0.55766   0.18642   0.47064   0.00000  Uiso   1.00
H494   H     0.55085   0.18731   0.29084   0.00000  Uiso   1.00
H495   H     0.86332   0.09352   0.37221   0.00000  Uiso   1.00
H496   H     0.50545   0.23133   0.57196   0.00000  Uiso   1.00
H497   H     0.49110   0.23321   0.19283   0.00000  Uiso   1.00
O498   O     0.97375   0.15553   0.36950   0.00000  Uiso   1.00
O499   O     0.50423   0.33633   0.63156   0.00000  Uiso   1.00
O500   O     0.48541   0.33879   0.13415   0.00000  Uiso   1.00
N501   N     0.90057   0.23929   0.37171   0.00000  Uiso   1.00
N502   N     0.56599   0.36813   0.55847   0.00000  Uiso   1.00
N503   N     0.55256   0.36989   0.20402   0.00000  Uiso   1.00
N504   N     0.86343   0.14151   0.37236   0.00000  Uiso   1.00
N505   N     0.52885   0.27035   0.55912   0.00000  Uiso   1.00
N506   N     0.51542   0.27211   0.20467   0.00000  Uiso   1.00
C507   C     0.17633   0.83437   0.87798   0.00000  Uiso   1.00
C508   C     0.22905   0.78427   0.87640   0.00000  Uiso   1.00
C509   C     0.29407   0.79661   0.87472   0.00000  Uiso   1.00
C510   C     0.33458   0.74423   0.87347   0.00000  Uiso   1.00
C511   C     0.42005   0.67594   0.87098   0.00000  Uiso   1.00
C512   C     0.13685   0.81978   0.92788   0.00000  Uiso   1.00
C513   C     0.12433   0.86198   0.96948   0.00000  Uiso   1.00
C514   C     0.08722   0.83948   0.01156   0.00000  Uiso   1.00
C515   C     0.02950   0.82633   0.08897   0.00000  Uiso   1.00
C516   C     0.13316   0.82026   0.83020   0.00000  Uiso   1.00
C517   C     0.11752   0.86287   0.78966   0.00000  Uiso   1.00
C518   C     0.07728   0.84078   0.74949   0.00000  Uiso   1.00
C519   C     0.01384   0.82838   0.67523   0.00000  Uiso   1.00
C520   C     0.13265   0.71938   0.87875   0.00000  Uiso   1.00
C521   C     0.20532   0.72181   0.87682   0.00000  Uiso   1.00
C522   C     0.24574   0.66939   0.87557   0.00000  Uiso   1.00
C523   C     0.31081   0.68166   0.87388   0.00000  Uiso   1.00
C524   C     0.11312   0.75732   0.92830   0.00000  Uiso   1.00
C525   C     0.07601   0.73476   0.97033   0.00000  Uiso   1.00
C526   C     0.06345   0.77691   0.01198   0.00000  Uiso   1.00
C527   C     0.10943   0.75780   0.83061   0.00000  Uiso   1.00
C528   C     0.06920   0.73565   0.79051   0.00000  Uiso   1.00
C529   C     0.05352   0.77821   0.74991   0.00000  Uiso   1.00
H530   H     0.19480   0.88299   0.87766   0.00000  Uiso   1.00
H531   H     0.31241   0.84496   0.87440   0.00000  Uiso   1.00
H532   H     0.14270   0.91031   0.96914   0.00000  Uiso   1.00
H533   H     0.13589   0.91120   0.78935   0.00000  Uiso   1.00
H534   H     0.43234   0.77524   0.87099   0.00000  Uiso   1.00
H535   H     0.07448   0.91305   0.07075   0.00000  Uiso   1.00
H536   H     0.06012   0.91493   0.69162   0.00000  Uiso   1.00
H537   H     0.11418   0.67075   0.87908   0.00000  Uiso   1.00
H538   H     0.22737   0.62107   0.87589   0.00000  Uiso   1.00
H539   H     0.05766   0.68642   0.97064   0.00000  Uiso   1.00
H540   H     0.05085   0.68731   0.79084   0.00000  Uiso   1.00
H541   H     0.36332   0.59352   0.87221   0.00000  Uiso   1.00
H542   H     0.00545   0.73133   0.07196   0.00000  Uiso   1.00
H543   H     0.99110   0.73321   0.69283   0.00000  Uiso   1.00
O544   O     0.47375   0.65553   0.86950   0.00000  Uiso   1.00
O545   O     0.00423   0.83633   0.13156   0.00000  Uiso   1.00
O546   O     0.98541   0.83879   0.63415   0.00000  Uiso   1.00
N547   N     0.40057   0.73929   0.87171   0.00000  Uiso   1.00
N548   N     0.06599   0.86813   0.05847   0.00000  Uiso   1.00
N549   N     0.05256   0.86989   0.70402   0.00000  Uiso   1.00
N550   N     0.36343   0.64151   0.87236   0.00000  Uiso   1.00
N551   N     0.02885   0.77035   0.05912   0.00000  Uiso   1.00
N552   N     0.01542   0.77211   0.70467   0.00000  Uiso   1.00
C553   C     0.33437   0.82367   0.62798   0.00000  Uiso   1.00
C554   C     0.28427   0.77095   0.62640   0.00000  Uiso   1.00
C555   C     0.29661   0.70593   0.62472   0.00000  Uiso   1.00
C556   C     0.24423   0.66542   0.62347   0.00000  Uiso   1.00
C557   C     0.17594   0.57995   0.62098   0.00000  Uiso   1.00
C558   C     0.31978   0.86315   0.67788   0.00000  Uiso   1.00
C559   C     0.36198   0.87567   0.71948   0.00000  Uiso   1.00
C560   C     0.33948   0.91278   0.76156   0.00000  Uiso   1.00
C561   C     0.32633   0.97050   0.83897   0.00000  Uiso   1.00
C562   C     0.32026   0.86684   0.58020   0.00000  Uiso   1.00
C563   C     0.36287   0.88248   0.53966   0.00000  Uiso   1.00
C564   C     0.34078   0.92272   0.49949   0.00000  Uiso   1.00
C565   C     0.32838   0.98616   0.42523   0.00000  Uiso   1.00
C566   C     0.21938   0.86735   0.62875   0.00000  Uiso   1.00
C567   C     0.22181   0.79468   0.62682   0.00000  Uiso   1.00
C568   C     0.16939   0.75426   0.62557   0.00000  Uiso   1.00
C569   C     0.18166   0.68919   0.62388   0.00000  Uiso   1.00
C570   C     0.25732   0.88688   0.67830   0.00000  Uiso   1.00
C571   C     0.23476   0.92399   0.72033   0.00000  Uiso   1.00
C572   C     0.27691   0.93655   0.76198   0.00000  Uiso   1.00
C573   C     0.25780   0.89057   0.58061   0.00000  Uiso   1.00
C574   C     0.23565   0.93080   0.54051   0.00000  Uiso   1.00
C575   C     0.27821   0.94648   0.49991   0.00000  Uiso   1.00
H576   H     0.38299   0.80520   0.62766   0.00000  Uiso   1.00
H577   H     0.34496   0.68759   0.62440   0.00000  Uiso   1.00
H578   H     0.41031   0.85730   0.71914   0.00000  Uiso   1.00
H579   H     0.41120   0.86411   0.53935   0.00000  Uiso   1.00
H580   H     0.27524   0.56766   0.62099   0.00000  Uiso   1.00
H581   H     0.41305   0.92552   0.82075   0.00000  Uiso   1.00
H582   H     0.41493   0.93988   0.44162   0.00000  Uiso   1.00
H583   H     0.17075   0.88582   0.62908   0.00000  Uiso   1.00
H584   H     0.12107   0.77263   0.62589   0.00000  Uiso   1.00
H585   H     0.18642   0.94234   0.72064   0.00000  Uiso   1.00
H586   H     0.18731   0.94915   0.54084   0.00000  Uiso   1.00
H587   H     0.09352   0.63668   0.62221   0.00000  Uiso   1.00
H588   H     0.23133   0.99455   0.82196   0.00000  Uiso   1.00
H589   H     0.23321   0.00890   0.44283   0.00000  Uiso   1.00
O590   O     0.15553   0.52625   0.61950   0.00000  Uiso   1.00
O591   O     0.33633   0.99577   0.88156   0.00000  Uiso   1.00
O592   O     0.33879   0.01459   0.38415   0.00000  Uiso   1.00
N593   N     0.23929   0.59943   0.62171   0.00000  Uiso   1.00
N594   N     0.36813   0.93401   0.80847   0.00000  Uiso   1.00
N595   N     0.36989   0.94744   0.45402   0.00000  Uiso   1.00
N596   N     0.14151   0.63657   0.62236   0.00000  Uiso   1.00
N597   N     0.27035   0.97115   0.80912   0.00000  Uiso   1.00
N598   N     0.27211   0.98458   0.45467   0.00000  Uiso   1.00
C599   C     0.83437   0.32367   0.12798   0.00000  Uiso   1.00
C600   C     0.78427   0.27095   0.12640   0.00000  Uiso   1.00
C601   C     0.79661   0.20593   0.12472   0.00000  Uiso   1.00
C602   C     0.74423   0.16542   0.12347   0.00000  Uiso   1.00
C603   C     0.67594   0.07995   0.12098   0.00000  Uiso   1.00
C604   C     0.81978   0.36315   0.17788   0.00000  Uiso   1.00
C605   C     0.86198   0.37567   0.21948   0.00000  Uiso   1.00
C606   C     0.83948   0.41278   0.26156   0.00000  Uiso   1.00
C607   C     0.82633   0.47050   0.33897   0.00000  Uiso   1.00
C608   C     0.82026   0.36684   0.08020   0.00000  Uiso   1.00
C609   C     0.86287   0.38248   0.03966   0.00000  Uiso   1.00
C610   C     0.84078   0.42272   0.99949   0.00000  Uiso   1.00
C611   C     0.82838   0.48616   0.92523   0.00000  Uiso   1.00
C612   C     0.71938   0.36735   0.12875   0.00000  Uiso   1.00
C613   C     0.72181   0.29468   0.12682   0.00000  Uiso   1.00
C614   C     0.66939   0.25426   0.12557   0.00000  Uiso   1.00
C615   C     0.68166   0.18919   0.12388   0.00000  Uiso   1.00
C616   C     0.75732   0.38688   0.17830   0.00000  Uiso   1.00
C617   C     0.73476   0.42399   0.22033   0.00000  Uiso   1.00
C618   C     0.77691   0.43655   0.26198   0.00000  Uiso   1.00
C619   C     0.75780   0.39057   0.08061   0.00000  Uiso   1.00
C620   C     0.73565   0.43080   0.04051   0.00000  Uiso   1.00
C621   C     0.77821   0.44648   0.99991   0.00000  Uiso   1.00
H622   H     0.88299   0.30520   0.12766   0.00000  Uiso   1.00
H623   H     0.84496   0.18759   0.12440   0.00000  Uiso   1.00
H624   H     0.91031   0.35730   0.21914   0.00000  Uiso   1.00
H625   H     0.91120   0.36411   0.03935   0.00000  Uiso   1.00
H626   H     0.77524   0.06766   0.12099   0.00000  Uiso   1.00
H627   H     0.91305   0.42552   0.32075   0.00000  Uiso   1.00
H628   H     0.91493   0.43988   0.94162   0.00000  Uiso   1.00
H629   H     0.67075   0.38582   0.12908   0.00000  Uiso   1.00
H630   H     0.62107   0.27263   0.12589   0.00000  Uiso   1.00
H631   H     0.68642   0.44234   0.22064   0.00000  Uiso   1.00
H632   H     0.68731   0.44915   0.04084   0.00000  Uiso   1.00
H633   H     0.59352   0.13668   0.12221   0.00000  Uiso   1.00
H634   H     0.73133   0.49455   0.32196   0.00000  Uiso   1.00
H635   H     0.73321   0.50890   0.94283   0.00000  Uiso   1.00
O636   O     0.65553   0.02625   0.11950   0.00000  Uiso   1.00
O637   O     0.83633   0.49577   0.38156   0.00000  Uiso   1.00
O638   O     0.83879   0.51459   0.88415   0.00000  Uiso   1.00
N639   N     0.73929   0.09943   0.12171   0.00000  Uiso   1.00
N640   N     0.86813   0.43401   0.30847   0.00000  Uiso   1.00
N641   N     0.86989   0.44744   0.95402   0.00000  Uiso   1.00
N642   N     0.64151   0.13657   0.12236   0.00000  Uiso   1.00
N643   N     0.77035   0.47115   0.30912   0.00000  Uiso   1.00
N644   N     0.77211   0.48458   0.95467   0.00000  Uiso   1.00
C645   C     0.16563   0.67633   0.12798   0.00000  Uiso   1.00
C646   C     0.21573   0.72905   0.12640   0.00000  Uiso   1.00
C647   C     0.20339   0.79407   0.12472   0.00000  Uiso   1.00
C648   C     0.25577   0.83458   0.12347   0.00000  Uiso   1.00
C649   C     0.32406   0.92005   0.12098   0.00000  Uiso   1.00
C650   C     0.18022   0.63685   0.17788   0.00000  Uiso   1.00
C651   C     0.13802   0.62433   0.21948   0.00000  Uiso   1.00
C652   C     0.16052   0.58722   0.26156   0.00000  Uiso   1.00
C653   C     0.17367   0.52950   0.33897   0.00000  Uiso   1.00
C654   C     0.17974   0.63316   0.08020   0.00000  Uiso   1.00
C655   C     0.13713   0.61752   0.03966   0.00000  Uiso   1.00
C656   C     0.15922   0.57728   0.99949   0.00000  Uiso   1.00
C657   C     0.17162   0.51384   0.92523   0.00000  Uiso   1.00
C658   C     0.28062   0.63265   0.12875   0.00000  Uiso   1.00
C659   C     0.27819   0.70532   0.12682   0.00000  Uiso   1.00
C660   C     0.33061   0.74574   0.12557   0.00000  Uiso   1.00
C661   C     0.31834   0.81081   0.12388   0.00000  Uiso   1.00
C662   C     0.24268   0.61312   0.17830   0.00000  Uiso   1.00
C663   C     0.26524   0.57601   0.22033   0.00000  Uiso   1.00
C664   C     0.22309   0.56345   0.26198   0.00000  Uiso   1.00
C665   C     0.24220   0.60943   0.08061   0.00000  Uiso   1.00
C666   C     0.26435   0.56920   0.04051   0.00000  Uiso   1.00
C667   C     0.22179   0.55352   0.99991   0.00000  Uiso   1.00
H668   H     0.11701   0.69480   0.12766   0.00000  Uiso   1.00
H669   H     0.15504   0.81241   0.12440   0.00000  Uiso   1.00
H670   H     0.08969   0.64270   0.21914   0.00000  Uiso   1.00
H671   H     0.08880   0.63589   0.03935   0.00000  Uiso   1.00
H672   H     0.22476   0.93234   0.12099   0.00000  Uiso   1.00
H673   H     0.08695   0.57448   0.32075   0.00000  Uiso   1.00
H674   H     0.08507   0.56012   0.94162   0.00000  Uiso   1.00
H675   H     0.32925   0.61418   0.12908   0.00000  Uiso   1.00
H676   H     0.37893   0.72737   0.12589   0.00000  Uiso   1.00
H677   H     0.31358   0.55766   0.22064   0.00000  Uiso   1.00
H678   H     0.31269   0.55085   0.04084   0.00000  Uiso   1.00
H679   H     0.40648   0.86332   0.12221   0.00000  Uiso   1.00
H680   H     0.26867   0.50545   0.32196   0.00000  Uiso   1.00
H681   H     0.26679   0.49110   0.94283   0.00000  Uiso   1.00
O682   O     0.34447   0.97375   0.11950   0.00000  Uiso   1.00
O683   O     0.16367   0.50423   0.38156   0.00000  Uiso   1.00
O684   O     0.16121   0.48541   0.88415   0.00000  Uiso   1.00
N685   N     0.26071   0.90057   0.12171   0.00000  Uiso   1.00
N686   N     0.13187   0.56599   0.30847   0.00000  Uiso   1.00
N687   N     0.13011   0.55256   0.95402   0.00000  Uiso   1.00
N688   N     0.35849   0.86343   0.12236   0.00000  Uiso   1.00
N689   N     0.22965   0.52885   0.30912   0.00000  Uiso   1.00
N690   N     0.22789   0.51542   0.95467   0.00000  Uiso   1.00
C691   C     0.66563   0.17633   0.62798   0.00000  Uiso   1.00
C692   C     0.71573   0.22905   0.62640   0.00000  Uiso   1.00
C693   C     0.70339   0.29407   0.62472   0.00000  Uiso   1.00
C694   C     0.75577   0.33458   0.62347   0.00000  Uiso   1.00
C695   C     0.82406   0.42005   0.62098   0.00000  Uiso   1.00
C696   C     0.68022   0.13685   0.67788   0.00000  Uiso   1.00
C697   C     0.63802   0.12433   0.71948   0.00000  Uiso   1.00
C698   C     0.66052   0.08722   0.76156   0.00000  Uiso   1.00
C699   C     0.67367   0.02950   0.83897   0.00000  Uiso   1.00
C700   C     0.67974   0.13316   0.58020   0.00000  Uiso   1.00
C701   C     0.63713   0.11752   0.53966   0.00000  Uiso   1.00
C702   C     0.65922   0.07728   0.49949   0.00000  Uiso   1.00
C703   C     0.67162   0.01384   0.42523   0.00000  Uiso   1.00
C704   C     0.78062   0.13265   0.62875   0.00000  Uiso   1.00
C705   C     0.77819   0.20532   0.62682   0.00000  Uiso   1.00
C706   C     0.83061   0.24574   0.62557   0.00000  Uiso   1.00
C707   C     0.81834   0.31081   0.62388   0.00000  Uiso   1.00
C708   C     0.74268   0.11312   0.67830   0.00000  Uiso   1.00
C709   C     0.76524   0.07601   0.72033   0.00000  Uiso   1.00
C710   C     0.72309   0.06345   0.76198   0.00000  Uiso   1.00
C711   C     0.74220   0.10943   0.58061   0.00000  Uiso   1.00
C712   C     0.76435   0.06920   0.54051   0.00000  Uiso   1.00
C713   C     0.72179   0.05352   0.49991   0.00000  Uiso   1.00
H714   H     0.61701   0.19480   0.62766   0.00000  Uiso   1.00
H715   H     0.65504   0.31241   0.62440   0.00000  Uiso   1.00
H716   H     0.58969   0.14270   0.71914   0.00000  Uiso   1.00
H717   H     0.58880   0.13589   0.53935   0.00000  Uiso   1.00
H718   H     0.72476   0.43234   0.62099   0.00000  Uiso   1.00
H719   H     0.58695   0.07448   0.82075   0.00000  Uiso   1.00
H720   H     0.58507   0.06012   0.44162   0.00000  Uiso   1.00
H721   H     0.82925   0.11418   0.62908   0.00000  Uiso   1.00
H722   H     0.87893   0.22737   0.62589   0.00000  Uiso   1.00
H723   H     0.81358   0.05766   0.72064   0.00000  Uiso   1.00
H724   H     0.81269   0.05085   0.54084   0.00000  Uiso   1.00
H725   H     0.90648   0.36332   0.62221   0.00000  Uiso   1.00
H726   H     0.76867   0.00545   0.82196   0.00000  Uiso   1.00
H727   H     0.76679   0.99110   0.44283   0.00000  Uiso   1.00
O728   O     0.84447   0.47375   0.61950   0.00000  Uiso   1.00
O729   O     0.66367   0.00423   0.88156   0.00000  Uiso   1.00
O730   O     0.66121   0.98541   0.38415   0.00000  Uiso   1.00
N731   N     0.76071   0.40057   0.62171   0.00000  Uiso   1.00
N732   N     0.63187   0.06599   0.80847   0.00000  Uiso   1.00
N733   N     0.63011   0.05256   0.45402   0.00000  Uiso   1.00
N734   N     0.85849   0.36343   0.62236   0.00000  Uiso   1.00
N735   N     0.72965   0.02885   0.80912   0.00000  Uiso   1.00
N736   N     0.72789   0.01542   0.45467   0.00000  Uiso   1.00
