data_job_05407
_audit_creation_date              2018-12-19
_audit_creation_method            'Materials Studio'
_symmetry_space_group_name_H-M    'P1'
_symmetry_Int_Tables_number       1
_symmetry_cell_setting            triclinic
loop_
_symmetry_equiv_pos_as_xyz
  x,y,z
_cell_length_a                    20.3849
_cell_length_b                    20.3849
_cell_length_c                    21.5343
_cell_angle_alpha                 90.0000
_cell_angle_beta                  90.0000
_cell_angle_gamma                 90.0000
loop_
_atom_site_label
_atom_site_type_symbol
_atom_site_fract_x
_atom_site_fract_y
_atom_site_fract_z
_atom_site_U_iso_or_equiv
_atom_site_adp_type
_atom_site_occupancy
C1     C     0.05351   0.28718   0.44758   0.00000  Uiso   1.00
C2     C     0.98933   0.27738   0.41240   0.00000  Uiso   1.00
C3     C     0.96477   0.21778   0.39168   0.00000  Uiso   1.00
C4     C     0.90523   0.21916   0.36039   0.00000  Uiso   1.00
C5     C     0.81072   0.19498   0.30729   0.00000  Uiso   1.00
C6     C     0.09326   0.33633   0.40971   0.00000  Uiso   1.00
C7     C     0.15607   0.32630   0.38673   0.00000  Uiso   1.00
C8     C     0.18402   0.37731   0.35318   0.00000  Uiso   1.00
C9     C     0.25086   0.44468   0.29594   0.00000  Uiso   1.00
C10    C     0.03543   0.32213   0.50780   0.00000  Uiso   1.00
C11    C     0.04964   0.30018   0.56730   0.00000  Uiso   1.00
C12    C     0.02892   0.33924   0.61634   0.00000  Uiso   1.00
C13    C     0.00599   0.38457   0.71140   0.00000  Uiso   1.00
C14    C     0.99147   0.39561   0.42887   0.00000  Uiso   1.00
C15    C     0.95563   0.33627   0.40224   0.00000  Uiso   1.00
C16    C     0.89612   0.33774   0.37098   0.00000  Uiso   1.00
C17    C     0.87147   0.27816   0.35021   0.00000  Uiso   1.00
C18    C     0.05956   0.39522   0.39954   0.00000  Uiso   1.00
C19    C     0.08742   0.44626   0.36603   0.00000  Uiso   1.00
C20    C     0.15026   0.43631   0.34300   0.00000  Uiso   1.00
C21    C     0.00173   0.38103   0.49764   0.00000  Uiso   1.00
C22    C     0.98099   0.42014   0.54660   0.00000  Uiso   1.00
C23    C     0.99516   0.39824   0.60616   0.00000  Uiso   1.00
H24    H     0.07976   0.24133   0.45549   0.00000  Uiso   1.00
H25    H     0.99087   0.17221   0.39955   0.00000  Uiso   1.00
H26    H     0.18214   0.28072   0.39461   0.00000  Uiso   1.00
H27    H     0.07573   0.25460   0.57515   0.00000  Uiso   1.00
H28    H     0.87747   0.12156   0.33303   0.00000  Uiso   1.00
H29    H     0.28078   0.35037   0.32262   0.00000  Uiso   1.00
H30    H     0.05639   0.29528   0.70333   0.00000  Uiso   1.00
H31    H     0.96523   0.44146   0.42095   0.00000  Uiso   1.00
H32    H     0.87005   0.38332   0.36312   0.00000  Uiso   1.00
H33    H     0.06133   0.49183   0.35817   0.00000  Uiso   1.00
H34    H     0.95491   0.46571   0.53871   0.00000  Uiso   1.00
H35    H     0.77941   0.29291   0.30345   0.00000  Uiso   1.00
H36    H     0.18273   0.52171   0.29305   0.00000  Uiso   1.00
H37    H     0.95834   0.46663   0.67376   0.00000  Uiso   1.00
O38    O     0.76790   0.16538   0.28080   0.00000  Uiso   1.00
O39    O     0.29705   0.46557   0.26716   0.00000  Uiso   1.00
O40    O     0.00265   0.39329   0.76664   0.00000  Uiso   1.00
N41    N     0.86744   0.16986   0.33402   0.00000  Uiso   1.00
N42    N     0.24452   0.38378   0.32428   0.00000  Uiso   1.00
N43    N     0.03475   0.33229   0.68021   0.00000  Uiso   1.00
N44    N     0.81468   0.26206   0.31810   0.00000  Uiso   1.00
N45    N     0.19175   0.47598   0.30837   0.00000  Uiso   1.00
N46    N     0.98198   0.42449   0.66430   0.00000  Uiso   1.00
C47    C     0.55351   0.78718   0.94758   0.00000  Uiso   1.00
C48    C     0.48933   0.77738   0.91240   0.00000  Uiso   1.00
C49    C     0.46477   0.71778   0.89168   0.00000  Uiso   1.00
C50    C     0.40523   0.71916   0.86039   0.00000  Uiso   1.00
C51    C     0.31072   0.69498   0.80729   0.00000  Uiso   1.00
C52    C     0.59326   0.83633   0.90971   0.00000  Uiso   1.00
C53    C     0.65607   0.82630   0.88673   0.00000  Uiso   1.00
C54    C     0.68402   0.87731   0.85318   0.00000  Uiso   1.00
C55    C     0.75086   0.94468   0.79594   0.00000  Uiso   1.00
C56    C     0.53543   0.82213   0.00780   0.00000  Uiso   1.00
C57    C     0.54964   0.80018   0.06730   0.00000  Uiso   1.00
C58    C     0.52892   0.83924   0.11634   0.00000  Uiso   1.00
C59    C     0.50599   0.88457   0.21140   0.00000  Uiso   1.00
C60    C     0.49147   0.89561   0.92887   0.00000  Uiso   1.00
C61    C     0.45563   0.83627   0.90224   0.00000  Uiso   1.00
C62    C     0.39612   0.83774   0.87098   0.00000  Uiso   1.00
C63    C     0.37147   0.77816   0.85021   0.00000  Uiso   1.00
C64    C     0.55956   0.89522   0.89954   0.00000  Uiso   1.00
C65    C     0.58742   0.94626   0.86603   0.00000  Uiso   1.00
C66    C     0.65026   0.93631   0.84300   0.00000  Uiso   1.00
C67    C     0.50173   0.88103   0.99764   0.00000  Uiso   1.00
C68    C     0.48099   0.92014   0.04660   0.00000  Uiso   1.00
C69    C     0.49516   0.89824   0.10616   0.00000  Uiso   1.00
H70    H     0.57976   0.74133   0.95549   0.00000  Uiso   1.00
H71    H     0.49087   0.67221   0.89955   0.00000  Uiso   1.00
H72    H     0.68214   0.78072   0.89461   0.00000  Uiso   1.00
H73    H     0.57573   0.75460   0.07515   0.00000  Uiso   1.00
H74    H     0.37747   0.62156   0.83303   0.00000  Uiso   1.00
H75    H     0.78078   0.85037   0.82262   0.00000  Uiso   1.00
H76    H     0.55639   0.79528   0.20333   0.00000  Uiso   1.00
H77    H     0.46523   0.94146   0.92095   0.00000  Uiso   1.00
H78    H     0.37005   0.88332   0.86312   0.00000  Uiso   1.00
H79    H     0.56133   0.99183   0.85817   0.00000  Uiso   1.00
H80    H     0.45491   0.96571   0.03871   0.00000  Uiso   1.00
H81    H     0.27941   0.79291   0.80345   0.00000  Uiso   1.00
H82    H     0.68273   0.02171   0.79305   0.00000  Uiso   1.00
H83    H     0.45834   0.96663   0.17376   0.00000  Uiso   1.00
O84    O     0.26790   0.66538   0.78080   0.00000  Uiso   1.00
O85    O     0.79705   0.96557   0.76716   0.00000  Uiso   1.00
O86    O     0.50265   0.89329   0.26664   0.00000  Uiso   1.00
N87    N     0.36744   0.66986   0.83402   0.00000  Uiso   1.00
N88    N     0.74452   0.88378   0.82428   0.00000  Uiso   1.00
N89    N     0.53475   0.83229   0.18021   0.00000  Uiso   1.00
N90    N     0.31468   0.76206   0.81810   0.00000  Uiso   1.00
N91    N     0.69175   0.97598   0.80837   0.00000  Uiso   1.00
N92    N     0.48198   0.92449   0.16430   0.00000  Uiso   1.00
C93    C     0.44649   0.21282   0.94758   0.00000  Uiso   1.00
C94    C     0.51067   0.22262   0.91240   0.00000  Uiso   1.00
C95    C     0.53523   0.28222   0.89168   0.00000  Uiso   1.00
C96    C     0.59477   0.28084   0.86039   0.00000  Uiso   1.00
C97    C     0.68928   0.30502   0.80729   0.00000  Uiso   1.00
C98    C     0.40674   0.16367   0.90971   0.00000  Uiso   1.00
C99    C     0.34393   0.17370   0.88673   0.00000  Uiso   1.00
C100   C     0.31598   0.12269   0.85318   0.00000  Uiso   1.00
C101   C     0.24914   0.05532   0.79594   0.00000  Uiso   1.00
C102   C     0.46457   0.17787   0.00780   0.00000  Uiso   1.00
C103   C     0.45036   0.19982   0.06730   0.00000  Uiso   1.00
C104   C     0.47108   0.16076   0.11634   0.00000  Uiso   1.00
C105   C     0.49401   0.11543   0.21140   0.00000  Uiso   1.00
C106   C     0.50853   0.10439   0.92887   0.00000  Uiso   1.00
C107   C     0.54437   0.16373   0.90224   0.00000  Uiso   1.00
C108   C     0.60388   0.16226   0.87098   0.00000  Uiso   1.00
C109   C     0.62853   0.22184   0.85021   0.00000  Uiso   1.00
C110   C     0.44044   0.10478   0.89954   0.00000  Uiso   1.00
C111   C     0.41258   0.05374   0.86603   0.00000  Uiso   1.00
C112   C     0.34974   0.06369   0.84300   0.00000  Uiso   1.00
C113   C     0.49827   0.11897   0.99764   0.00000  Uiso   1.00
C114   C     0.51901   0.07986   0.04660   0.00000  Uiso   1.00
C115   C     0.50484   0.10176   0.10616   0.00000  Uiso   1.00
H116   H     0.42024   0.25867   0.95549   0.00000  Uiso   1.00
H117   H     0.50913   0.32779   0.89955   0.00000  Uiso   1.00
H118   H     0.31786   0.21928   0.89461   0.00000  Uiso   1.00
H119   H     0.42427   0.24540   0.07515   0.00000  Uiso   1.00
H120   H     0.62253   0.37844   0.83303   0.00000  Uiso   1.00
H121   H     0.21922   0.14963   0.82262   0.00000  Uiso   1.00
H122   H     0.44361   0.20472   0.20333   0.00000  Uiso   1.00
H123   H     0.53477   0.05854   0.92095   0.00000  Uiso   1.00
H124   H     0.62995   0.11668   0.86312   0.00000  Uiso   1.00
H125   H     0.43867   0.00817   0.85817   0.00000  Uiso   1.00
H126   H     0.54509   0.03429   0.03871   0.00000  Uiso   1.00
H127   H     0.72059   0.20709   0.80345   0.00000  Uiso   1.00
H128   H     0.31727   0.97829   0.79305   0.00000  Uiso   1.00
H129   H     0.54166   0.03337   0.17376   0.00000  Uiso   1.00
O130   O     0.73210   0.33462   0.78080   0.00000  Uiso   1.00
O131   O     0.20295   0.03443   0.76716   0.00000  Uiso   1.00
O132   O     0.49735   0.10671   0.26664   0.00000  Uiso   1.00
N133   N     0.63256   0.33014   0.83402   0.00000  Uiso   1.00
N134   N     0.25548   0.11622   0.82428   0.00000  Uiso   1.00
N135   N     0.46525   0.16771   0.18021   0.00000  Uiso   1.00
N136   N     0.68532   0.23794   0.81810   0.00000  Uiso   1.00
N137   N     0.30825   0.02402   0.80837   0.00000  Uiso   1.00
N138   N     0.51802   0.07551   0.16430   0.00000  Uiso   1.00
C139   C     0.94649   0.71282   0.44758   0.00000  Uiso   1.00
C140   C     0.01067   0.72262   0.41240   0.00000  Uiso   1.00
C141   C     0.03523   0.78222   0.39168   0.00000  Uiso   1.00
C142   C     0.09477   0.78084   0.36039   0.00000  Uiso   1.00
C143   C     0.18928   0.80502   0.30729   0.00000  Uiso   1.00
C144   C     0.90674   0.66367   0.40971   0.00000  Uiso   1.00
C145   C     0.84393   0.67370   0.38673   0.00000  Uiso   1.00
C146   C     0.81598   0.62269   0.35318   0.00000  Uiso   1.00
C147   C     0.74914   0.55532   0.29594   0.00000  Uiso   1.00
C148   C     0.96457   0.67787   0.50780   0.00000  Uiso   1.00
C149   C     0.95036   0.69982   0.56730   0.00000  Uiso   1.00
C150   C     0.97108   0.66076   0.61634   0.00000  Uiso   1.00
C151   C     0.99401   0.61543   0.71140   0.00000  Uiso   1.00
C152   C     0.00853   0.60439   0.42887   0.00000  Uiso   1.00
C153   C     0.04437   0.66373   0.40224   0.00000  Uiso   1.00
C154   C     0.10388   0.66226   0.37098   0.00000  Uiso   1.00
C155   C     0.12853   0.72184   0.35021   0.00000  Uiso   1.00
C156   C     0.94044   0.60478   0.39954   0.00000  Uiso   1.00
C157   C     0.91258   0.55374   0.36603   0.00000  Uiso   1.00
C158   C     0.84974   0.56369   0.34300   0.00000  Uiso   1.00
C159   C     0.99827   0.61897   0.49764   0.00000  Uiso   1.00
C160   C     0.01901   0.57986   0.54660   0.00000  Uiso   1.00
C161   C     0.00484   0.60176   0.60616   0.00000  Uiso   1.00
H162   H     0.92024   0.75867   0.45549   0.00000  Uiso   1.00
H163   H     0.00913   0.82779   0.39955   0.00000  Uiso   1.00
H164   H     0.81786   0.71928   0.39461   0.00000  Uiso   1.00
H165   H     0.92427   0.74540   0.57515   0.00000  Uiso   1.00
H166   H     0.12253   0.87844   0.33303   0.00000  Uiso   1.00
H167   H     0.71922   0.64963   0.32262   0.00000  Uiso   1.00
H168   H     0.94361   0.70472   0.70333   0.00000  Uiso   1.00
H169   H     0.03477   0.55854   0.42095   0.00000  Uiso   1.00
H170   H     0.12995   0.61668   0.36312   0.00000  Uiso   1.00
H171   H     0.93867   0.50817   0.35817   0.00000  Uiso   1.00
H172   H     0.04509   0.53429   0.53871   0.00000  Uiso   1.00
H173   H     0.22059   0.70709   0.30345   0.00000  Uiso   1.00
H174   H     0.81727   0.47829   0.29305   0.00000  Uiso   1.00
H175   H     0.04166   0.53337   0.67376   0.00000  Uiso   1.00
O176   O     0.23210   0.83462   0.28080   0.00000  Uiso   1.00
O177   O     0.70295   0.53443   0.26716   0.00000  Uiso   1.00
O178   O     0.99735   0.60671   0.76664   0.00000  Uiso   1.00
N179   N     0.13256   0.83014   0.33402   0.00000  Uiso   1.00
N180   N     0.75548   0.61622   0.32428   0.00000  Uiso   1.00
N181   N     0.96525   0.66771   0.68021   0.00000  Uiso   1.00
N182   N     0.18532   0.73794   0.31810   0.00000  Uiso   1.00
N183   N     0.80825   0.52402   0.30837   0.00000  Uiso   1.00
N184   N     0.01802   0.57551   0.66430   0.00000  Uiso   1.00
C185   C     0.71282   0.55351   0.69758   0.00000  Uiso   1.00
C186   C     0.72262   0.48933   0.66240   0.00000  Uiso   1.00
C187   C     0.78222   0.46477   0.64168   0.00000  Uiso   1.00
C188   C     0.78084   0.40523   0.61039   0.00000  Uiso   1.00
C189   C     0.80502   0.31072   0.55729   0.00000  Uiso   1.00
C190   C     0.66367   0.59326   0.65971   0.00000  Uiso   1.00
C191   C     0.67370   0.65607   0.63673   0.00000  Uiso   1.00
C192   C     0.62269   0.68402   0.60318   0.00000  Uiso   1.00
C193   C     0.55532   0.75086   0.54594   0.00000  Uiso   1.00
C194   C     0.67787   0.53543   0.75780   0.00000  Uiso   1.00
C195   C     0.69982   0.54964   0.81730   0.00000  Uiso   1.00
C196   C     0.66076   0.52892   0.86634   0.00000  Uiso   1.00
C197   C     0.61543   0.50599   0.96140   0.00000  Uiso   1.00
C198   C     0.60439   0.49147   0.67887   0.00000  Uiso   1.00
C199   C     0.66373   0.45563   0.65224   0.00000  Uiso   1.00
C200   C     0.66226   0.39612   0.62098   0.00000  Uiso   1.00
C201   C     0.72184   0.37147   0.60021   0.00000  Uiso   1.00
C202   C     0.60478   0.55956   0.64954   0.00000  Uiso   1.00
C203   C     0.55374   0.58742   0.61603   0.00000  Uiso   1.00
C204   C     0.56369   0.65026   0.59300   0.00000  Uiso   1.00
C205   C     0.61897   0.50173   0.74764   0.00000  Uiso   1.00
C206   C     0.57986   0.48099   0.79660   0.00000  Uiso   1.00
C207   C     0.60176   0.49516   0.85616   0.00000  Uiso   1.00
H208   H     0.75867   0.57976   0.70549   0.00000  Uiso   1.00
H209   H     0.82779   0.49087   0.64955   0.00000  Uiso   1.00
H210   H     0.71928   0.68214   0.64461   0.00000  Uiso   1.00
H211   H     0.74540   0.57573   0.82515   0.00000  Uiso   1.00
H212   H     0.87844   0.37747   0.58303   0.00000  Uiso   1.00
H213   H     0.64963   0.78078   0.57262   0.00000  Uiso   1.00
H214   H     0.70472   0.55639   0.95333   0.00000  Uiso   1.00
H215   H     0.55854   0.46523   0.67095   0.00000  Uiso   1.00
H216   H     0.61668   0.37005   0.61312   0.00000  Uiso   1.00
H217   H     0.50817   0.56133   0.60817   0.00000  Uiso   1.00
H218   H     0.53429   0.45491   0.78871   0.00000  Uiso   1.00
H219   H     0.70709   0.27941   0.55345   0.00000  Uiso   1.00
H220   H     0.47829   0.68273   0.54305   0.00000  Uiso   1.00
H221   H     0.53337   0.45834   0.92376   0.00000  Uiso   1.00
O222   O     0.83462   0.26790   0.53080   0.00000  Uiso   1.00
O223   O     0.53443   0.79705   0.51716   0.00000  Uiso   1.00
O224   O     0.60671   0.50265   0.01664   0.00000  Uiso   1.00
N225   N     0.83014   0.36744   0.58402   0.00000  Uiso   1.00
N226   N     0.61622   0.74452   0.57428   0.00000  Uiso   1.00
N227   N     0.66771   0.53475   0.93021   0.00000  Uiso   1.00
N228   N     0.73794   0.31468   0.56810   0.00000  Uiso   1.00
N229   N     0.52402   0.69175   0.55837   0.00000  Uiso   1.00
N230   N     0.57551   0.48198   0.91430   0.00000  Uiso   1.00
C231   C     0.21282   0.05351   0.19758   0.00000  Uiso   1.00
C232   C     0.22262   0.98933   0.16240   0.00000  Uiso   1.00
C233   C     0.28222   0.96477   0.14168   0.00000  Uiso   1.00
C234   C     0.28084   0.90523   0.11039   0.00000  Uiso   1.00
C235   C     0.30502   0.81072   0.05729   0.00000  Uiso   1.00
C236   C     0.16367   0.09326   0.15971   0.00000  Uiso   1.00
C237   C     0.17370   0.15607   0.13673   0.00000  Uiso   1.00
C238   C     0.12269   0.18402   0.10318   0.00000  Uiso   1.00
C239   C     0.05532   0.25086   0.04594   0.00000  Uiso   1.00
C240   C     0.17787   0.03543   0.25780   0.00000  Uiso   1.00
C241   C     0.19982   0.04964   0.31730   0.00000  Uiso   1.00
C242   C     0.16076   0.02892   0.36634   0.00000  Uiso   1.00
C243   C     0.11543   0.00599   0.46140   0.00000  Uiso   1.00
C244   C     0.10439   0.99147   0.17887   0.00000  Uiso   1.00
C245   C     0.16373   0.95563   0.15224   0.00000  Uiso   1.00
C246   C     0.16226   0.89612   0.12098   0.00000  Uiso   1.00
C247   C     0.22184   0.87147   0.10021   0.00000  Uiso   1.00
C248   C     0.10478   0.05956   0.14954   0.00000  Uiso   1.00
C249   C     0.05374   0.08742   0.11603   0.00000  Uiso   1.00
C250   C     0.06369   0.15026   0.09300   0.00000  Uiso   1.00
C251   C     0.11897   0.00173   0.24764   0.00000  Uiso   1.00
C252   C     0.07986   0.98099   0.29660   0.00000  Uiso   1.00
C253   C     0.10176   0.99516   0.35616   0.00000  Uiso   1.00
H254   H     0.25867   0.07976   0.20549   0.00000  Uiso   1.00
H255   H     0.32779   0.99087   0.14955   0.00000  Uiso   1.00
H256   H     0.21928   0.18214   0.14461   0.00000  Uiso   1.00
H257   H     0.24540   0.07573   0.32515   0.00000  Uiso   1.00
H258   H     0.37844   0.87747   0.08303   0.00000  Uiso   1.00
H259   H     0.14963   0.28078   0.07262   0.00000  Uiso   1.00
H260   H     0.20472   0.05639   0.45333   0.00000  Uiso   1.00
H261   H     0.05854   0.96523   0.17095   0.00000  Uiso   1.00
H262   H     0.11668   0.87005   0.11312   0.00000  Uiso   1.00
H263   H     0.00817   0.06133   0.10817   0.00000  Uiso   1.00
H264   H     0.03429   0.95491   0.28871   0.00000  Uiso   1.00
H265   H     0.20709   0.77941   0.05345   0.00000  Uiso   1.00
H266   H     0.97829   0.18273   0.04305   0.00000  Uiso   1.00
H267   H     0.03337   0.95834   0.42376   0.00000  Uiso   1.00
O268   O     0.33462   0.76790   0.03080   0.00000  Uiso   1.00
O269   O     0.03443   0.29705   0.01716   0.00000  Uiso   1.00
O270   O     0.10671   0.00265   0.51664   0.00000  Uiso   1.00
N271   N     0.33014   0.86744   0.08402   0.00000  Uiso   1.00
N272   N     0.11622   0.24452   0.07428   0.00000  Uiso   1.00
N273   N     0.16771   0.03475   0.43021   0.00000  Uiso   1.00
N274   N     0.23794   0.81468   0.06810   0.00000  Uiso   1.00
N275   N     0.02402   0.19175   0.05837   0.00000  Uiso   1.00
N276   N     0.07551   0.98198   0.41430   0.00000  Uiso   1.00
C277   C     0.78718   0.94649   0.19758   0.00000  Uiso   1.00
C278   C     0.77738   0.01067   0.16240   0.00000  Uiso   1.00
C279   C     0.71778   0.03523   0.14168   0.00000  Uiso   1.00
C280   C     0.71916   0.09477   0.11039   0.00000  Uiso   1.00
C281   C     0.69498   0.18928   0.05729   0.00000  Uiso   1.00
C282   C     0.83633   0.90674   0.15971   0.00000  Uiso   1.00
C283   C     0.82630   0.84393   0.13673   0.00000  Uiso   1.00
C284   C     0.87731   0.81598   0.10318   0.00000  Uiso   1.00
C285   C     0.94468   0.74914   0.04594   0.00000  Uiso   1.00
C286   C     0.82213   0.96457   0.25780   0.00000  Uiso   1.00
C287   C     0.80018   0.95036   0.31730   0.00000  Uiso   1.00
C288   C     0.83924   0.97108   0.36634   0.00000  Uiso   1.00
C289   C     0.88457   0.99401   0.46140   0.00000  Uiso   1.00
C290   C     0.89561   0.00853   0.17887   0.00000  Uiso   1.00
C291   C     0.83627   0.04437   0.15224   0.00000  Uiso   1.00
C292   C     0.83774   0.10388   0.12098   0.00000  Uiso   1.00
C293   C     0.77816   0.12853   0.10021   0.00000  Uiso   1.00
C294   C     0.89522   0.94044   0.14954   0.00000  Uiso   1.00
C295   C     0.94626   0.91258   0.11603   0.00000  Uiso   1.00
C296   C     0.93631   0.84974   0.09300   0.00000  Uiso   1.00
C297   C     0.88103   0.99827   0.24764   0.00000  Uiso   1.00
C298   C     0.92014   0.01901   0.29660   0.00000  Uiso   1.00
C299   C     0.89824   0.00484   0.35616   0.00000  Uiso   1.00
H300   H     0.74133   0.92024   0.20549   0.00000  Uiso   1.00
H301   H     0.67221   0.00913   0.14955   0.00000  Uiso   1.00
H302   H     0.78072   0.81786   0.14461   0.00000  Uiso   1.00
H303   H     0.75460   0.92427   0.32515   0.00000  Uiso   1.00
H304   H     0.62156   0.12253   0.08303   0.00000  Uiso   1.00
H305   H     0.85037   0.71922   0.07262   0.00000  Uiso   1.00
H306   H     0.79528   0.94361   0.45333   0.00000  Uiso   1.00
H307   H     0.94146   0.03477   0.17095   0.00000  Uiso   1.00
H308   H     0.88332   0.12995   0.11312   0.00000  Uiso   1.00
H309   H     0.99183   0.93867   0.10817   0.00000  Uiso   1.00
H310   H     0.96571   0.04509   0.28871   0.00000  Uiso   1.00
H311   H     0.79291   0.22059   0.05345   0.00000  Uiso   1.00
H312   H     0.02171   0.81727   0.04305   0.00000  Uiso   1.00
H313   H     0.96663   0.04166   0.42376   0.00000  Uiso   1.00
O314   O     0.66538   0.23210   0.03080   0.00000  Uiso   1.00
O315   O     0.96557   0.70295   0.01716   0.00000  Uiso   1.00
O316   O     0.89329   0.99735   0.51664   0.00000  Uiso   1.00
N317   N     0.66986   0.13256   0.08402   0.00000  Uiso   1.00
N318   N     0.88378   0.75548   0.07428   0.00000  Uiso   1.00
N319   N     0.83229   0.96525   0.43021   0.00000  Uiso   1.00
N320   N     0.76206   0.18532   0.06810   0.00000  Uiso   1.00
N321   N     0.97598   0.80825   0.05837   0.00000  Uiso   1.00
N322   N     0.92449   0.01802   0.41430   0.00000  Uiso   1.00
C323   C     0.28718   0.44649   0.69758   0.00000  Uiso   1.00
C324   C     0.27738   0.51067   0.66240   0.00000  Uiso   1.00
C325   C     0.21778   0.53523   0.64168   0.00000  Uiso   1.00
C326   C     0.21916   0.59477   0.61039   0.00000  Uiso   1.00
C327   C     0.19498   0.68928   0.55729   0.00000  Uiso   1.00
C328   C     0.33633   0.40674   0.65971   0.00000  Uiso   1.00
C329   C     0.32630   0.34393   0.63673   0.00000  Uiso   1.00
C330   C     0.37731   0.31598   0.60318   0.00000  Uiso   1.00
C331   C     0.44468   0.24914   0.54594   0.00000  Uiso   1.00
C332   C     0.32213   0.46457   0.75780   0.00000  Uiso   1.00
C333   C     0.30018   0.45036   0.81730   0.00000  Uiso   1.00
C334   C     0.33924   0.47108   0.86634   0.00000  Uiso   1.00
C335   C     0.38457   0.49401   0.96140   0.00000  Uiso   1.00
C336   C     0.39561   0.50853   0.67887   0.00000  Uiso   1.00
C337   C     0.33627   0.54437   0.65224   0.00000  Uiso   1.00
C338   C     0.33774   0.60388   0.62098   0.00000  Uiso   1.00
C339   C     0.27816   0.62853   0.60021   0.00000  Uiso   1.00
C340   C     0.39522   0.44044   0.64954   0.00000  Uiso   1.00
C341   C     0.44626   0.41258   0.61603   0.00000  Uiso   1.00
C342   C     0.43631   0.34974   0.59300   0.00000  Uiso   1.00
C343   C     0.38103   0.49827   0.74764   0.00000  Uiso   1.00
C344   C     0.42014   0.51901   0.79660   0.00000  Uiso   1.00
C345   C     0.39824   0.50484   0.85616   0.00000  Uiso   1.00
H346   H     0.24133   0.42024   0.70549   0.00000  Uiso   1.00
H347   H     0.17221   0.50913   0.64955   0.00000  Uiso   1.00
H348   H     0.28072   0.31786   0.64461   0.00000  Uiso   1.00
H349   H     0.25460   0.42427   0.82515   0.00000  Uiso   1.00
H350   H     0.12156   0.62253   0.58303   0.00000  Uiso   1.00
H351   H     0.35037   0.21922   0.57262   0.00000  Uiso   1.00
H352   H     0.29528   0.44361   0.95333   0.00000  Uiso   1.00
H353   H     0.44146   0.53477   0.67095   0.00000  Uiso   1.00
H354   H     0.38332   0.62995   0.61312   0.00000  Uiso   1.00
H355   H     0.49183   0.43867   0.60817   0.00000  Uiso   1.00
H356   H     0.46571   0.54509   0.78871   0.00000  Uiso   1.00
H357   H     0.29291   0.72059   0.55345   0.00000  Uiso   1.00
H358   H     0.52171   0.31727   0.54305   0.00000  Uiso   1.00
H359   H     0.46663   0.54166   0.92376   0.00000  Uiso   1.00
O360   O     0.16538   0.73210   0.53080   0.00000  Uiso   1.00
O361   O     0.46557   0.20295   0.51716   0.00000  Uiso   1.00
O362   O     0.39329   0.49735   0.01664   0.00000  Uiso   1.00
N363   N     0.16986   0.63256   0.58402   0.00000  Uiso   1.00
N364   N     0.38378   0.25548   0.57428   0.00000  Uiso   1.00
N365   N     0.33229   0.46525   0.93021   0.00000  Uiso   1.00
N366   N     0.26206   0.68532   0.56810   0.00000  Uiso   1.00
N367   N     0.47598   0.30825   0.55837   0.00000  Uiso   1.00
N368   N     0.42449   0.51802   0.91430   0.00000  Uiso   1.00
C369   C     0.94649   0.21282   0.80242   0.00000  Uiso   1.00
C370   C     0.01067   0.22262   0.83760   0.00000  Uiso   1.00
C371   C     0.03523   0.28222   0.85832   0.00000  Uiso   1.00
C372   C     0.09477   0.28084   0.88961   0.00000  Uiso   1.00
C373   C     0.18928   0.30502   0.94271   0.00000  Uiso   1.00
C374   C     0.90674   0.16367   0.84029   0.00000  Uiso   1.00
C375   C     0.84393   0.17370   0.86327   0.00000  Uiso   1.00
C376   C     0.81598   0.12269   0.89682   0.00000  Uiso   1.00
C377   C     0.74914   0.05532   0.95406   0.00000  Uiso   1.00
C378   C     0.96457   0.17787   0.74220   0.00000  Uiso   1.00
C379   C     0.95036   0.19982   0.68270   0.00000  Uiso   1.00
C380   C     0.97108   0.16076   0.63366   0.00000  Uiso   1.00
C381   C     0.99401   0.11543   0.53860   0.00000  Uiso   1.00
C382   C     0.00853   0.10439   0.82113   0.00000  Uiso   1.00
C383   C     0.04437   0.16373   0.84776   0.00000  Uiso   1.00
C384   C     0.10388   0.16226   0.87902   0.00000  Uiso   1.00
C385   C     0.12853   0.22184   0.89979   0.00000  Uiso   1.00
C386   C     0.94044   0.10478   0.85046   0.00000  Uiso   1.00
C387   C     0.91258   0.05374   0.88397   0.00000  Uiso   1.00
C388   C     0.84974   0.06369   0.90700   0.00000  Uiso   1.00
C389   C     0.99827   0.11897   0.75236   0.00000  Uiso   1.00
C390   C     0.01901   0.07986   0.70340   0.00000  Uiso   1.00
C391   C     0.00484   0.10176   0.64384   0.00000  Uiso   1.00
H392   H     0.92024   0.25867   0.79451   0.00000  Uiso   1.00
H393   H     0.00913   0.32779   0.85045   0.00000  Uiso   1.00
H394   H     0.81786   0.21928   0.85539   0.00000  Uiso   1.00
H395   H     0.92427   0.24540   0.67485   0.00000  Uiso   1.00
H396   H     0.12253   0.37844   0.91697   0.00000  Uiso   1.00
H397   H     0.71922   0.14963   0.92738   0.00000  Uiso   1.00
H398   H     0.94361   0.20472   0.54667   0.00000  Uiso   1.00
H399   H     0.03477   0.05854   0.82905   0.00000  Uiso   1.00
H400   H     0.12995   0.11668   0.88688   0.00000  Uiso   1.00
H401   H     0.93867   0.00817   0.89183   0.00000  Uiso   1.00
H402   H     0.04509   0.03429   0.71129   0.00000  Uiso   1.00
H403   H     0.22059   0.20709   0.94655   0.00000  Uiso   1.00
H404   H     0.81727   0.97829   0.95695   0.00000  Uiso   1.00
H405   H     0.04166   0.03337   0.57624   0.00000  Uiso   1.00
O406   O     0.23210   0.33462   0.96920   0.00000  Uiso   1.00
O407   O     0.70295   0.03443   0.98284   0.00000  Uiso   1.00
O408   O     0.99735   0.10671   0.48336   0.00000  Uiso   1.00
N409   N     0.13256   0.33014   0.91598   0.00000  Uiso   1.00
N410   N     0.75548   0.11622   0.92572   0.00000  Uiso   1.00
N411   N     0.96525   0.16771   0.56979   0.00000  Uiso   1.00
N412   N     0.18532   0.23794   0.93190   0.00000  Uiso   1.00
N413   N     0.80825   0.02402   0.94163   0.00000  Uiso   1.00
N414   N     0.01802   0.07551   0.58570   0.00000  Uiso   1.00
C415   C     0.44649   0.71282   0.30242   0.00000  Uiso   1.00
C416   C     0.51067   0.72262   0.33760   0.00000  Uiso   1.00
C417   C     0.53523   0.78222   0.35832   0.00000  Uiso   1.00
C418   C     0.59477   0.78084   0.38961   0.00000  Uiso   1.00
C419   C     0.68928   0.80502   0.44271   0.00000  Uiso   1.00
C420   C     0.40674   0.66367   0.34029   0.00000  Uiso   1.00
C421   C     0.34393   0.67370   0.36327   0.00000  Uiso   1.00
C422   C     0.31598   0.62269   0.39682   0.00000  Uiso   1.00
C423   C     0.24914   0.55532   0.45406   0.00000  Uiso   1.00
C424   C     0.46457   0.67787   0.24220   0.00000  Uiso   1.00
C425   C     0.45036   0.69982   0.18270   0.00000  Uiso   1.00
C426   C     0.47108   0.66076   0.13366   0.00000  Uiso   1.00
C427   C     0.49401   0.61543   0.03860   0.00000  Uiso   1.00
C428   C     0.50853   0.60439   0.32113   0.00000  Uiso   1.00
C429   C     0.54437   0.66373   0.34776   0.00000  Uiso   1.00
C430   C     0.60388   0.66226   0.37902   0.00000  Uiso   1.00
C431   C     0.62853   0.72184   0.39979   0.00000  Uiso   1.00
C432   C     0.44044   0.60478   0.35046   0.00000  Uiso   1.00
C433   C     0.41258   0.55374   0.38397   0.00000  Uiso   1.00
C434   C     0.34974   0.56369   0.40700   0.00000  Uiso   1.00
C435   C     0.49827   0.61897   0.25236   0.00000  Uiso   1.00
C436   C     0.51901   0.57986   0.20340   0.00000  Uiso   1.00
C437   C     0.50484   0.60176   0.14384   0.00000  Uiso   1.00
H438   H     0.42024   0.75867   0.29451   0.00000  Uiso   1.00
H439   H     0.50913   0.82779   0.35045   0.00000  Uiso   1.00
H440   H     0.31786   0.71928   0.35539   0.00000  Uiso   1.00
H441   H     0.42427   0.74540   0.17485   0.00000  Uiso   1.00
H442   H     0.62253   0.87844   0.41697   0.00000  Uiso   1.00
H443   H     0.21922   0.64963   0.42738   0.00000  Uiso   1.00
H444   H     0.44361   0.70472   0.04667   0.00000  Uiso   1.00
H445   H     0.53477   0.55854   0.32905   0.00000  Uiso   1.00
H446   H     0.62995   0.61668   0.38688   0.00000  Uiso   1.00
H447   H     0.43867   0.50817   0.39183   0.00000  Uiso   1.00
H448   H     0.54509   0.53429   0.21129   0.00000  Uiso   1.00
H449   H     0.72059   0.70709   0.44655   0.00000  Uiso   1.00
H450   H     0.31727   0.47829   0.45695   0.00000  Uiso   1.00
H451   H     0.54166   0.53337   0.07624   0.00000  Uiso   1.00
O452   O     0.73210   0.83462   0.46920   0.00000  Uiso   1.00
O453   O     0.20295   0.53443   0.48284   0.00000  Uiso   1.00
O454   O     0.49735   0.60671   0.98336   0.00000  Uiso   1.00
N455   N     0.63256   0.83014   0.41598   0.00000  Uiso   1.00
N456   N     0.25548   0.61622   0.42572   0.00000  Uiso   1.00
N457   N     0.46525   0.66771   0.06979   0.00000  Uiso   1.00
N458   N     0.68532   0.73794   0.43190   0.00000  Uiso   1.00
N459   N     0.30825   0.52402   0.44163   0.00000  Uiso   1.00
N460   N     0.51802   0.57551   0.08570   0.00000  Uiso   1.00
C461   C     0.55351   0.28718   0.30242   0.00000  Uiso   1.00
C462   C     0.48933   0.27738   0.33760   0.00000  Uiso   1.00
C463   C     0.46477   0.21778   0.35832   0.00000  Uiso   1.00
C464   C     0.40523   0.21916   0.38961   0.00000  Uiso   1.00
C465   C     0.31072   0.19498   0.44271   0.00000  Uiso   1.00
C466   C     0.59326   0.33633   0.34029   0.00000  Uiso   1.00
C467   C     0.65607   0.32630   0.36327   0.00000  Uiso   1.00
C468   C     0.68402   0.37731   0.39682   0.00000  Uiso   1.00
C469   C     0.75086   0.44468   0.45406   0.00000  Uiso   1.00
C470   C     0.53543   0.32213   0.24220   0.00000  Uiso   1.00
C471   C     0.54964   0.30018   0.18270   0.00000  Uiso   1.00
C472   C     0.52892   0.33924   0.13366   0.00000  Uiso   1.00
C473   C     0.50599   0.38457   0.03860   0.00000  Uiso   1.00
C474   C     0.49147   0.39561   0.32113   0.00000  Uiso   1.00
C475   C     0.45563   0.33627   0.34776   0.00000  Uiso   1.00
C476   C     0.39612   0.33774   0.37902   0.00000  Uiso   1.00
C477   C     0.37147   0.27816   0.39979   0.00000  Uiso   1.00
C478   C     0.55956   0.39522   0.35046   0.00000  Uiso   1.00
C479   C     0.58742   0.44626   0.38397   0.00000  Uiso   1.00
C480   C     0.65026   0.43631   0.40700   0.00000  Uiso   1.00
C481   C     0.50173   0.38103   0.25236   0.00000  Uiso   1.00
C482   C     0.48099   0.42014   0.20340   0.00000  Uiso   1.00
C483   C     0.49516   0.39824   0.14384   0.00000  Uiso   1.00
H484   H     0.57976   0.24133   0.29451   0.00000  Uiso   1.00
H485   H     0.49087   0.17221   0.35045   0.00000  Uiso   1.00
H486   H     0.68214   0.28072   0.35539   0.00000  Uiso   1.00
H487   H     0.57573   0.25460   0.17485   0.00000  Uiso   1.00
H488   H     0.37747   0.12156   0.41697   0.00000  Uiso   1.00
H489   H     0.78078   0.35037   0.42738   0.00000  Uiso   1.00
H490   H     0.55639   0.29528   0.04667   0.00000  Uiso   1.00
H491   H     0.46523   0.44146   0.32905   0.00000  Uiso   1.00
H492   H     0.37005   0.38332   0.38688   0.00000  Uiso   1.00
H493   H     0.56133   0.49183   0.39183   0.00000  Uiso   1.00
H494   H     0.45491   0.46571   0.21129   0.00000  Uiso   1.00
H495   H     0.27941   0.29291   0.44655   0.00000  Uiso   1.00
H496   H     0.68273   0.52171   0.45695   0.00000  Uiso   1.00
H497   H     0.45834   0.46663   0.07624   0.00000  Uiso   1.00
O498   O     0.26790   0.16538   0.46920   0.00000  Uiso   1.00
O499   O     0.79705   0.46557   0.48284   0.00000  Uiso   1.00
O500   O     0.50265   0.39329   0.98336   0.00000  Uiso   1.00
N501   N     0.36744   0.16986   0.41598   0.00000  Uiso   1.00
N502   N     0.74452   0.38378   0.42572   0.00000  Uiso   1.00
N503   N     0.53475   0.33229   0.06979   0.00000  Uiso   1.00
N504   N     0.31468   0.26206   0.43190   0.00000  Uiso   1.00
N505   N     0.69175   0.47598   0.44163   0.00000  Uiso   1.00
N506   N     0.48198   0.42449   0.08570   0.00000  Uiso   1.00
C507   C     0.05351   0.78718   0.80242   0.00000  Uiso   1.00
C508   C     0.98933   0.77738   0.83760   0.00000  Uiso   1.00
C509   C     0.96477   0.71778   0.85832   0.00000  Uiso   1.00
C510   C     0.90523   0.71916   0.88961   0.00000  Uiso   1.00
C511   C     0.81072   0.69498   0.94271   0.00000  Uiso   1.00
C512   C     0.09326   0.83633   0.84029   0.00000  Uiso   1.00
C513   C     0.15607   0.82630   0.86327   0.00000  Uiso   1.00
C514   C     0.18402   0.87731   0.89682   0.00000  Uiso   1.00
C515   C     0.25086   0.94468   0.95406   0.00000  Uiso   1.00
C516   C     0.03543   0.82213   0.74220   0.00000  Uiso   1.00
C517   C     0.04964   0.80018   0.68270   0.00000  Uiso   1.00
C518   C     0.02892   0.83924   0.63366   0.00000  Uiso   1.00
C519   C     0.00599   0.88457   0.53860   0.00000  Uiso   1.00
C520   C     0.99147   0.89561   0.82113   0.00000  Uiso   1.00
C521   C     0.95563   0.83627   0.84776   0.00000  Uiso   1.00
C522   C     0.89612   0.83774   0.87902   0.00000  Uiso   1.00
C523   C     0.87147   0.77816   0.89979   0.00000  Uiso   1.00
C524   C     0.05956   0.89522   0.85046   0.00000  Uiso   1.00
C525   C     0.08742   0.94626   0.88397   0.00000  Uiso   1.00
C526   C     0.15026   0.93631   0.90700   0.00000  Uiso   1.00
C527   C     0.00173   0.88103   0.75236   0.00000  Uiso   1.00
C528   C     0.98099   0.92014   0.70340   0.00000  Uiso   1.00
C529   C     0.99516   0.89824   0.64384   0.00000  Uiso   1.00
H530   H     0.07976   0.74133   0.79451   0.00000  Uiso   1.00
H531   H     0.99087   0.67221   0.85045   0.00000  Uiso   1.00
H532   H     0.18214   0.78072   0.85539   0.00000  Uiso   1.00
H533   H     0.07573   0.75460   0.67485   0.00000  Uiso   1.00
H534   H     0.87747   0.62156   0.91697   0.00000  Uiso   1.00
H535   H     0.28078   0.85037   0.92738   0.00000  Uiso   1.00
H536   H     0.05639   0.79528   0.54667   0.00000  Uiso   1.00
H537   H     0.96523   0.94146   0.82905   0.00000  Uiso   1.00
H538   H     0.87005   0.88332   0.88688   0.00000  Uiso   1.00
H539   H     0.06133   0.99183   0.89183   0.00000  Uiso   1.00
H540   H     0.95491   0.96571   0.71129   0.00000  Uiso   1.00
H541   H     0.77941   0.79291   0.94655   0.00000  Uiso   1.00
H542   H     0.18273   0.02171   0.95695   0.00000  Uiso   1.00
H543   H     0.95834   0.96663   0.57624   0.00000  Uiso   1.00
O544   O     0.76790   0.66538   0.96920   0.00000  Uiso   1.00
O545   O     0.29705   0.96557   0.98284   0.00000  Uiso   1.00
O546   O     0.00265   0.89329   0.48336   0.00000  Uiso   1.00
N547   N     0.86744   0.66986   0.91598   0.00000  Uiso   1.00
N548   N     0.24452   0.88378   0.92572   0.00000  Uiso   1.00
N549   N     0.03475   0.83229   0.56979   0.00000  Uiso   1.00
N550   N     0.81468   0.76206   0.93190   0.00000  Uiso   1.00
N551   N     0.19175   0.97598   0.94163   0.00000  Uiso   1.00
N552   N     0.98198   0.92449   0.58570   0.00000  Uiso   1.00
C553   C     0.28718   0.94649   0.55242   0.00000  Uiso   1.00
C554   C     0.27738   0.01067   0.58760   0.00000  Uiso   1.00
C555   C     0.21778   0.03523   0.60832   0.00000  Uiso   1.00
C556   C     0.21916   0.09477   0.63961   0.00000  Uiso   1.00
C557   C     0.19498   0.18928   0.69271   0.00000  Uiso   1.00
C558   C     0.33633   0.90674   0.59029   0.00000  Uiso   1.00
C559   C     0.32630   0.84393   0.61327   0.00000  Uiso   1.00
C560   C     0.37731   0.81598   0.64682   0.00000  Uiso   1.00
C561   C     0.44468   0.74914   0.70406   0.00000  Uiso   1.00
C562   C     0.32213   0.96457   0.49220   0.00000  Uiso   1.00
C563   C     0.30018   0.95036   0.43270   0.00000  Uiso   1.00
C564   C     0.33924   0.97108   0.38366   0.00000  Uiso   1.00
C565   C     0.38457   0.99401   0.28860   0.00000  Uiso   1.00
C566   C     0.39561   0.00853   0.57113   0.00000  Uiso   1.00
C567   C     0.33627   0.04437   0.59776   0.00000  Uiso   1.00
C568   C     0.33774   0.10388   0.62902   0.00000  Uiso   1.00
C569   C     0.27816   0.12853   0.64979   0.00000  Uiso   1.00
C570   C     0.39522   0.94044   0.60046   0.00000  Uiso   1.00
C571   C     0.44626   0.91258   0.63397   0.00000  Uiso   1.00
C572   C     0.43631   0.84974   0.65700   0.00000  Uiso   1.00
C573   C     0.38103   0.99827   0.50236   0.00000  Uiso   1.00
C574   C     0.42014   0.01901   0.45340   0.00000  Uiso   1.00
C575   C     0.39824   0.00484   0.39384   0.00000  Uiso   1.00
H576   H     0.24133   0.92024   0.54451   0.00000  Uiso   1.00
H577   H     0.17221   0.00913   0.60045   0.00000  Uiso   1.00
H578   H     0.28072   0.81786   0.60539   0.00000  Uiso   1.00
H579   H     0.25460   0.92427   0.42485   0.00000  Uiso   1.00
H580   H     0.12156   0.12253   0.66697   0.00000  Uiso   1.00
H581   H     0.35037   0.71922   0.67738   0.00000  Uiso   1.00
H582   H     0.29528   0.94361   0.29667   0.00000  Uiso   1.00
H583   H     0.44146   0.03477   0.57905   0.00000  Uiso   1.00
H584   H     0.38332   0.12995   0.63688   0.00000  Uiso   1.00
H585   H     0.49183   0.93867   0.64183   0.00000  Uiso   1.00
H586   H     0.46571   0.04509   0.46129   0.00000  Uiso   1.00
H587   H     0.29291   0.22059   0.69655   0.00000  Uiso   1.00
H588   H     0.52171   0.81727   0.70695   0.00000  Uiso   1.00
H589   H     0.46663   0.04166   0.32624   0.00000  Uiso   1.00
O590   O     0.16538   0.23210   0.71920   0.00000  Uiso   1.00
O591   O     0.46557   0.70295   0.73284   0.00000  Uiso   1.00
O592   O     0.39329   0.99735   0.23336   0.00000  Uiso   1.00
N593   N     0.16986   0.13256   0.66598   0.00000  Uiso   1.00
N594   N     0.38378   0.75548   0.67572   0.00000  Uiso   1.00
N595   N     0.33229   0.96525   0.31979   0.00000  Uiso   1.00
N596   N     0.26206   0.18532   0.68190   0.00000  Uiso   1.00
N597   N     0.47598   0.80825   0.69163   0.00000  Uiso   1.00
N598   N     0.42449   0.01802   0.33570   0.00000  Uiso   1.00
C599   C     0.78718   0.44649   0.05242   0.00000  Uiso   1.00
C600   C     0.77738   0.51067   0.08760   0.00000  Uiso   1.00
C601   C     0.71778   0.53523   0.10832   0.00000  Uiso   1.00
C602   C     0.71916   0.59477   0.13961   0.00000  Uiso   1.00
C603   C     0.69498   0.68928   0.19271   0.00000  Uiso   1.00
C604   C     0.83633   0.40674   0.09029   0.00000  Uiso   1.00
C605   C     0.82630   0.34393   0.11327   0.00000  Uiso   1.00
C606   C     0.87731   0.31598   0.14682   0.00000  Uiso   1.00
C607   C     0.94468   0.24914   0.20406   0.00000  Uiso   1.00
C608   C     0.82213   0.46457   0.99220   0.00000  Uiso   1.00
C609   C     0.80018   0.45036   0.93270   0.00000  Uiso   1.00
C610   C     0.83924   0.47108   0.88366   0.00000  Uiso   1.00
C611   C     0.88457   0.49401   0.78860   0.00000  Uiso   1.00
C612   C     0.89561   0.50853   0.07113   0.00000  Uiso   1.00
C613   C     0.83627   0.54437   0.09776   0.00000  Uiso   1.00
C614   C     0.83774   0.60388   0.12902   0.00000  Uiso   1.00
C615   C     0.77816   0.62853   0.14979   0.00000  Uiso   1.00
C616   C     0.89522   0.44044   0.10046   0.00000  Uiso   1.00
C617   C     0.94626   0.41258   0.13397   0.00000  Uiso   1.00
C618   C     0.93631   0.34974   0.15700   0.00000  Uiso   1.00
C619   C     0.88103   0.49827   0.00236   0.00000  Uiso   1.00
C620   C     0.92014   0.51901   0.95340   0.00000  Uiso   1.00
C621   C     0.89824   0.50484   0.89384   0.00000  Uiso   1.00
H622   H     0.74133   0.42024   0.04451   0.00000  Uiso   1.00
H623   H     0.67221   0.50913   0.10045   0.00000  Uiso   1.00
H624   H     0.78072   0.31786   0.10539   0.00000  Uiso   1.00
H625   H     0.75460   0.42427   0.92485   0.00000  Uiso   1.00
H626   H     0.62156   0.62253   0.16697   0.00000  Uiso   1.00
H627   H     0.85037   0.21922   0.17738   0.00000  Uiso   1.00
H628   H     0.79528   0.44361   0.79667   0.00000  Uiso   1.00
H629   H     0.94146   0.53477   0.07905   0.00000  Uiso   1.00
H630   H     0.88332   0.62995   0.13688   0.00000  Uiso   1.00
H631   H     0.99183   0.43867   0.14183   0.00000  Uiso   1.00
H632   H     0.96571   0.54509   0.96129   0.00000  Uiso   1.00
H633   H     0.79291   0.72059   0.19655   0.00000  Uiso   1.00
H634   H     0.02171   0.31727   0.20695   0.00000  Uiso   1.00
H635   H     0.96663   0.54166   0.82624   0.00000  Uiso   1.00
O636   O     0.66538   0.73210   0.21920   0.00000  Uiso   1.00
O637   O     0.96557   0.20295   0.23284   0.00000  Uiso   1.00
O638   O     0.89329   0.49735   0.73336   0.00000  Uiso   1.00
N639   N     0.66986   0.63256   0.16598   0.00000  Uiso   1.00
N640   N     0.88378   0.25548   0.17572   0.00000  Uiso   1.00
N641   N     0.83229   0.46525   0.81979   0.00000  Uiso   1.00
N642   N     0.76206   0.68532   0.18190   0.00000  Uiso   1.00
N643   N     0.97598   0.30825   0.19163   0.00000  Uiso   1.00
N644   N     0.92449   0.51802   0.83570   0.00000  Uiso   1.00
C645   C     0.21282   0.55351   0.05242   0.00000  Uiso   1.00
C646   C     0.22262   0.48933   0.08760   0.00000  Uiso   1.00
C647   C     0.28222   0.46477   0.10832   0.00000  Uiso   1.00
C648   C     0.28084   0.40523   0.13961   0.00000  Uiso   1.00
C649   C     0.30502   0.31072   0.19271   0.00000  Uiso   1.00
C650   C     0.16367   0.59326   0.09029   0.00000  Uiso   1.00
C651   C     0.17370   0.65607   0.11327   0.00000  Uiso   1.00
C652   C     0.12269   0.68402   0.14682   0.00000  Uiso   1.00
C653   C     0.05532   0.75086   0.20406   0.00000  Uiso   1.00
C654   C     0.17787   0.53543   0.99220   0.00000  Uiso   1.00
C655   C     0.19982   0.54964   0.93270   0.00000  Uiso   1.00
C656   C     0.16076   0.52892   0.88366   0.00000  Uiso   1.00
C657   C     0.11543   0.50599   0.78860   0.00000  Uiso   1.00
C658   C     0.10439   0.49147   0.07113   0.00000  Uiso   1.00
C659   C     0.16373   0.45563   0.09776   0.00000  Uiso   1.00
C660   C     0.16226   0.39612   0.12902   0.00000  Uiso   1.00
C661   C     0.22184   0.37147   0.14979   0.00000  Uiso   1.00
C662   C     0.10478   0.55956   0.10046   0.00000  Uiso   1.00
C663   C     0.05374   0.58742   0.13397   0.00000  Uiso   1.00
C664   C     0.06369   0.65026   0.15700   0.00000  Uiso   1.00
C665   C     0.11897   0.50173   0.00236   0.00000  Uiso   1.00
C666   C     0.07986   0.48099   0.95340   0.00000  Uiso   1.00
C667   C     0.10176   0.49516   0.89384   0.00000  Uiso   1.00
H668   H     0.25867   0.57976   0.04451   0.00000  Uiso   1.00
H669   H     0.32779   0.49087   0.10045   0.00000  Uiso   1.00
H670   H     0.21928   0.68214   0.10539   0.00000  Uiso   1.00
H671   H     0.24540   0.57573   0.92485   0.00000  Uiso   1.00
H672   H     0.37844   0.37747   0.16697   0.00000  Uiso   1.00
H673   H     0.14963   0.78078   0.17738   0.00000  Uiso   1.00
H674   H     0.20472   0.55639   0.79667   0.00000  Uiso   1.00
H675   H     0.05854   0.46523   0.07905   0.00000  Uiso   1.00
H676   H     0.11668   0.37005   0.13688   0.00000  Uiso   1.00
H677   H     0.00817   0.56133   0.14183   0.00000  Uiso   1.00
H678   H     0.03429   0.45491   0.96129   0.00000  Uiso   1.00
H679   H     0.20709   0.27941   0.19655   0.00000  Uiso   1.00
H680   H     0.97829   0.68273   0.20695   0.00000  Uiso   1.00
H681   H     0.03337   0.45834   0.82624   0.00000  Uiso   1.00
O682   O     0.33462   0.26790   0.21920   0.00000  Uiso   1.00
O683   O     0.03443   0.79705   0.23284   0.00000  Uiso   1.00
O684   O     0.10671   0.50265   0.73336   0.00000  Uiso   1.00
N685   N     0.33014   0.36744   0.16598   0.00000  Uiso   1.00
N686   N     0.11622   0.74452   0.17572   0.00000  Uiso   1.00
N687   N     0.16771   0.53475   0.81979   0.00000  Uiso   1.00
N688   N     0.23794   0.31468   0.18190   0.00000  Uiso   1.00
N689   N     0.02402   0.69175   0.19163   0.00000  Uiso   1.00
N690   N     0.07551   0.48198   0.83570   0.00000  Uiso   1.00
C691   C     0.71282   0.05351   0.55242   0.00000  Uiso   1.00
C692   C     0.72262   0.98933   0.58760   0.00000  Uiso   1.00
C693   C     0.78222   0.96477   0.60832   0.00000  Uiso   1.00
C694   C     0.78084   0.90523   0.63961   0.00000  Uiso   1.00
C695   C     0.80502   0.81072   0.69271   0.00000  Uiso   1.00
C696   C     0.66367   0.09326   0.59029   0.00000  Uiso   1.00
C697   C     0.67370   0.15607   0.61327   0.00000  Uiso   1.00
C698   C     0.62269   0.18402   0.64682   0.00000  Uiso   1.00
C699   C     0.55532   0.25086   0.70406   0.00000  Uiso   1.00
C700   C     0.67787   0.03543   0.49220   0.00000  Uiso   1.00
C701   C     0.69982   0.04964   0.43270   0.00000  Uiso   1.00
C702   C     0.66076   0.02892   0.38366   0.00000  Uiso   1.00
C703   C     0.61543   0.00599   0.28860   0.00000  Uiso   1.00
C704   C     0.60439   0.99147   0.57113   0.00000  Uiso   1.00
C705   C     0.66373   0.95563   0.59776   0.00000  Uiso   1.00
C706   C     0.66226   0.89612   0.62902   0.00000  Uiso   1.00
C707   C     0.72184   0.87147   0.64979   0.00000  Uiso   1.00
C708   C     0.60478   0.05956   0.60046   0.00000  Uiso   1.00
C709   C     0.55374   0.08742   0.63397   0.00000  Uiso   1.00
C710   C     0.56369   0.15026   0.65700   0.00000  Uiso   1.00
C711   C     0.61897   0.00173   0.50236   0.00000  Uiso   1.00
C712   C     0.57986   0.98099   0.45340   0.00000  Uiso   1.00
C713   C     0.60176   0.99516   0.39384   0.00000  Uiso   1.00
H714   H     0.75867   0.07976   0.54451   0.00000  Uiso   1.00
H715   H     0.82779   0.99087   0.60045   0.00000  Uiso   1.00
H716   H     0.71928   0.18214   0.60539   0.00000  Uiso   1.00
H717   H     0.74540   0.07573   0.42485   0.00000  Uiso   1.00
H718   H     0.87844   0.87747   0.66697   0.00000  Uiso   1.00
H719   H     0.64963   0.28078   0.67738   0.00000  Uiso   1.00
H720   H     0.70472   0.05639   0.29667   0.00000  Uiso   1.00
H721   H     0.55854   0.96523   0.57905   0.00000  Uiso   1.00
H722   H     0.61668   0.87005   0.63688   0.00000  Uiso   1.00
H723   H     0.50817   0.06133   0.64183   0.00000  Uiso   1.00
H724   H     0.53429   0.95491   0.46129   0.00000  Uiso   1.00
H725   H     0.70709   0.77941   0.69655   0.00000  Uiso   1.00
H726   H     0.47829   0.18273   0.70695   0.00000  Uiso   1.00
H727   H     0.53337   0.95834   0.32624   0.00000  Uiso   1.00
O728   O     0.83462   0.76790   0.71920   0.00000  Uiso   1.00
O729   O     0.53443   0.29705   0.73284   0.00000  Uiso   1.00
O730   O     0.60671   0.00265   0.23336   0.00000  Uiso   1.00
N731   N     0.83014   0.86744   0.66598   0.00000  Uiso   1.00
N732   N     0.61622   0.24452   0.67572   0.00000  Uiso   1.00
N733   N     0.66771   0.03475   0.31979   0.00000  Uiso   1.00
N734   N     0.73794   0.81468   0.68190   0.00000  Uiso   1.00
N735   N     0.52402   0.19175   0.69163   0.00000  Uiso   1.00
N736   N     0.57551   0.98198   0.33570   0.00000  Uiso   1.00
