data_job_02843
_audit_creation_date              2018-12-19
_audit_creation_method            'Materials Studio'
_symmetry_space_group_name_H-M    'P1'
_symmetry_Int_Tables_number       1
_symmetry_cell_setting            triclinic
loop_
_symmetry_equiv_pos_as_xyz
  x,y,z
_cell_length_a                    23.5301
_cell_length_b                    23.5301
_cell_length_c                    18.7136
_cell_angle_alpha                 90.0000
_cell_angle_beta                  90.0000
_cell_angle_gamma                 90.0000
loop_
_atom_site_label
_atom_site_type_symbol
_atom_site_fract_x
_atom_site_fract_y
_atom_site_fract_z
_atom_site_U_iso_or_equiv
_atom_site_adp_type
_atom_site_occupancy
C1     C     0.65376   0.15743   0.45674   0.00000  Uiso   1.00
C2     C     0.61232   0.17816   0.39977   0.00000  Uiso   1.00
C3     C     0.59632   0.14832   0.33905   0.00000  Uiso   1.00
C4     C     0.55791   0.17464   0.29349   0.00000  Uiso   1.00
C5     C     0.49687   0.19860   0.20277   0.00000  Uiso   1.00
C6     C     0.70013   0.20255   0.46157   0.00000  Uiso   1.00
C7     C     0.75795   0.19320   0.45282   0.00000  Uiso   1.00
C8     C     0.79345   0.24005   0.45929   0.00000  Uiso   1.00
C9     C     0.86874   0.30185   0.46458   0.00000  Uiso   1.00
C10    C     0.62160   0.15999   0.52740   0.00000  Uiso   1.00
C11    C     0.61340   0.11486   0.57403   0.00000  Uiso   1.00
C12    C     0.58280   0.12588   0.63594   0.00000  Uiso   1.00
C13    C     0.53616   0.12161   0.74345   0.00000  Uiso   1.00
C14    C     0.61401   0.25725   0.48378   0.00000  Uiso   1.00
C15    C     0.59073   0.23238   0.41446   0.00000  Uiso   1.00
C16    C     0.55233   0.25876   0.36897   0.00000  Uiso   1.00
C17    C     0.53627   0.22895   0.30820   0.00000  Uiso   1.00
C18    C     0.67854   0.25676   0.47625   0.00000  Uiso   1.00
C19    C     0.71397   0.30364   0.48274   0.00000  Uiso   1.00
C20    C     0.77182   0.29436   0.47401   0.00000  Uiso   1.00
C21    C     0.60001   0.21421   0.54209   0.00000  Uiso   1.00
C22    C     0.56942   0.22530   0.60394   0.00000  Uiso   1.00
C23    C     0.56117   0.18020   0.65065   0.00000  Uiso   1.00
H24    H     0.67058   0.11522   0.44530   0.00000  Uiso   1.00
H25    H     0.61304   0.10636   0.32770   0.00000  Uiso   1.00
H26    H     0.77465   0.15124   0.44147   0.00000  Uiso   1.00
H27    H     0.63012   0.07291   0.56265   0.00000  Uiso   1.00
H28    H     0.53974   0.12046   0.20378   0.00000  Uiso   1.00
H29    H     0.88050   0.21508   0.44368   0.00000  Uiso   1.00
H30    H     0.57574   0.04991   0.69922   0.00000  Uiso   1.00
H31    H     0.59720   0.29946   0.49521   0.00000  Uiso   1.00
H32    H     0.53563   0.30071   0.38035   0.00000  Uiso   1.00
H33    H     0.69724   0.34559   0.49411   0.00000  Uiso   1.00
H34    H     0.55271   0.26726   0.61529   0.00000  Uiso   1.00
H35    H     0.47692   0.27820   0.24651   0.00000  Uiso   1.00
H36    H     0.81768   0.37282   0.48641   0.00000  Uiso   1.00
H37    H     0.51291   0.20765   0.74195   0.00000  Uiso   1.00
O38    O     0.46917   0.19684   0.14867   0.00000  Uiso   1.00
O39    O     0.91623   0.32097   0.46343   0.00000  Uiso   1.00
O40    O     0.51639   0.10427   0.79868   0.00000  Uiso   1.00
N41    N     0.53340   0.15741   0.22961   0.00000  Uiso   1.00
N42    N     0.85199   0.24587   0.45389   0.00000  Uiso   1.00
N43    N     0.56707   0.09146   0.69281   0.00000  Uiso   1.00
N44    N     0.49959   0.24229   0.25260   0.00000  Uiso   1.00
N45    N     0.81818   0.33075   0.47688   0.00000  Uiso   1.00
N46    N     0.53327   0.17634   0.71580   0.00000  Uiso   1.00
C47    C     0.15376   0.65743   0.95674   0.00000  Uiso   1.00
C48    C     0.11232   0.67816   0.89977   0.00000  Uiso   1.00
C49    C     0.09632   0.64832   0.83905   0.00000  Uiso   1.00
C50    C     0.05791   0.67464   0.79349   0.00000  Uiso   1.00
C51    C     0.99687   0.69860   0.70277   0.00000  Uiso   1.00
C52    C     0.20013   0.70255   0.96157   0.00000  Uiso   1.00
C53    C     0.25795   0.69320   0.95282   0.00000  Uiso   1.00
C54    C     0.29345   0.74005   0.95929   0.00000  Uiso   1.00
C55    C     0.36874   0.80185   0.96458   0.00000  Uiso   1.00
C56    C     0.12160   0.65999   0.02740   0.00000  Uiso   1.00
C57    C     0.11340   0.61486   0.07403   0.00000  Uiso   1.00
C58    C     0.08280   0.62588   0.13594   0.00000  Uiso   1.00
C59    C     0.03616   0.62161   0.24345   0.00000  Uiso   1.00
C60    C     0.11401   0.75725   0.98378   0.00000  Uiso   1.00
C61    C     0.09073   0.73238   0.91446   0.00000  Uiso   1.00
C62    C     0.05233   0.75876   0.86897   0.00000  Uiso   1.00
C63    C     0.03627   0.72895   0.80820   0.00000  Uiso   1.00
C64    C     0.17854   0.75676   0.97625   0.00000  Uiso   1.00
C65    C     0.21397   0.80364   0.98274   0.00000  Uiso   1.00
C66    C     0.27182   0.79436   0.97401   0.00000  Uiso   1.00
C67    C     0.10001   0.71421   0.04209   0.00000  Uiso   1.00
C68    C     0.06942   0.72530   0.10394   0.00000  Uiso   1.00
C69    C     0.06117   0.68020   0.15065   0.00000  Uiso   1.00
H70    H     0.17058   0.61522   0.94530   0.00000  Uiso   1.00
H71    H     0.11304   0.60636   0.82770   0.00000  Uiso   1.00
H72    H     0.27465   0.65124   0.94147   0.00000  Uiso   1.00
H73    H     0.13012   0.57291   0.06265   0.00000  Uiso   1.00
H74    H     0.03974   0.62046   0.70378   0.00000  Uiso   1.00
H75    H     0.38050   0.71508   0.94368   0.00000  Uiso   1.00
H76    H     0.07574   0.54991   0.19922   0.00000  Uiso   1.00
H77    H     0.09720   0.79946   0.99521   0.00000  Uiso   1.00
H78    H     0.03563   0.80071   0.88035   0.00000  Uiso   1.00
H79    H     0.19724   0.84559   0.99411   0.00000  Uiso   1.00
H80    H     0.05271   0.76726   0.11529   0.00000  Uiso   1.00
H81    H     0.97692   0.77820   0.74651   0.00000  Uiso   1.00
H82    H     0.31768   0.87282   0.98641   0.00000  Uiso   1.00
H83    H     0.01291   0.70765   0.24195   0.00000  Uiso   1.00
O84    O     0.96917   0.69684   0.64867   0.00000  Uiso   1.00
O85    O     0.41623   0.82097   0.96343   0.00000  Uiso   1.00
O86    O     0.01639   0.60427   0.29868   0.00000  Uiso   1.00
N87    N     0.03340   0.65741   0.72961   0.00000  Uiso   1.00
N88    N     0.35199   0.74587   0.95389   0.00000  Uiso   1.00
N89    N     0.06707   0.59146   0.19281   0.00000  Uiso   1.00
N90    N     0.99959   0.74229   0.75260   0.00000  Uiso   1.00
N91    N     0.31818   0.83075   0.97688   0.00000  Uiso   1.00
N92    N     0.03327   0.67634   0.21580   0.00000  Uiso   1.00
C93    C     0.84624   0.34257   0.95674   0.00000  Uiso   1.00
C94    C     0.88768   0.32184   0.89977   0.00000  Uiso   1.00
C95    C     0.90368   0.35168   0.83905   0.00000  Uiso   1.00
C96    C     0.94209   0.32536   0.79349   0.00000  Uiso   1.00
C97    C     0.00313   0.30140   0.70277   0.00000  Uiso   1.00
C98    C     0.79987   0.29745   0.96157   0.00000  Uiso   1.00
C99    C     0.74205   0.30680   0.95282   0.00000  Uiso   1.00
C100   C     0.70655   0.25995   0.95929   0.00000  Uiso   1.00
C101   C     0.63126   0.19815   0.96458   0.00000  Uiso   1.00
C102   C     0.87840   0.34001   0.02740   0.00000  Uiso   1.00
C103   C     0.88660   0.38514   0.07403   0.00000  Uiso   1.00
C104   C     0.91720   0.37412   0.13594   0.00000  Uiso   1.00
C105   C     0.96384   0.37839   0.24345   0.00000  Uiso   1.00
C106   C     0.88599   0.24275   0.98378   0.00000  Uiso   1.00
C107   C     0.90927   0.26762   0.91446   0.00000  Uiso   1.00
C108   C     0.94767   0.24124   0.86897   0.00000  Uiso   1.00
C109   C     0.96373   0.27105   0.80820   0.00000  Uiso   1.00
C110   C     0.82146   0.24324   0.97625   0.00000  Uiso   1.00
C111   C     0.78603   0.19636   0.98274   0.00000  Uiso   1.00
C112   C     0.72818   0.20564   0.97401   0.00000  Uiso   1.00
C113   C     0.89999   0.28579   0.04209   0.00000  Uiso   1.00
C114   C     0.93058   0.27470   0.10394   0.00000  Uiso   1.00
C115   C     0.93883   0.31980   0.15065   0.00000  Uiso   1.00
H116   H     0.82942   0.38478   0.94530   0.00000  Uiso   1.00
H117   H     0.88696   0.39364   0.82770   0.00000  Uiso   1.00
H118   H     0.72535   0.34876   0.94147   0.00000  Uiso   1.00
H119   H     0.86988   0.42709   0.06265   0.00000  Uiso   1.00
H120   H     0.96026   0.37954   0.70378   0.00000  Uiso   1.00
H121   H     0.61950   0.28492   0.94368   0.00000  Uiso   1.00
H122   H     0.92426   0.45009   0.19922   0.00000  Uiso   1.00
H123   H     0.90280   0.20054   0.99521   0.00000  Uiso   1.00
H124   H     0.96437   0.19929   0.88035   0.00000  Uiso   1.00
H125   H     0.80276   0.15441   0.99411   0.00000  Uiso   1.00
H126   H     0.94729   0.23274   0.11529   0.00000  Uiso   1.00
H127   H     0.02308   0.22180   0.74651   0.00000  Uiso   1.00
H128   H     0.68232   0.12718   0.98641   0.00000  Uiso   1.00
H129   H     0.98709   0.29235   0.24195   0.00000  Uiso   1.00
O130   O     0.03083   0.30316   0.64867   0.00000  Uiso   1.00
O131   O     0.58377   0.17903   0.96343   0.00000  Uiso   1.00
O132   O     0.98361   0.39573   0.29868   0.00000  Uiso   1.00
N133   N     0.96660   0.34259   0.72961   0.00000  Uiso   1.00
N134   N     0.64801   0.25413   0.95389   0.00000  Uiso   1.00
N135   N     0.93293   0.40854   0.19281   0.00000  Uiso   1.00
N136   N     0.00041   0.25771   0.75260   0.00000  Uiso   1.00
N137   N     0.68182   0.16925   0.97688   0.00000  Uiso   1.00
N138   N     0.96673   0.32366   0.21580   0.00000  Uiso   1.00
C139   C     0.34624   0.84257   0.45674   0.00000  Uiso   1.00
C140   C     0.38768   0.82184   0.39977   0.00000  Uiso   1.00
C141   C     0.40368   0.85168   0.33905   0.00000  Uiso   1.00
C142   C     0.44209   0.82536   0.29349   0.00000  Uiso   1.00
C143   C     0.50313   0.80140   0.20277   0.00000  Uiso   1.00
C144   C     0.29987   0.79745   0.46157   0.00000  Uiso   1.00
C145   C     0.24205   0.80680   0.45282   0.00000  Uiso   1.00
C146   C     0.20655   0.75995   0.45929   0.00000  Uiso   1.00
C147   C     0.13126   0.69815   0.46458   0.00000  Uiso   1.00
C148   C     0.37840   0.84001   0.52740   0.00000  Uiso   1.00
C149   C     0.38660   0.88514   0.57403   0.00000  Uiso   1.00
C150   C     0.41720   0.87412   0.63594   0.00000  Uiso   1.00
C151   C     0.46384   0.87839   0.74345   0.00000  Uiso   1.00
C152   C     0.38599   0.74275   0.48378   0.00000  Uiso   1.00
C153   C     0.40927   0.76762   0.41446   0.00000  Uiso   1.00
C154   C     0.44767   0.74124   0.36897   0.00000  Uiso   1.00
C155   C     0.46373   0.77105   0.30820   0.00000  Uiso   1.00
C156   C     0.32146   0.74324   0.47625   0.00000  Uiso   1.00
C157   C     0.28603   0.69636   0.48274   0.00000  Uiso   1.00
C158   C     0.22818   0.70564   0.47401   0.00000  Uiso   1.00
C159   C     0.39999   0.78579   0.54209   0.00000  Uiso   1.00
C160   C     0.43058   0.77470   0.60394   0.00000  Uiso   1.00
C161   C     0.43883   0.81980   0.65065   0.00000  Uiso   1.00
H162   H     0.32942   0.88478   0.44530   0.00000  Uiso   1.00
H163   H     0.38696   0.89364   0.32770   0.00000  Uiso   1.00
H164   H     0.22535   0.84876   0.44147   0.00000  Uiso   1.00
H165   H     0.36988   0.92709   0.56265   0.00000  Uiso   1.00
H166   H     0.46026   0.87954   0.20378   0.00000  Uiso   1.00
H167   H     0.11950   0.78492   0.44368   0.00000  Uiso   1.00
H168   H     0.42426   0.95009   0.69922   0.00000  Uiso   1.00
H169   H     0.40280   0.70054   0.49521   0.00000  Uiso   1.00
H170   H     0.46437   0.69929   0.38035   0.00000  Uiso   1.00
H171   H     0.30276   0.65441   0.49411   0.00000  Uiso   1.00
H172   H     0.44729   0.73274   0.61529   0.00000  Uiso   1.00
H173   H     0.52308   0.72180   0.24651   0.00000  Uiso   1.00
H174   H     0.18232   0.62718   0.48641   0.00000  Uiso   1.00
H175   H     0.48709   0.79235   0.74195   0.00000  Uiso   1.00
O176   O     0.53083   0.80316   0.14867   0.00000  Uiso   1.00
O177   O     0.08377   0.67903   0.46343   0.00000  Uiso   1.00
O178   O     0.48361   0.89573   0.79868   0.00000  Uiso   1.00
N179   N     0.46660   0.84259   0.22961   0.00000  Uiso   1.00
N180   N     0.14801   0.75413   0.45389   0.00000  Uiso   1.00
N181   N     0.43293   0.90854   0.69281   0.00000  Uiso   1.00
N182   N     0.50041   0.75771   0.25260   0.00000  Uiso   1.00
N183   N     0.18182   0.66925   0.47688   0.00000  Uiso   1.00
N184   N     0.46673   0.82366   0.71580   0.00000  Uiso   1.00
C185   C     0.84257   0.15376   0.70674   0.00000  Uiso   1.00
C186   C     0.82184   0.11232   0.64977   0.00000  Uiso   1.00
C187   C     0.85168   0.09632   0.58905   0.00000  Uiso   1.00
C188   C     0.82536   0.05791   0.54349   0.00000  Uiso   1.00
C189   C     0.80140   0.99687   0.45277   0.00000  Uiso   1.00
C190   C     0.79745   0.20013   0.71157   0.00000  Uiso   1.00
C191   C     0.80680   0.25795   0.70282   0.00000  Uiso   1.00
C192   C     0.75995   0.29345   0.70929   0.00000  Uiso   1.00
C193   C     0.69815   0.36874   0.71458   0.00000  Uiso   1.00
C194   C     0.84001   0.12160   0.77740   0.00000  Uiso   1.00
C195   C     0.88514   0.11340   0.82403   0.00000  Uiso   1.00
C196   C     0.87412   0.08280   0.88594   0.00000  Uiso   1.00
C197   C     0.87839   0.03616   0.99345   0.00000  Uiso   1.00
C198   C     0.74275   0.11401   0.73378   0.00000  Uiso   1.00
C199   C     0.76762   0.09073   0.66446   0.00000  Uiso   1.00
C200   C     0.74124   0.05233   0.61897   0.00000  Uiso   1.00
C201   C     0.77105   0.03627   0.55820   0.00000  Uiso   1.00
C202   C     0.74324   0.17854   0.72625   0.00000  Uiso   1.00
C203   C     0.69636   0.21397   0.73274   0.00000  Uiso   1.00
C204   C     0.70564   0.27182   0.72401   0.00000  Uiso   1.00
C205   C     0.78579   0.10001   0.79209   0.00000  Uiso   1.00
C206   C     0.77470   0.06942   0.85394   0.00000  Uiso   1.00
C207   C     0.81980   0.06117   0.90065   0.00000  Uiso   1.00
H208   H     0.88478   0.17058   0.69530   0.00000  Uiso   1.00
H209   H     0.89364   0.11304   0.57770   0.00000  Uiso   1.00
H210   H     0.84876   0.27465   0.69147   0.00000  Uiso   1.00
H211   H     0.92709   0.13012   0.81265   0.00000  Uiso   1.00
H212   H     0.87954   0.03974   0.45378   0.00000  Uiso   1.00
H213   H     0.78492   0.38050   0.69368   0.00000  Uiso   1.00
H214   H     0.95009   0.07574   0.94922   0.00000  Uiso   1.00
H215   H     0.70054   0.09720   0.74521   0.00000  Uiso   1.00
H216   H     0.69929   0.03563   0.63035   0.00000  Uiso   1.00
H217   H     0.65441   0.19724   0.74411   0.00000  Uiso   1.00
H218   H     0.73274   0.05271   0.86529   0.00000  Uiso   1.00
H219   H     0.72180   0.97692   0.49651   0.00000  Uiso   1.00
H220   H     0.62718   0.31768   0.73641   0.00000  Uiso   1.00
H221   H     0.79235   0.01291   0.99195   0.00000  Uiso   1.00
O222   O     0.80316   0.96917   0.39867   0.00000  Uiso   1.00
O223   O     0.67903   0.41623   0.71343   0.00000  Uiso   1.00
O224   O     0.89573   0.01639   0.04868   0.00000  Uiso   1.00
N225   N     0.84259   0.03340   0.47961   0.00000  Uiso   1.00
N226   N     0.75413   0.35199   0.70389   0.00000  Uiso   1.00
N227   N     0.90854   0.06707   0.94281   0.00000  Uiso   1.00
N228   N     0.75771   0.99959   0.50260   0.00000  Uiso   1.00
N229   N     0.66925   0.31818   0.72688   0.00000  Uiso   1.00
N230   N     0.82366   0.03327   0.96580   0.00000  Uiso   1.00
C231   C     0.34257   0.65376   0.20674   0.00000  Uiso   1.00
C232   C     0.32184   0.61232   0.14977   0.00000  Uiso   1.00
C233   C     0.35168   0.59632   0.08905   0.00000  Uiso   1.00
C234   C     0.32536   0.55791   0.04349   0.00000  Uiso   1.00
C235   C     0.30140   0.49687   0.95277   0.00000  Uiso   1.00
C236   C     0.29745   0.70013   0.21157   0.00000  Uiso   1.00
C237   C     0.30680   0.75795   0.20282   0.00000  Uiso   1.00
C238   C     0.25995   0.79345   0.20929   0.00000  Uiso   1.00
C239   C     0.19815   0.86874   0.21458   0.00000  Uiso   1.00
C240   C     0.34001   0.62160   0.27740   0.00000  Uiso   1.00
C241   C     0.38514   0.61340   0.32403   0.00000  Uiso   1.00
C242   C     0.37412   0.58280   0.38594   0.00000  Uiso   1.00
C243   C     0.37839   0.53616   0.49345   0.00000  Uiso   1.00
C244   C     0.24275   0.61401   0.23378   0.00000  Uiso   1.00
C245   C     0.26762   0.59073   0.16446   0.00000  Uiso   1.00
C246   C     0.24124   0.55233   0.11897   0.00000  Uiso   1.00
C247   C     0.27105   0.53627   0.05820   0.00000  Uiso   1.00
C248   C     0.24324   0.67854   0.22625   0.00000  Uiso   1.00
C249   C     0.19636   0.71397   0.23274   0.00000  Uiso   1.00
C250   C     0.20564   0.77182   0.22401   0.00000  Uiso   1.00
C251   C     0.28579   0.60001   0.29209   0.00000  Uiso   1.00
C252   C     0.27470   0.56942   0.35394   0.00000  Uiso   1.00
C253   C     0.31980   0.56117   0.40065   0.00000  Uiso   1.00
H254   H     0.38478   0.67058   0.19530   0.00000  Uiso   1.00
H255   H     0.39364   0.61304   0.07770   0.00000  Uiso   1.00
H256   H     0.34876   0.77465   0.19147   0.00000  Uiso   1.00
H257   H     0.42709   0.63012   0.31265   0.00000  Uiso   1.00
H258   H     0.37954   0.53974   0.95378   0.00000  Uiso   1.00
H259   H     0.28492   0.88050   0.19368   0.00000  Uiso   1.00
H260   H     0.45009   0.57574   0.44922   0.00000  Uiso   1.00
H261   H     0.20054   0.59720   0.24521   0.00000  Uiso   1.00
H262   H     0.19929   0.53563   0.13035   0.00000  Uiso   1.00
H263   H     0.15441   0.69724   0.24411   0.00000  Uiso   1.00
H264   H     0.23274   0.55271   0.36529   0.00000  Uiso   1.00
H265   H     0.22180   0.47692   0.99651   0.00000  Uiso   1.00
H266   H     0.12718   0.81768   0.23641   0.00000  Uiso   1.00
H267   H     0.29235   0.51291   0.49195   0.00000  Uiso   1.00
O268   O     0.30316   0.46917   0.89867   0.00000  Uiso   1.00
O269   O     0.17903   0.91623   0.21343   0.00000  Uiso   1.00
O270   O     0.39573   0.51639   0.54868   0.00000  Uiso   1.00
N271   N     0.34259   0.53340   0.97961   0.00000  Uiso   1.00
N272   N     0.25413   0.85199   0.20389   0.00000  Uiso   1.00
N273   N     0.40854   0.56707   0.44281   0.00000  Uiso   1.00
N274   N     0.25771   0.49959   0.00260   0.00000  Uiso   1.00
N275   N     0.16925   0.81818   0.22688   0.00000  Uiso   1.00
N276   N     0.32366   0.53327   0.46580   0.00000  Uiso   1.00
C277   C     0.65743   0.34624   0.20674   0.00000  Uiso   1.00
C278   C     0.67816   0.38768   0.14977   0.00000  Uiso   1.00
C279   C     0.64832   0.40368   0.08905   0.00000  Uiso   1.00
C280   C     0.67464   0.44209   0.04349   0.00000  Uiso   1.00
C281   C     0.69860   0.50313   0.95277   0.00000  Uiso   1.00
C282   C     0.70255   0.29987   0.21157   0.00000  Uiso   1.00
C283   C     0.69320   0.24205   0.20282   0.00000  Uiso   1.00
C284   C     0.74005   0.20655   0.20929   0.00000  Uiso   1.00
C285   C     0.80185   0.13126   0.21458   0.00000  Uiso   1.00
C286   C     0.65999   0.37840   0.27740   0.00000  Uiso   1.00
C287   C     0.61486   0.38660   0.32403   0.00000  Uiso   1.00
C288   C     0.62588   0.41720   0.38594   0.00000  Uiso   1.00
C289   C     0.62161   0.46384   0.49345   0.00000  Uiso   1.00
C290   C     0.75725   0.38599   0.23378   0.00000  Uiso   1.00
C291   C     0.73238   0.40927   0.16446   0.00000  Uiso   1.00
C292   C     0.75876   0.44767   0.11897   0.00000  Uiso   1.00
C293   C     0.72895   0.46373   0.05820   0.00000  Uiso   1.00
C294   C     0.75676   0.32146   0.22625   0.00000  Uiso   1.00
C295   C     0.80364   0.28603   0.23274   0.00000  Uiso   1.00
C296   C     0.79436   0.22818   0.22401   0.00000  Uiso   1.00
C297   C     0.71421   0.39999   0.29209   0.00000  Uiso   1.00
C298   C     0.72530   0.43058   0.35394   0.00000  Uiso   1.00
C299   C     0.68020   0.43883   0.40065   0.00000  Uiso   1.00
H300   H     0.61522   0.32942   0.19530   0.00000  Uiso   1.00
H301   H     0.60636   0.38696   0.07770   0.00000  Uiso   1.00
H302   H     0.65124   0.22535   0.19147   0.00000  Uiso   1.00
H303   H     0.57291   0.36988   0.31265   0.00000  Uiso   1.00
H304   H     0.62046   0.46026   0.95378   0.00000  Uiso   1.00
H305   H     0.71508   0.11950   0.19368   0.00000  Uiso   1.00
H306   H     0.54991   0.42426   0.44922   0.00000  Uiso   1.00
H307   H     0.79946   0.40280   0.24521   0.00000  Uiso   1.00
H308   H     0.80071   0.46437   0.13035   0.00000  Uiso   1.00
H309   H     0.84559   0.30276   0.24411   0.00000  Uiso   1.00
H310   H     0.76726   0.44729   0.36529   0.00000  Uiso   1.00
H311   H     0.77820   0.52308   0.99651   0.00000  Uiso   1.00
H312   H     0.87282   0.18232   0.23641   0.00000  Uiso   1.00
H313   H     0.70765   0.48709   0.49195   0.00000  Uiso   1.00
O314   O     0.69684   0.53083   0.89867   0.00000  Uiso   1.00
O315   O     0.82097   0.08377   0.21343   0.00000  Uiso   1.00
O316   O     0.60427   0.48361   0.54868   0.00000  Uiso   1.00
N317   N     0.65741   0.46660   0.97961   0.00000  Uiso   1.00
N318   N     0.74587   0.14801   0.20389   0.00000  Uiso   1.00
N319   N     0.59146   0.43293   0.44281   0.00000  Uiso   1.00
N320   N     0.74229   0.50041   0.00260   0.00000  Uiso   1.00
N321   N     0.83075   0.18182   0.22688   0.00000  Uiso   1.00
N322   N     0.67634   0.46673   0.46580   0.00000  Uiso   1.00
C323   C     0.15743   0.84624   0.70674   0.00000  Uiso   1.00
C324   C     0.17816   0.88768   0.64977   0.00000  Uiso   1.00
C325   C     0.14832   0.90368   0.58905   0.00000  Uiso   1.00
C326   C     0.17464   0.94209   0.54349   0.00000  Uiso   1.00
C327   C     0.19860   0.00313   0.45277   0.00000  Uiso   1.00
C328   C     0.20255   0.79987   0.71157   0.00000  Uiso   1.00
C329   C     0.19320   0.74205   0.70282   0.00000  Uiso   1.00
C330   C     0.24005   0.70655   0.70929   0.00000  Uiso   1.00
C331   C     0.30185   0.63126   0.71458   0.00000  Uiso   1.00
C332   C     0.15999   0.87840   0.77740   0.00000  Uiso   1.00
C333   C     0.11486   0.88660   0.82403   0.00000  Uiso   1.00
C334   C     0.12588   0.91720   0.88594   0.00000  Uiso   1.00
C335   C     0.12161   0.96384   0.99345   0.00000  Uiso   1.00
C336   C     0.25725   0.88599   0.73378   0.00000  Uiso   1.00
C337   C     0.23238   0.90927   0.66446   0.00000  Uiso   1.00
C338   C     0.25876   0.94767   0.61897   0.00000  Uiso   1.00
C339   C     0.22895   0.96373   0.55820   0.00000  Uiso   1.00
C340   C     0.25676   0.82146   0.72625   0.00000  Uiso   1.00
C341   C     0.30364   0.78603   0.73274   0.00000  Uiso   1.00
C342   C     0.29436   0.72818   0.72401   0.00000  Uiso   1.00
C343   C     0.21421   0.89999   0.79209   0.00000  Uiso   1.00
C344   C     0.22530   0.93058   0.85394   0.00000  Uiso   1.00
C345   C     0.18020   0.93883   0.90065   0.00000  Uiso   1.00
H346   H     0.11522   0.82942   0.69530   0.00000  Uiso   1.00
H347   H     0.10636   0.88696   0.57770   0.00000  Uiso   1.00
H348   H     0.15124   0.72535   0.69147   0.00000  Uiso   1.00
H349   H     0.07291   0.86988   0.81265   0.00000  Uiso   1.00
H350   H     0.12046   0.96026   0.45378   0.00000  Uiso   1.00
H351   H     0.21508   0.61950   0.69368   0.00000  Uiso   1.00
H352   H     0.04991   0.92426   0.94922   0.00000  Uiso   1.00
H353   H     0.29946   0.90280   0.74521   0.00000  Uiso   1.00
H354   H     0.30071   0.96437   0.63035   0.00000  Uiso   1.00
H355   H     0.34559   0.80276   0.74411   0.00000  Uiso   1.00
H356   H     0.26726   0.94729   0.86529   0.00000  Uiso   1.00
H357   H     0.27820   0.02308   0.49651   0.00000  Uiso   1.00
H358   H     0.37282   0.68232   0.73641   0.00000  Uiso   1.00
H359   H     0.20765   0.98709   0.99195   0.00000  Uiso   1.00
O360   O     0.19684   0.03083   0.39867   0.00000  Uiso   1.00
O361   O     0.32097   0.58377   0.71343   0.00000  Uiso   1.00
O362   O     0.10427   0.98361   0.04868   0.00000  Uiso   1.00
N363   N     0.15741   0.96660   0.47961   0.00000  Uiso   1.00
N364   N     0.24587   0.64801   0.70389   0.00000  Uiso   1.00
N365   N     0.09146   0.93293   0.94281   0.00000  Uiso   1.00
N366   N     0.24229   0.00041   0.50260   0.00000  Uiso   1.00
N367   N     0.33075   0.68182   0.72688   0.00000  Uiso   1.00
N368   N     0.17634   0.96673   0.96580   0.00000  Uiso   1.00
C369   C     0.34624   0.34257   0.79326   0.00000  Uiso   1.00
C370   C     0.38768   0.32184   0.85023   0.00000  Uiso   1.00
C371   C     0.40368   0.35168   0.91095   0.00000  Uiso   1.00
C372   C     0.44209   0.32536   0.95651   0.00000  Uiso   1.00
C373   C     0.50313   0.30140   0.04723   0.00000  Uiso   1.00
C374   C     0.29987   0.29745   0.78843   0.00000  Uiso   1.00
C375   C     0.24205   0.30680   0.79718   0.00000  Uiso   1.00
C376   C     0.20655   0.25995   0.79071   0.00000  Uiso   1.00
C377   C     0.13126   0.19815   0.78542   0.00000  Uiso   1.00
C378   C     0.37840   0.34001   0.72260   0.00000  Uiso   1.00
C379   C     0.38660   0.38514   0.67597   0.00000  Uiso   1.00
C380   C     0.41720   0.37412   0.61406   0.00000  Uiso   1.00
C381   C     0.46384   0.37839   0.50655   0.00000  Uiso   1.00
C382   C     0.38599   0.24275   0.76622   0.00000  Uiso   1.00
C383   C     0.40927   0.26762   0.83554   0.00000  Uiso   1.00
C384   C     0.44767   0.24124   0.88103   0.00000  Uiso   1.00
C385   C     0.46373   0.27105   0.94180   0.00000  Uiso   1.00
C386   C     0.32146   0.24324   0.77375   0.00000  Uiso   1.00
C387   C     0.28603   0.19636   0.76726   0.00000  Uiso   1.00
C388   C     0.22818   0.20564   0.77599   0.00000  Uiso   1.00
C389   C     0.39999   0.28579   0.70791   0.00000  Uiso   1.00
C390   C     0.43058   0.27470   0.64606   0.00000  Uiso   1.00
C391   C     0.43883   0.31980   0.59935   0.00000  Uiso   1.00
H392   H     0.32942   0.38478   0.80470   0.00000  Uiso   1.00
H393   H     0.38696   0.39364   0.92230   0.00000  Uiso   1.00
H394   H     0.22535   0.34876   0.80853   0.00000  Uiso   1.00
H395   H     0.36988   0.42709   0.68735   0.00000  Uiso   1.00
H396   H     0.46026   0.37954   0.04622   0.00000  Uiso   1.00
H397   H     0.11950   0.28492   0.80632   0.00000  Uiso   1.00
H398   H     0.42426   0.45009   0.55078   0.00000  Uiso   1.00
H399   H     0.40280   0.20054   0.75479   0.00000  Uiso   1.00
H400   H     0.46437   0.19929   0.86965   0.00000  Uiso   1.00
H401   H     0.30276   0.15441   0.75589   0.00000  Uiso   1.00
H402   H     0.44729   0.23274   0.63471   0.00000  Uiso   1.00
H403   H     0.52308   0.22180   0.00349   0.00000  Uiso   1.00
H404   H     0.18232   0.12718   0.76359   0.00000  Uiso   1.00
H405   H     0.48709   0.29235   0.50805   0.00000  Uiso   1.00
O406   O     0.53083   0.30316   0.10133   0.00000  Uiso   1.00
O407   O     0.08377   0.17903   0.78657   0.00000  Uiso   1.00
O408   O     0.48361   0.39573   0.45132   0.00000  Uiso   1.00
N409   N     0.46660   0.34259   0.02039   0.00000  Uiso   1.00
N410   N     0.14801   0.25413   0.79611   0.00000  Uiso   1.00
N411   N     0.43293   0.40854   0.55719   0.00000  Uiso   1.00
N412   N     0.50041   0.25771   0.99740   0.00000  Uiso   1.00
N413   N     0.18182   0.16925   0.77312   0.00000  Uiso   1.00
N414   N     0.46673   0.32366   0.53420   0.00000  Uiso   1.00
C415   C     0.84624   0.84257   0.29326   0.00000  Uiso   1.00
C416   C     0.88768   0.82184   0.35023   0.00000  Uiso   1.00
C417   C     0.90368   0.85168   0.41095   0.00000  Uiso   1.00
C418   C     0.94209   0.82536   0.45651   0.00000  Uiso   1.00
C419   C     0.00313   0.80140   0.54723   0.00000  Uiso   1.00
C420   C     0.79987   0.79745   0.28843   0.00000  Uiso   1.00
C421   C     0.74205   0.80680   0.29718   0.00000  Uiso   1.00
C422   C     0.70655   0.75995   0.29071   0.00000  Uiso   1.00
C423   C     0.63126   0.69815   0.28542   0.00000  Uiso   1.00
C424   C     0.87840   0.84001   0.22260   0.00000  Uiso   1.00
C425   C     0.88660   0.88514   0.17597   0.00000  Uiso   1.00
C426   C     0.91720   0.87412   0.11406   0.00000  Uiso   1.00
C427   C     0.96384   0.87839   0.00655   0.00000  Uiso   1.00
C428   C     0.88599   0.74275   0.26622   0.00000  Uiso   1.00
C429   C     0.90927   0.76762   0.33554   0.00000  Uiso   1.00
C430   C     0.94767   0.74124   0.38103   0.00000  Uiso   1.00
C431   C     0.96373   0.77105   0.44180   0.00000  Uiso   1.00
C432   C     0.82146   0.74324   0.27375   0.00000  Uiso   1.00
C433   C     0.78603   0.69636   0.26726   0.00000  Uiso   1.00
C434   C     0.72818   0.70564   0.27599   0.00000  Uiso   1.00
C435   C     0.89999   0.78579   0.20791   0.00000  Uiso   1.00
C436   C     0.93058   0.77470   0.14606   0.00000  Uiso   1.00
C437   C     0.93883   0.81980   0.09935   0.00000  Uiso   1.00
H438   H     0.82942   0.88478   0.30470   0.00000  Uiso   1.00
H439   H     0.88696   0.89364   0.42230   0.00000  Uiso   1.00
H440   H     0.72535   0.84876   0.30853   0.00000  Uiso   1.00
H441   H     0.86988   0.92709   0.18735   0.00000  Uiso   1.00
H442   H     0.96026   0.87954   0.54622   0.00000  Uiso   1.00
H443   H     0.61950   0.78492   0.30632   0.00000  Uiso   1.00
H444   H     0.92426   0.95009   0.05078   0.00000  Uiso   1.00
H445   H     0.90280   0.70054   0.25479   0.00000  Uiso   1.00
H446   H     0.96437   0.69929   0.36965   0.00000  Uiso   1.00
H447   H     0.80276   0.65441   0.25589   0.00000  Uiso   1.00
H448   H     0.94729   0.73274   0.13471   0.00000  Uiso   1.00
H449   H     0.02308   0.72180   0.50349   0.00000  Uiso   1.00
H450   H     0.68232   0.62718   0.26359   0.00000  Uiso   1.00
H451   H     0.98709   0.79235   0.00805   0.00000  Uiso   1.00
O452   O     0.03083   0.80316   0.60133   0.00000  Uiso   1.00
O453   O     0.58377   0.67903   0.28657   0.00000  Uiso   1.00
O454   O     0.98361   0.89573   0.95132   0.00000  Uiso   1.00
N455   N     0.96660   0.84259   0.52039   0.00000  Uiso   1.00
N456   N     0.64801   0.75413   0.29611   0.00000  Uiso   1.00
N457   N     0.93293   0.90854   0.05719   0.00000  Uiso   1.00
N458   N     0.00041   0.75771   0.49740   0.00000  Uiso   1.00
N459   N     0.68182   0.66925   0.27312   0.00000  Uiso   1.00
N460   N     0.96673   0.82366   0.03420   0.00000  Uiso   1.00
C461   C     0.15376   0.15743   0.29326   0.00000  Uiso   1.00
C462   C     0.11232   0.17816   0.35023   0.00000  Uiso   1.00
C463   C     0.09632   0.14832   0.41095   0.00000  Uiso   1.00
C464   C     0.05791   0.17464   0.45651   0.00000  Uiso   1.00
C465   C     0.99687   0.19860   0.54723   0.00000  Uiso   1.00
C466   C     0.20013   0.20255   0.28843   0.00000  Uiso   1.00
C467   C     0.25795   0.19320   0.29718   0.00000  Uiso   1.00
C468   C     0.29345   0.24005   0.29071   0.00000  Uiso   1.00
C469   C     0.36874   0.30185   0.28542   0.00000  Uiso   1.00
C470   C     0.12160   0.15999   0.22260   0.00000  Uiso   1.00
C471   C     0.11340   0.11486   0.17597   0.00000  Uiso   1.00
C472   C     0.08280   0.12588   0.11406   0.00000  Uiso   1.00
C473   C     0.03616   0.12161   0.00655   0.00000  Uiso   1.00
C474   C     0.11401   0.25725   0.26622   0.00000  Uiso   1.00
C475   C     0.09073   0.23238   0.33554   0.00000  Uiso   1.00
C476   C     0.05233   0.25876   0.38103   0.00000  Uiso   1.00
C477   C     0.03627   0.22895   0.44180   0.00000  Uiso   1.00
C478   C     0.17854   0.25676   0.27375   0.00000  Uiso   1.00
C479   C     0.21397   0.30364   0.26726   0.00000  Uiso   1.00
C480   C     0.27182   0.29436   0.27599   0.00000  Uiso   1.00
C481   C     0.10001   0.21421   0.20791   0.00000  Uiso   1.00
C482   C     0.06942   0.22530   0.14606   0.00000  Uiso   1.00
C483   C     0.06117   0.18020   0.09935   0.00000  Uiso   1.00
H484   H     0.17058   0.11522   0.30470   0.00000  Uiso   1.00
H485   H     0.11304   0.10636   0.42230   0.00000  Uiso   1.00
H486   H     0.27465   0.15124   0.30853   0.00000  Uiso   1.00
H487   H     0.13012   0.07291   0.18735   0.00000  Uiso   1.00
H488   H     0.03974   0.12046   0.54622   0.00000  Uiso   1.00
H489   H     0.38050   0.21508   0.30632   0.00000  Uiso   1.00
H490   H     0.07574   0.04991   0.05078   0.00000  Uiso   1.00
H491   H     0.09720   0.29946   0.25479   0.00000  Uiso   1.00
H492   H     0.03563   0.30071   0.36965   0.00000  Uiso   1.00
H493   H     0.19724   0.34559   0.25589   0.00000  Uiso   1.00
H494   H     0.05271   0.26726   0.13471   0.00000  Uiso   1.00
H495   H     0.97692   0.27820   0.50349   0.00000  Uiso   1.00
H496   H     0.31768   0.37282   0.26359   0.00000  Uiso   1.00
H497   H     0.01291   0.20765   0.00805   0.00000  Uiso   1.00
O498   O     0.96917   0.19684   0.60133   0.00000  Uiso   1.00
O499   O     0.41623   0.32097   0.28657   0.00000  Uiso   1.00
O500   O     0.01639   0.10427   0.95132   0.00000  Uiso   1.00
N501   N     0.03340   0.15741   0.52039   0.00000  Uiso   1.00
N502   N     0.35199   0.24587   0.29611   0.00000  Uiso   1.00
N503   N     0.06707   0.09146   0.05719   0.00000  Uiso   1.00
N504   N     0.99959   0.24229   0.49740   0.00000  Uiso   1.00
N505   N     0.31818   0.33075   0.27312   0.00000  Uiso   1.00
N506   N     0.03327   0.17634   0.03420   0.00000  Uiso   1.00
C507   C     0.65376   0.65743   0.79326   0.00000  Uiso   1.00
C508   C     0.61232   0.67816   0.85023   0.00000  Uiso   1.00
C509   C     0.59632   0.64832   0.91095   0.00000  Uiso   1.00
C510   C     0.55791   0.67464   0.95651   0.00000  Uiso   1.00
C511   C     0.49687   0.69860   0.04723   0.00000  Uiso   1.00
C512   C     0.70013   0.70255   0.78843   0.00000  Uiso   1.00
C513   C     0.75795   0.69320   0.79718   0.00000  Uiso   1.00
C514   C     0.79345   0.74005   0.79071   0.00000  Uiso   1.00
C515   C     0.86874   0.80185   0.78542   0.00000  Uiso   1.00
C516   C     0.62160   0.65999   0.72260   0.00000  Uiso   1.00
C517   C     0.61340   0.61486   0.67597   0.00000  Uiso   1.00
C518   C     0.58280   0.62588   0.61406   0.00000  Uiso   1.00
C519   C     0.53616   0.62161   0.50655   0.00000  Uiso   1.00
C520   C     0.61401   0.75725   0.76622   0.00000  Uiso   1.00
C521   C     0.59073   0.73238   0.83554   0.00000  Uiso   1.00
C522   C     0.55233   0.75876   0.88103   0.00000  Uiso   1.00
C523   C     0.53627   0.72895   0.94180   0.00000  Uiso   1.00
C524   C     0.67854   0.75676   0.77375   0.00000  Uiso   1.00
C525   C     0.71397   0.80364   0.76726   0.00000  Uiso   1.00
C526   C     0.77182   0.79436   0.77599   0.00000  Uiso   1.00
C527   C     0.60001   0.71421   0.70791   0.00000  Uiso   1.00
C528   C     0.56942   0.72530   0.64606   0.00000  Uiso   1.00
C529   C     0.56117   0.68020   0.59935   0.00000  Uiso   1.00
H530   H     0.67058   0.61522   0.80470   0.00000  Uiso   1.00
H531   H     0.61304   0.60636   0.92230   0.00000  Uiso   1.00
H532   H     0.77465   0.65124   0.80853   0.00000  Uiso   1.00
H533   H     0.63012   0.57291   0.68735   0.00000  Uiso   1.00
H534   H     0.53974   0.62046   0.04622   0.00000  Uiso   1.00
H535   H     0.88050   0.71508   0.80632   0.00000  Uiso   1.00
H536   H     0.57574   0.54991   0.55078   0.00000  Uiso   1.00
H537   H     0.59720   0.79946   0.75479   0.00000  Uiso   1.00
H538   H     0.53563   0.80071   0.86965   0.00000  Uiso   1.00
H539   H     0.69724   0.84559   0.75589   0.00000  Uiso   1.00
H540   H     0.55271   0.76726   0.63471   0.00000  Uiso   1.00
H541   H     0.47692   0.77820   0.00349   0.00000  Uiso   1.00
H542   H     0.81768   0.87282   0.76359   0.00000  Uiso   1.00
H543   H     0.51291   0.70765   0.50805   0.00000  Uiso   1.00
O544   O     0.46917   0.69684   0.10133   0.00000  Uiso   1.00
O545   O     0.91623   0.82097   0.78657   0.00000  Uiso   1.00
O546   O     0.51639   0.60427   0.45132   0.00000  Uiso   1.00
N547   N     0.53340   0.65741   0.02039   0.00000  Uiso   1.00
N548   N     0.85199   0.74587   0.79611   0.00000  Uiso   1.00
N549   N     0.56707   0.59146   0.55719   0.00000  Uiso   1.00
N550   N     0.49959   0.74229   0.99740   0.00000  Uiso   1.00
N551   N     0.81818   0.83075   0.77312   0.00000  Uiso   1.00
N552   N     0.53327   0.67634   0.53420   0.00000  Uiso   1.00
C553   C     0.15743   0.34624   0.54326   0.00000  Uiso   1.00
C554   C     0.17816   0.38768   0.60023   0.00000  Uiso   1.00
C555   C     0.14832   0.40368   0.66095   0.00000  Uiso   1.00
C556   C     0.17464   0.44209   0.70651   0.00000  Uiso   1.00
C557   C     0.19860   0.50313   0.79723   0.00000  Uiso   1.00
C558   C     0.20255   0.29987   0.53843   0.00000  Uiso   1.00
C559   C     0.19320   0.24205   0.54718   0.00000  Uiso   1.00
C560   C     0.24005   0.20655   0.54071   0.00000  Uiso   1.00
C561   C     0.30185   0.13126   0.53542   0.00000  Uiso   1.00
C562   C     0.15999   0.37840   0.47260   0.00000  Uiso   1.00
C563   C     0.11486   0.38660   0.42597   0.00000  Uiso   1.00
C564   C     0.12588   0.41720   0.36406   0.00000  Uiso   1.00
C565   C     0.12161   0.46384   0.25655   0.00000  Uiso   1.00
C566   C     0.25725   0.38599   0.51622   0.00000  Uiso   1.00
C567   C     0.23238   0.40927   0.58554   0.00000  Uiso   1.00
C568   C     0.25876   0.44767   0.63103   0.00000  Uiso   1.00
C569   C     0.22895   0.46373   0.69180   0.00000  Uiso   1.00
C570   C     0.25676   0.32146   0.52375   0.00000  Uiso   1.00
C571   C     0.30364   0.28603   0.51726   0.00000  Uiso   1.00
C572   C     0.29436   0.22818   0.52599   0.00000  Uiso   1.00
C573   C     0.21421   0.39999   0.45791   0.00000  Uiso   1.00
C574   C     0.22530   0.43058   0.39606   0.00000  Uiso   1.00
C575   C     0.18020   0.43883   0.34935   0.00000  Uiso   1.00
H576   H     0.11522   0.32942   0.55470   0.00000  Uiso   1.00
H577   H     0.10636   0.38696   0.67230   0.00000  Uiso   1.00
H578   H     0.15124   0.22535   0.55853   0.00000  Uiso   1.00
H579   H     0.07291   0.36988   0.43735   0.00000  Uiso   1.00
H580   H     0.12046   0.46026   0.79622   0.00000  Uiso   1.00
H581   H     0.21508   0.11950   0.55632   0.00000  Uiso   1.00
H582   H     0.04991   0.42426   0.30078   0.00000  Uiso   1.00
H583   H     0.29946   0.40280   0.50479   0.00000  Uiso   1.00
H584   H     0.30071   0.46437   0.61965   0.00000  Uiso   1.00
H585   H     0.34559   0.30276   0.50589   0.00000  Uiso   1.00
H586   H     0.26726   0.44729   0.38471   0.00000  Uiso   1.00
H587   H     0.27820   0.52308   0.75349   0.00000  Uiso   1.00
H588   H     0.37282   0.18232   0.51359   0.00000  Uiso   1.00
H589   H     0.20765   0.48709   0.25805   0.00000  Uiso   1.00
O590   O     0.19684   0.53083   0.85133   0.00000  Uiso   1.00
O591   O     0.32097   0.08377   0.53657   0.00000  Uiso   1.00
O592   O     0.10427   0.48361   0.20132   0.00000  Uiso   1.00
N593   N     0.15741   0.46660   0.77039   0.00000  Uiso   1.00
N594   N     0.24587   0.14801   0.54611   0.00000  Uiso   1.00
N595   N     0.09146   0.43293   0.30719   0.00000  Uiso   1.00
N596   N     0.24229   0.50041   0.74740   0.00000  Uiso   1.00
N597   N     0.33075   0.18182   0.52312   0.00000  Uiso   1.00
N598   N     0.17634   0.46673   0.28420   0.00000  Uiso   1.00
C599   C     0.65743   0.84624   0.04326   0.00000  Uiso   1.00
C600   C     0.67816   0.88768   0.10023   0.00000  Uiso   1.00
C601   C     0.64832   0.90368   0.16095   0.00000  Uiso   1.00
C602   C     0.67464   0.94209   0.20651   0.00000  Uiso   1.00
C603   C     0.69860   0.00313   0.29723   0.00000  Uiso   1.00
C604   C     0.70255   0.79987   0.03843   0.00000  Uiso   1.00
C605   C     0.69320   0.74205   0.04718   0.00000  Uiso   1.00
C606   C     0.74005   0.70655   0.04071   0.00000  Uiso   1.00
C607   C     0.80185   0.63126   0.03542   0.00000  Uiso   1.00
C608   C     0.65999   0.87840   0.97260   0.00000  Uiso   1.00
C609   C     0.61486   0.88660   0.92597   0.00000  Uiso   1.00
C610   C     0.62588   0.91720   0.86406   0.00000  Uiso   1.00
C611   C     0.62161   0.96384   0.75655   0.00000  Uiso   1.00
C612   C     0.75725   0.88599   0.01622   0.00000  Uiso   1.00
C613   C     0.73238   0.90927   0.08554   0.00000  Uiso   1.00
C614   C     0.75876   0.94767   0.13103   0.00000  Uiso   1.00
C615   C     0.72895   0.96373   0.19180   0.00000  Uiso   1.00
C616   C     0.75676   0.82146   0.02375   0.00000  Uiso   1.00
C617   C     0.80364   0.78603   0.01726   0.00000  Uiso   1.00
C618   C     0.79436   0.72818   0.02599   0.00000  Uiso   1.00
C619   C     0.71421   0.89999   0.95791   0.00000  Uiso   1.00
C620   C     0.72530   0.93058   0.89606   0.00000  Uiso   1.00
C621   C     0.68020   0.93883   0.84935   0.00000  Uiso   1.00
H622   H     0.61522   0.82942   0.05470   0.00000  Uiso   1.00
H623   H     0.60636   0.88696   0.17230   0.00000  Uiso   1.00
H624   H     0.65124   0.72535   0.05853   0.00000  Uiso   1.00
H625   H     0.57291   0.86988   0.93735   0.00000  Uiso   1.00
H626   H     0.62046   0.96026   0.29622   0.00000  Uiso   1.00
H627   H     0.71508   0.61950   0.05632   0.00000  Uiso   1.00
H628   H     0.54991   0.92426   0.80078   0.00000  Uiso   1.00
H629   H     0.79946   0.90280   0.00479   0.00000  Uiso   1.00
H630   H     0.80071   0.96437   0.11965   0.00000  Uiso   1.00
H631   H     0.84559   0.80276   0.00589   0.00000  Uiso   1.00
H632   H     0.76726   0.94729   0.88471   0.00000  Uiso   1.00
H633   H     0.77820   0.02308   0.25349   0.00000  Uiso   1.00
H634   H     0.87282   0.68232   0.01359   0.00000  Uiso   1.00
H635   H     0.70765   0.98709   0.75805   0.00000  Uiso   1.00
O636   O     0.69684   0.03083   0.35133   0.00000  Uiso   1.00
O637   O     0.82097   0.58377   0.03657   0.00000  Uiso   1.00
O638   O     0.60427   0.98361   0.70132   0.00000  Uiso   1.00
N639   N     0.65741   0.96660   0.27039   0.00000  Uiso   1.00
N640   N     0.74587   0.64801   0.04611   0.00000  Uiso   1.00
N641   N     0.59146   0.93293   0.80719   0.00000  Uiso   1.00
N642   N     0.74229   0.00041   0.24740   0.00000  Uiso   1.00
N643   N     0.83075   0.68182   0.02312   0.00000  Uiso   1.00
N644   N     0.67634   0.96673   0.78420   0.00000  Uiso   1.00
C645   C     0.34257   0.15376   0.04326   0.00000  Uiso   1.00
C646   C     0.32184   0.11232   0.10023   0.00000  Uiso   1.00
C647   C     0.35168   0.09632   0.16095   0.00000  Uiso   1.00
C648   C     0.32536   0.05791   0.20651   0.00000  Uiso   1.00
C649   C     0.30140   0.99687   0.29723   0.00000  Uiso   1.00
C650   C     0.29745   0.20013   0.03843   0.00000  Uiso   1.00
C651   C     0.30680   0.25795   0.04718   0.00000  Uiso   1.00
C652   C     0.25995   0.29345   0.04071   0.00000  Uiso   1.00
C653   C     0.19815   0.36874   0.03542   0.00000  Uiso   1.00
C654   C     0.34001   0.12160   0.97260   0.00000  Uiso   1.00
C655   C     0.38514   0.11340   0.92597   0.00000  Uiso   1.00
C656   C     0.37412   0.08280   0.86406   0.00000  Uiso   1.00
C657   C     0.37839   0.03616   0.75655   0.00000  Uiso   1.00
C658   C     0.24275   0.11401   0.01622   0.00000  Uiso   1.00
C659   C     0.26762   0.09073   0.08554   0.00000  Uiso   1.00
C660   C     0.24124   0.05233   0.13103   0.00000  Uiso   1.00
C661   C     0.27105   0.03627   0.19180   0.00000  Uiso   1.00
C662   C     0.24324   0.17854   0.02375   0.00000  Uiso   1.00
C663   C     0.19636   0.21397   0.01726   0.00000  Uiso   1.00
C664   C     0.20564   0.27182   0.02599   0.00000  Uiso   1.00
C665   C     0.28579   0.10001   0.95791   0.00000  Uiso   1.00
C666   C     0.27470   0.06942   0.89606   0.00000  Uiso   1.00
C667   C     0.31980   0.06117   0.84935   0.00000  Uiso   1.00
H668   H     0.38478   0.17058   0.05470   0.00000  Uiso   1.00
H669   H     0.39364   0.11304   0.17230   0.00000  Uiso   1.00
H670   H     0.34876   0.27465   0.05853   0.00000  Uiso   1.00
H671   H     0.42709   0.13012   0.93735   0.00000  Uiso   1.00
H672   H     0.37954   0.03974   0.29622   0.00000  Uiso   1.00
H673   H     0.28492   0.38050   0.05632   0.00000  Uiso   1.00
H674   H     0.45009   0.07574   0.80078   0.00000  Uiso   1.00
H675   H     0.20054   0.09720   0.00479   0.00000  Uiso   1.00
H676   H     0.19929   0.03563   0.11965   0.00000  Uiso   1.00
H677   H     0.15441   0.19724   0.00589   0.00000  Uiso   1.00
H678   H     0.23274   0.05271   0.88471   0.00000  Uiso   1.00
H679   H     0.22180   0.97692   0.25349   0.00000  Uiso   1.00
H680   H     0.12718   0.31768   0.01359   0.00000  Uiso   1.00
H681   H     0.29235   0.01291   0.75805   0.00000  Uiso   1.00
O682   O     0.30316   0.96917   0.35133   0.00000  Uiso   1.00
O683   O     0.17903   0.41623   0.03657   0.00000  Uiso   1.00
O684   O     0.39573   0.01639   0.70132   0.00000  Uiso   1.00
N685   N     0.34259   0.03340   0.27039   0.00000  Uiso   1.00
N686   N     0.25413   0.35199   0.04611   0.00000  Uiso   1.00
N687   N     0.40854   0.06707   0.80719   0.00000  Uiso   1.00
N688   N     0.25771   0.99959   0.24740   0.00000  Uiso   1.00
N689   N     0.16925   0.31818   0.02312   0.00000  Uiso   1.00
N690   N     0.32366   0.03327   0.78420   0.00000  Uiso   1.00
C691   C     0.84257   0.65376   0.54326   0.00000  Uiso   1.00
C692   C     0.82184   0.61232   0.60023   0.00000  Uiso   1.00
C693   C     0.85168   0.59632   0.66095   0.00000  Uiso   1.00
C694   C     0.82536   0.55791   0.70651   0.00000  Uiso   1.00
C695   C     0.80140   0.49687   0.79723   0.00000  Uiso   1.00
C696   C     0.79745   0.70013   0.53843   0.00000  Uiso   1.00
C697   C     0.80680   0.75795   0.54718   0.00000  Uiso   1.00
C698   C     0.75995   0.79345   0.54071   0.00000  Uiso   1.00
C699   C     0.69815   0.86874   0.53542   0.00000  Uiso   1.00
C700   C     0.84001   0.62160   0.47260   0.00000  Uiso   1.00
C701   C     0.88514   0.61340   0.42597   0.00000  Uiso   1.00
C702   C     0.87412   0.58280   0.36406   0.00000  Uiso   1.00
C703   C     0.87839   0.53616   0.25655   0.00000  Uiso   1.00
C704   C     0.74275   0.61401   0.51622   0.00000  Uiso   1.00
C705   C     0.76762   0.59073   0.58554   0.00000  Uiso   1.00
C706   C     0.74124   0.55233   0.63103   0.00000  Uiso   1.00
C707   C     0.77105   0.53627   0.69180   0.00000  Uiso   1.00
C708   C     0.74324   0.67854   0.52375   0.00000  Uiso   1.00
C709   C     0.69636   0.71397   0.51726   0.00000  Uiso   1.00
C710   C     0.70564   0.77182   0.52599   0.00000  Uiso   1.00
C711   C     0.78579   0.60001   0.45791   0.00000  Uiso   1.00
C712   C     0.77470   0.56942   0.39606   0.00000  Uiso   1.00
C713   C     0.81980   0.56117   0.34935   0.00000  Uiso   1.00
H714   H     0.88478   0.67058   0.55470   0.00000  Uiso   1.00
H715   H     0.89364   0.61304   0.67230   0.00000  Uiso   1.00
H716   H     0.84876   0.77465   0.55853   0.00000  Uiso   1.00
H717   H     0.92709   0.63012   0.43735   0.00000  Uiso   1.00
H718   H     0.87954   0.53974   0.79622   0.00000  Uiso   1.00
H719   H     0.78492   0.88050   0.55632   0.00000  Uiso   1.00
H720   H     0.95009   0.57574   0.30078   0.00000  Uiso   1.00
H721   H     0.70054   0.59720   0.50479   0.00000  Uiso   1.00
H722   H     0.69929   0.53563   0.61965   0.00000  Uiso   1.00
H723   H     0.65441   0.69724   0.50589   0.00000  Uiso   1.00
H724   H     0.73274   0.55271   0.38471   0.00000  Uiso   1.00
H725   H     0.72180   0.47692   0.75349   0.00000  Uiso   1.00
H726   H     0.62718   0.81768   0.51359   0.00000  Uiso   1.00
H727   H     0.79235   0.51291   0.25805   0.00000  Uiso   1.00
O728   O     0.80316   0.46917   0.85133   0.00000  Uiso   1.00
O729   O     0.67903   0.91623   0.53657   0.00000  Uiso   1.00
O730   O     0.89573   0.51639   0.20132   0.00000  Uiso   1.00
N731   N     0.84259   0.53340   0.77039   0.00000  Uiso   1.00
N732   N     0.75413   0.85199   0.54611   0.00000  Uiso   1.00
N733   N     0.90854   0.56707   0.30719   0.00000  Uiso   1.00
N734   N     0.75771   0.49959   0.74740   0.00000  Uiso   1.00
N735   N     0.66925   0.81818   0.52312   0.00000  Uiso   1.00
N736   N     0.82366   0.53327   0.28420   0.00000  Uiso   1.00
